MODEL        1
REMARK 921   NORMALIZED FREE ENERGY PREDICTED BY IDOCK:   -6.64 KCAL/MOL
REMARK 922        TOTAL FREE ENERGY PREDICTED BY IDOCK:   -8.81 KCAL/MOL
REMARK 923 INTER-LIGAND FREE ENERGY PREDICTED BY IDOCK:   -8.19 KCAL/MOL
REMARK 924 INTRA-LIGAND FREE ENERGY PREDICTED BY IDOCK:   -0.62 KCAL/MOL
REMARK 927      BINDING AFFINITY PREDICTED BY RF-SCORE:    0.00 PKD
ROOT
HETATM    1  O   UNL     1     -13.042  13.644  65.335  1.00  0.00    -0.704 OA 
HETATM    2  N   UNL     1     -12.660  12.682  64.647  1.00  0.00    -0.472 N  
HETATM    3  C   UNL     1     -11.378  12.134  64.970  1.00  0.00    -0.328 A  
HETATM    4  O   UNL     1     -13.311  12.126  63.758  1.00  0.00    -0.701 OA 
HETATM    5  N   UNL     1     -10.499  11.754  64.065  1.00  0.00    -0.330 NA 
HETATM    6  C   UNL     1      -9.448  11.253  64.791  1.00  0.00    -0.194 A  
HETATM    7  C   UNL     1      -9.708  11.320  66.142  1.00  0.00    -0.220 A  
HETATM    8  N   UNL     1     -10.946  11.910  66.249  1.00  0.00    -0.290 NA 
ENDROOT
BRANCH   8   9
HETATM    9  C   UNL     1     -11.665  12.114  67.494  1.00  0.00    -0.315 C  
BRANCH   9  10
HETATM   10  C   UNL     1     -11.215  13.366  68.216  1.00  0.00    -0.279 C  
HETATM   11  N   UNL     1     -12.166  14.352  68.330  1.00  0.00    -0.600 N  
HETATM   12  O   UNL     1     -10.076  13.471  68.667  1.00  0.00    -0.226 OA 
HETATM   13  H   UNL     1     -13.092  14.190  67.933  1.00  0.00     0.000 HD 
BRANCH  11  14
HETATM   14  C   UNL     1     -11.902  15.612  68.994  1.00  0.00    -0.364 C  
BRANCH  14  15
HETATM   15  C   UNL     1     -12.390  15.585  70.418  1.00  0.00    -0.451 A  
HETATM   16  C   UNL     1     -13.705  15.186  70.709  1.00  0.00    -0.244 A  
HETATM   17  C   UNL     1     -14.162  15.152  72.029  1.00  0.00    -0.673 A  
HETATM   18  C   UNL     1     -13.316  15.525  73.069  1.00  0.00    -0.650 A  
HETATM   19  C   UNL     1     -12.011  15.932  72.794  1.00  0.00    -0.616 A  
HETATM   20  C   UNL     1     -11.551  15.966  71.474  1.00  0.00    -0.537 A  
ENDBRANCH  14  15
ENDBRANCH  11  14
ENDBRANCH   9  10
ENDBRANCH   8   9
TORSDOF 4
ENDMDL
MODEL        2
REMARK 921   NORMALIZED FREE ENERGY PREDICTED BY IDOCK:   -6.62 KCAL/MOL
REMARK 922        TOTAL FREE ENERGY PREDICTED BY IDOCK:   -8.79 KCAL/MOL
REMARK 923 INTER-LIGAND FREE ENERGY PREDICTED BY IDOCK:   -8.44 KCAL/MOL
REMARK 924 INTRA-LIGAND FREE ENERGY PREDICTED BY IDOCK:   -0.35 KCAL/MOL
REMARK 927      BINDING AFFINITY PREDICTED BY RF-SCORE:    0.00 PKD
ROOT
HETATM    1  O   UNL     1     -12.634  13.737  63.324  1.00  0.00    -0.830 OA 
HETATM    2  N   UNL     1     -12.520  12.520  63.544  1.00  0.00    -0.492 N  
HETATM    3  C   UNL     1     -11.656  12.143  64.622  1.00  0.00    -0.328 A  
HETATM    4  O   UNL     1     -13.127  11.619  62.958  1.00  0.00    -0.436 OA 
HETATM    5  N   UNL     1     -10.823  11.124  64.566  1.00  0.00    -0.298 NA 
HETATM    6  C   UNL     1     -10.235  11.089  65.804  1.00  0.00    -0.260 A  
HETATM    7  C   UNL     1     -10.733  12.085  66.613  1.00  0.00    -0.245 A  
HETATM    8  N   UNL     1     -11.633  12.775  65.835  1.00  0.00    -0.360 NA 
ENDROOT
BRANCH   8   9
HETATM    9  C   UNL     1     -12.466  13.870  66.299  1.00  0.00    -0.409 C  
BRANCH   9  10
HETATM   10  C   UNL     1     -11.701  14.836  67.179  1.00  0.00    -0.334 C  
HETATM   11  N   UNL     1     -12.162  14.945  68.469  1.00  0.00    -0.597 N  
HETATM   12  O   UNL     1     -10.734  15.463  66.751  1.00  0.00    -0.304 OA 
HETATM   13  H   UNL     1     -12.969  14.389  68.752  1.00  0.00     0.000 HD 
BRANCH  11  14
HETATM   14  C   UNL     1     -11.542  15.821  69.443  1.00  0.00    -0.365 C  
BRANCH  14  15
HETATM   15  C   UNL     1     -12.225  15.712  70.780  1.00  0.00    -0.463 A  
HETATM   16  C   UNL     1     -11.541  16.064  71.955  1.00  0.00    -0.512 A  
HETATM   17  C   UNL     1     -12.171  15.971  73.199  1.00  0.00    -0.636 A  
HETATM   18  C   UNL     1     -13.485  15.517  73.283  1.00  0.00    -0.512 A  
HETATM   19  C   UNL     1     -14.172  15.154  72.125  1.00  0.00    -0.656 A  
HETATM   20  C   UNL     1     -13.543  15.247  70.879  1.00  0.00    -0.402 A  
ENDBRANCH  14  15
ENDBRANCH  11  14
ENDBRANCH   9  10
ENDBRANCH   8   9
TORSDOF 4
ENDMDL
MODEL        3
REMARK 921   NORMALIZED FREE ENERGY PREDICTED BY IDOCK:   -6.52 KCAL/MOL
REMARK 922        TOTAL FREE ENERGY PREDICTED BY IDOCK:   -8.66 KCAL/MOL
REMARK 923 INTER-LIGAND FREE ENERGY PREDICTED BY IDOCK:   -8.20 KCAL/MOL
REMARK 924 INTRA-LIGAND FREE ENERGY PREDICTED BY IDOCK:   -0.46 KCAL/MOL
REMARK 927      BINDING AFFINITY PREDICTED BY RF-SCORE:    0.00 PKD
ROOT
HETATM    1  O   UNL     1     -11.553  16.546  64.048  1.00  0.00    -1.154 OA 
HETATM    2  N   UNL     1     -11.723  15.330  64.236  1.00  0.00    -0.302 N  
HETATM    3  C   UNL     1     -10.828  14.693  65.155  1.00  0.00    -0.401 A  
HETATM    4  O   UNL     1     -12.625  14.642  63.749  1.00  0.00    -0.820 OA 
HETATM    5  N   UNL     1     -10.304  13.501  64.954  1.00  0.00    -0.381 NA 
HETATM    6  C   UNL     1      -9.560  13.256  66.079  1.00  0.00    -0.160 A  
HETATM    7  C   UNL     1      -9.653  14.303  66.968  1.00  0.00    -0.257 A  
HETATM    8  N   UNL     1     -10.455  15.236  66.354  1.00  0.00    -0.294 NA 
ENDROOT
BRANCH   8   9
HETATM    9  C   UNL     1     -10.896  16.481  66.958  1.00  0.00    -0.113 C  
BRANCH   9  10
HETATM   10  C   UNL     1     -11.052  16.363  68.459  1.00  0.00    -0.357 C  
HETATM   11  N   UNL     1     -12.149  15.651  68.881  1.00  0.00    -0.584 N  
HETATM   12  O   UNL     1     -10.238  16.869  69.229  1.00  0.00    -0.290 OA 
HETATM   13  H   UNL     1     -12.778  15.257  68.181  1.00  0.00     0.000 HD 
BRANCH  11  14
HETATM   14  C   UNL     1     -12.445  15.440  70.283  1.00  0.00    -0.374 C  
BRANCH  14  15
HETATM   15  C   UNL     1     -12.503  13.971  70.608  1.00  0.00    -0.435 A  
HETATM   16  C   UNL     1     -11.922  13.031  69.743  1.00  0.00    -0.377 A  
HETATM   17  C   UNL     1     -11.967  11.667  70.042  1.00  0.00    -0.429 A  
HETATM   18  C   UNL     1     -12.600  11.228  71.201  1.00  0.00    -0.501 A  
HETATM   19  C   UNL     1     -13.191  12.150  72.064  1.00  0.00    -0.496 A  
HETATM   20  C   UNL     1     -13.147  13.516  71.767  1.00  0.00    -0.475 A  
ENDBRANCH  14  15
ENDBRANCH  11  14
ENDBRANCH   9  10
ENDBRANCH   8   9
TORSDOF 4
ENDMDL
MODEL        4
REMARK 921   NORMALIZED FREE ENERGY PREDICTED BY IDOCK:   -6.50 KCAL/MOL
REMARK 922        TOTAL FREE ENERGY PREDICTED BY IDOCK:   -8.63 KCAL/MOL
REMARK 923 INTER-LIGAND FREE ENERGY PREDICTED BY IDOCK:   -8.05 KCAL/MOL
REMARK 924 INTRA-LIGAND FREE ENERGY PREDICTED BY IDOCK:   -0.58 KCAL/MOL
REMARK 927      BINDING AFFINITY PREDICTED BY RF-SCORE:    0.00 PKD
ROOT
HETATM    1  O   UNL     1     -12.156  11.343  67.758  1.00  0.00    -0.637 OA 
HETATM    2  N   UNL     1     -11.111  11.341  67.086  1.00  0.00    -0.294 N  
HETATM    3  C   UNL     1     -11.234  11.720  65.711  1.00  0.00    -0.281 A  
HETATM    4  O   UNL     1      -9.978  11.101  67.512  1.00  0.00    -0.178 OA 
HETATM    5  N   UNL     1     -10.602  11.113  64.728  1.00  0.00    -0.319 NA 
HETATM    6  C   UNL     1     -10.958  11.811  63.603  1.00  0.00    -0.439 A  
HETATM    7  C   UNL     1     -11.798  12.854  63.918  1.00  0.00    -0.473 A  
HETATM    8  N   UNL     1     -11.990  12.775  65.277  1.00  0.00    -0.403 NA 
ENDROOT
BRANCH   8   9
HETATM    9  C   UNL     1     -12.749  13.728  66.067  1.00  0.00    -0.354 C  
BRANCH   9  10
HETATM   10  C   UNL     1     -11.856  14.588  66.936  1.00  0.00    -0.377 C  
HETATM   11  N   UNL     1     -12.131  14.546  68.282  1.00  0.00    -0.571 N  
HETATM   12  O   UNL     1     -10.949  15.263  66.452  1.00  0.00    -0.320 OA 
HETATM   13  H   UNL     1     -12.898  13.959  68.609  1.00  0.00     0.000 HD 
BRANCH  11  14
HETATM   14  C   UNL     1     -11.370  15.306  69.253  1.00  0.00    -0.298 C  
BRANCH  14  15
HETATM   15  C   UNL     1     -12.014  15.243  70.613  1.00  0.00    -0.386 A  
HETATM   16  C   UNL     1     -13.081  14.363  70.851  1.00  0.00    -0.390 A  
HETATM   17  C   UNL     1     -13.678  14.295  72.113  1.00  0.00    -0.569 A  
HETATM   18  C   UNL     1     -13.222  15.111  73.144  1.00  0.00    -0.603 A  
HETATM   19  C   UNL     1     -12.169  15.997  72.919  1.00  0.00    -0.621 A  
HETATM   20  C   UNL     1     -11.570  16.066  71.657  1.00  0.00    -0.538 A  
ENDBRANCH  14  15
ENDBRANCH  11  14
ENDBRANCH   9  10
ENDBRANCH   8   9
TORSDOF 4
ENDMDL
MODEL        5
REMARK 921   NORMALIZED FREE ENERGY PREDICTED BY IDOCK:   -6.36 KCAL/MOL
REMARK 922        TOTAL FREE ENERGY PREDICTED BY IDOCK:   -8.46 KCAL/MOL
REMARK 923 INTER-LIGAND FREE ENERGY PREDICTED BY IDOCK:   -7.96 KCAL/MOL
REMARK 924 INTRA-LIGAND FREE ENERGY PREDICTED BY IDOCK:   -0.50 KCAL/MOL
REMARK 927      BINDING AFFINITY PREDICTED BY RF-SCORE:    0.00 PKD
ROOT
HETATM    1  O   UNL     1     -13.260  12.665  64.896  1.00  0.00    -0.819 OA 
HETATM    2  N   UNL     1     -12.450  13.401  64.307  1.00  0.00    -0.302 N  
HETATM    3  C   UNL     1     -11.431  14.003  65.112  1.00  0.00    -0.328 A  
HETATM    4  O   UNL     1     -12.414  13.607  63.090  1.00  0.00    -0.786 OA 
HETATM    5  N   UNL     1     -11.034  15.251  64.970  1.00  0.00    -0.416 NA 
HETATM    6  C   UNL     1     -10.028  15.401  65.890  1.00  0.00    -0.346 A  
HETATM    7  C   UNL     1      -9.811  14.228  66.576  1.00  0.00    -0.288 A  
HETATM    8  N   UNL     1     -10.736  13.337  66.084  1.00  0.00    -0.277 NA 
ENDROOT
BRANCH   8   9
HETATM    9  C   UNL     1     -10.827  11.938  66.462  1.00  0.00    -0.278 C  
BRANCH   9  10
HETATM   10  C   UNL     1     -10.709  11.743  67.959  1.00  0.00    -0.208 C  
HETATM   11  N   UNL     1     -11.862  11.966  68.673  1.00  0.00    -0.320 N  
HETATM   12  O   UNL     1      -9.648  11.400  68.478  1.00  0.00    -0.185 OA 
HETATM   13  H   UNL     1     -12.705  12.245  68.171  1.00  0.00     0.000 HD 
BRANCH  11  14
HETATM   14  C   UNL     1     -11.923  11.820  70.113  1.00  0.00    -0.339 C  
BRANCH  14  15
HETATM   15  C   UNL     1     -12.493  13.056  70.758  1.00  0.00    -0.384 A  
HETATM   16  C   UNL     1     -12.147  14.329  70.278  1.00  0.00    -0.403 A  
HETATM   17  C   UNL     1     -12.678  15.479  70.867  1.00  0.00    -0.525 A  
HETATM   18  C   UNL     1     -13.550  15.370  71.946  1.00  0.00    -0.590 A  
HETATM   19  C   UNL     1     -13.894  14.112  72.440  1.00  0.00    -0.638 A  
HETATM   20  C   UNL     1     -13.364  12.960  71.851  1.00  0.00    -0.530 A  
ENDBRANCH  14  15
ENDBRANCH  11  14
ENDBRANCH   9  10
ENDBRANCH   8   9
TORSDOF 4
ENDMDL
MODEL        6
REMARK 921   NORMALIZED FREE ENERGY PREDICTED BY IDOCK:   -6.30 KCAL/MOL
REMARK 922        TOTAL FREE ENERGY PREDICTED BY IDOCK:   -8.39 KCAL/MOL
REMARK 923 INTER-LIGAND FREE ENERGY PREDICTED BY IDOCK:   -8.02 KCAL/MOL
REMARK 924 INTRA-LIGAND FREE ENERGY PREDICTED BY IDOCK:   -0.37 KCAL/MOL
REMARK 927      BINDING AFFINITY PREDICTED BY RF-SCORE:    0.00 PKD
ROOT
HETATM    1  O   UNL     1     -10.645  15.162  65.068  1.00  0.00    -0.393 OA 
HETATM    2  N   UNL     1     -11.300  14.324  64.426  1.00  0.00    -0.317 N  
HETATM    3  C   UNL     1     -10.734  13.013  64.321  1.00  0.00    -0.407 A  
HETATM    4  O   UNL     1     -12.414  14.506  63.927  1.00  0.00    -0.814 OA 
HETATM    5  N   UNL     1     -10.754  12.297  63.215  1.00  0.00    -0.378 NA 
HETATM    6  C   UNL     1     -10.160  11.111  63.560  1.00  0.00    -0.385 A  
HETATM    7  C   UNL     1      -9.795  11.111  64.887  1.00  0.00    -0.266 A  
HETATM    8  N   UNL     1     -10.149  12.351  65.366  1.00  0.00    -0.274 NA 
ENDROOT
BRANCH   8   9
HETATM    9  C   UNL     1     -10.024  12.776  66.749  1.00  0.00    -0.237 C  
BRANCH   9  10
HETATM   10  C   UNL     1     -11.130  12.217  67.619  1.00  0.00    -0.268 C  
HETATM   11  N   UNL     1     -10.919  12.320  68.973  1.00  0.00    -0.334 N  
HETATM   12  O   UNL     1     -12.141  11.718  67.128  1.00  0.00    -0.592 OA 
HETATM   13  H   UNL     1     -10.055  12.751  69.305  1.00  0.00     0.000 HD 
BRANCH  11  14
HETATM   14  C   UNL     1     -11.878  11.839  69.947  1.00  0.00    -0.348 C  
BRANCH  14  15
HETATM   15  C   UNL     1     -12.507  12.983  70.696  1.00  0.00    -0.347 A  
HETATM   16  C   UNL     1     -12.304  14.306  70.271  1.00  0.00    -0.418 A  
HETATM   17  C   UNL     1     -12.891  15.371  70.958  1.00  0.00    -0.525 A  
HETATM   18  C   UNL     1     -13.678  15.128  72.080  1.00  0.00    -0.583 A  
HETATM   19  C   UNL     1     -13.880  13.820  72.520  1.00  0.00    -0.626 A  
HETATM   20  C   UNL     1     -13.294  12.752  71.833  1.00  0.00    -0.510 A  
ENDBRANCH  14  15
ENDBRANCH  11  14
ENDBRANCH   9  10
ENDBRANCH   8   9
TORSDOF 4
ENDMDL
MODEL        7
REMARK 921   NORMALIZED FREE ENERGY PREDICTED BY IDOCK:   -6.20 KCAL/MOL
REMARK 922        TOTAL FREE ENERGY PREDICTED BY IDOCK:   -8.27 KCAL/MOL
REMARK 923 INTER-LIGAND FREE ENERGY PREDICTED BY IDOCK:   -7.81 KCAL/MOL
REMARK 924 INTRA-LIGAND FREE ENERGY PREDICTED BY IDOCK:   -0.46 KCAL/MOL
REMARK 927      BINDING AFFINITY PREDICTED BY RF-SCORE:    0.00 PKD
ROOT
HETATM    1  O   UNL     1     -13.629  14.301  65.554  1.00  0.00    -0.497 OA 
HETATM    2  N   UNL     1     -12.531  14.161  64.989  1.00  0.00    -0.436 N  
HETATM    3  C   UNL     1     -11.398  14.745  65.639  1.00  0.00    -0.343 A  
HETATM    4  O   UNL     1     -12.327  13.518  63.955  1.00  0.00    -0.634 OA 
HETATM    5  N   UNL     1     -10.440  15.385  65.000  1.00  0.00    -0.408 NA 
HETATM    6  C   UNL     1      -9.543  15.733  65.977  1.00  0.00    -0.353 A  
HETATM    7  C   UNL     1      -9.960  15.283  67.210  1.00  0.00    -0.226 A  
HETATM    8  N   UNL     1     -11.169  14.666  66.986  1.00  0.00    -0.334 NA 
ENDROOT
BRANCH   8   9
HETATM    9  C   UNL     1     -11.946  13.968  67.995  1.00  0.00    -0.350 C  
BRANCH   9  10
HETATM   10  C   UNL     1     -11.595  12.497  68.069  1.00  0.00    -0.342 C  
HETATM   11  N   UNL     1     -10.899  12.116  69.191  1.00  0.00    -0.400 N  
HETATM   12  O   UNL     1     -11.925  11.714  67.180  1.00  0.00    -0.614 OA 
HETATM   13  H   UNL     1     -10.663  12.824  69.888  1.00  0.00     0.000 HD 
BRANCH  11  14
HETATM   14  C   UNL     1     -10.488  10.746  69.421  1.00  0.00    -0.200 C  
BRANCH  14  15
HETATM   15  C   UNL     1     -11.308  10.112  70.513  1.00  0.00    -0.416 A  
HETATM   16  C   UNL     1     -10.818   8.995  71.209  1.00  0.00    -0.385 A  
HETATM   17  C   UNL     1     -11.571   8.406  72.227  1.00  0.00    -0.453 A  
HETATM   18  C   UNL     1     -12.823   8.919  72.555  1.00  0.00    -0.401 A  
HETATM   19  C   UNL     1     -13.326  10.021  71.865  1.00  0.00    -0.516 A  
HETATM   20  C   UNL     1     -12.573  10.613  70.846  1.00  0.00    -0.503 A  
ENDBRANCH  14  15
ENDBRANCH  11  14
ENDBRANCH   9  10
ENDBRANCH   8   9
TORSDOF 4
ENDMDL
MODEL        8
REMARK 921   NORMALIZED FREE ENERGY PREDICTED BY IDOCK:   -6.19 KCAL/MOL
REMARK 922        TOTAL FREE ENERGY PREDICTED BY IDOCK:   -8.26 KCAL/MOL
REMARK 923 INTER-LIGAND FREE ENERGY PREDICTED BY IDOCK:   -7.75 KCAL/MOL
REMARK 924 INTRA-LIGAND FREE ENERGY PREDICTED BY IDOCK:   -0.51 KCAL/MOL
REMARK 927      BINDING AFFINITY PREDICTED BY RF-SCORE:    0.00 PKD
ROOT
HETATM    1  O   UNL     1     -11.862  14.205  67.521  1.00  0.00    -0.366 OA 
HETATM    2  N   UNL     1     -12.034  13.087  67.008  1.00  0.00    -0.375 N  
HETATM    3  C   UNL     1     -12.160  13.051  65.582  1.00  0.00    -0.454 A  
HETATM    4  O   UNL     1     -12.046  12.009  67.609  1.00  0.00    -0.547 OA 
HETATM    5  N   UNL     1     -13.031  12.293  64.947  1.00  0.00    -0.589 NA 
HETATM    6  C   UNL     1     -12.786  12.523  63.617  1.00  0.00    -0.289 A  
HETATM    7  C   UNL     1     -11.749  13.414  63.456  1.00  0.00    -0.251 A  
HETATM    8  N   UNL     1     -11.366  13.767  64.729  1.00  0.00    -0.346 NA 
ENDROOT
BRANCH   8   9
HETATM    9  C   UNL     1     -10.245  14.632  65.051  1.00  0.00    -0.361 C  
BRANCH   9  10
HETATM   10  C   UNL     1     -10.666  16.079  65.204  1.00  0.00    -0.409 C  
HETATM   11  N   UNL     1     -10.296  16.676  66.385  1.00  0.00    -0.311 N  
HETATM   12  O   UNL     1     -11.289  16.661  64.317  1.00  0.00    -1.116 OA 
HETATM   13  H   UNL     1      -9.777  16.128  67.071  1.00  0.00     0.000 HD 
BRANCH  11  14
HETATM   14  C   UNL     1     -10.616  18.055  66.690  1.00  0.00    -0.258 C  
BRANCH  14  15
HETATM   15  C   UNL     1      -9.389  18.811  67.127  1.00  0.00    -0.315 A  
HETATM   16  C   UNL     1      -8.893  18.661  68.432  1.00  0.00    -0.367 A  
HETATM   17  C   UNL     1      -7.751  19.354  68.841  1.00  0.00    -0.382 A  
HETATM   18  C   UNL     1      -7.100  20.209  67.957  1.00  0.00    -0.319 A  
HETATM   19  C   UNL     1      -7.588  20.375  66.661  1.00  0.00    -0.291 A  
HETATM   20  C   UNL     1      -8.730  19.682  66.249  1.00  0.00    -0.401 A  
ENDBRANCH  14  15
ENDBRANCH  11  14
ENDBRANCH   9  10
ENDBRANCH   8   9
TORSDOF 4
ENDMDL
MODEL        9
REMARK 921   NORMALIZED FREE ENERGY PREDICTED BY IDOCK:   -6.16 KCAL/MOL
REMARK 922        TOTAL FREE ENERGY PREDICTED BY IDOCK:   -8.22 KCAL/MOL
REMARK 923 INTER-LIGAND FREE ENERGY PREDICTED BY IDOCK:   -7.81 KCAL/MOL
REMARK 924 INTRA-LIGAND FREE ENERGY PREDICTED BY IDOCK:   -0.41 KCAL/MOL
REMARK 927      BINDING AFFINITY PREDICTED BY RF-SCORE:    0.00 PKD
ROOT
HETATM    1  O   UNL     1     -12.578  13.848  63.115  1.00  0.00    -0.775 OA 
HETATM    2  N   UNL     1     -12.518  12.755  63.702  1.00  0.00    -0.420 N  
HETATM    3  C   UNL     1     -11.371  12.535  64.530  1.00  0.00    -0.330 A  
HETATM    4  O   UNL     1     -13.383  11.874  63.681  1.00  0.00    -0.620 OA 
HETATM    5  N   UNL     1     -10.721  11.391  64.587  1.00  0.00    -0.318 NA 
HETATM    6  C   UNL     1      -9.738  11.596  65.521  1.00  0.00    -0.232 A  
HETATM    7  C   UNL     1      -9.810  12.870  66.038  1.00  0.00    -0.255 A  
HETATM    8  N   UNL     1     -10.852  13.477  65.378  1.00  0.00    -0.287 NA 
ENDROOT
BRANCH   8   9
HETATM    9  C   UNL     1     -11.349  14.812  65.656  1.00  0.00    -0.343 C  
BRANCH   9  10
HETATM   10  C   UNL     1     -11.128  15.214  67.099  1.00  0.00    -0.335 C  
HETATM   11  N   UNL     1     -12.039  14.707  67.995  1.00  0.00    -0.582 N  
HETATM   12  O   UNL     1     -10.189  15.937  67.426  1.00  0.00    -0.259 OA 
HETATM   13  H   UNL     1     -12.790  14.111  67.648  1.00  0.00     0.000 HD 
BRANCH  11  14
HETATM   14  C   UNL     1     -11.970  14.990  69.414  1.00  0.00    -0.303 C  
BRANCH  14  15
HETATM   15  C   UNL     1     -12.330  13.774  70.226  1.00  0.00    -0.407 A  
HETATM   16  C   UNL     1     -11.954  12.494  69.789  1.00  0.00    -0.359 A  
HETATM   17  C   UNL     1     -12.279  11.363  70.541  1.00  0.00    -0.478 A  
HETATM   18  C   UNL     1     -12.990  11.496  71.730  1.00  0.00    -0.500 A  
HETATM   19  C   UNL     1     -13.379  12.760  72.170  1.00  0.00    -0.593 A  
HETATM   20  C   UNL     1     -13.055  13.895  71.420  1.00  0.00    -0.413 A  
ENDBRANCH  14  15
ENDBRANCH  11  14
ENDBRANCH   9  10
ENDBRANCH   8   9
TORSDOF 4
ENDMDL
MODEL       10
REMARK 921   NORMALIZED FREE ENERGY PREDICTED BY IDOCK:   -6.14 KCAL/MOL
REMARK 922        TOTAL FREE ENERGY PREDICTED BY IDOCK:   -8.19 KCAL/MOL
REMARK 923 INTER-LIGAND FREE ENERGY PREDICTED BY IDOCK:   -7.44 KCAL/MOL
REMARK 924 INTRA-LIGAND FREE ENERGY PREDICTED BY IDOCK:   -0.75 KCAL/MOL
REMARK 927      BINDING AFFINITY PREDICTED BY RF-SCORE:    0.00 PKD
ROOT
HETATM    1  O   UNL     1     -12.645  12.027  65.517  1.00  0.00    -0.300 OA 
HETATM    2  N   UNL     1     -12.487  12.686  64.475  1.00  0.00    -0.456 N  
HETATM    3  C   UNL     1     -11.981  14.016  64.630  1.00  0.00    -0.430 A  
HETATM    4  O   UNL     1     -12.670  12.276  63.326  1.00  0.00    -0.699 OA 
HETATM    5  N   UNL     1     -12.427  15.050  63.946  1.00  0.00    -0.744 NA 
HETATM    6  C   UNL     1     -11.650  16.101  64.361  1.00  0.00    -0.146 A  
HETATM    7  C   UNL     1     -10.721  15.690  65.289  1.00  0.00    -0.425 A  
HETATM    8  N   UNL     1     -10.956  14.348  65.475  1.00  0.00    -0.314 NA 
ENDROOT
BRANCH   8   9
HETATM    9  C   UNL     1     -10.159  13.471  66.314  1.00  0.00    -0.298 C  
BRANCH   9  10
HETATM   10  C   UNL     1     -10.481  13.641  67.784  1.00  0.00    -0.240 C  
HETATM   11  N   UNL     1     -11.548  12.903  68.239  1.00  0.00    -0.313 N  
HETATM   12  O   UNL     1      -9.818  14.385  68.504  1.00  0.00    -0.223 OA 
HETATM   13  H   UNL     1     -12.048  12.304  67.581  1.00  0.00     0.000 HD 
BRANCH  11  14
HETATM   14  C   UNL     1     -11.988  12.945  69.619  1.00  0.00    -0.292 C  
BRANCH  14  15
HETATM   15  C   UNL     1     -11.937  11.577  70.244  1.00  0.00    -0.455 A  
HETATM   16  C   UNL     1     -12.871  11.212  71.227  1.00  0.00    -0.515 A  
HETATM   17  C   UNL     1     -12.833   9.941  71.806  1.00  0.00    -0.540 A  
HETATM   18  C   UNL     1     -11.858   9.027  71.418  1.00  0.00    -0.395 A  
HETATM   19  C   UNL     1     -10.918   9.379  70.451  1.00  0.00    -0.317 A  
HETATM   20  C   UNL     1     -10.954  10.651  69.869  1.00  0.00    -0.337 A  
ENDBRANCH  14  15
ENDBRANCH  11  14
ENDBRANCH   9  10
ENDBRANCH   8   9
TORSDOF 4
ENDMDL
MODEL       11
REMARK 921   NORMALIZED FREE ENERGY PREDICTED BY IDOCK:   -6.13 KCAL/MOL
REMARK 922        TOTAL FREE ENERGY PREDICTED BY IDOCK:   -8.18 KCAL/MOL
REMARK 923 INTER-LIGAND FREE ENERGY PREDICTED BY IDOCK:   -7.77 KCAL/MOL
REMARK 924 INTRA-LIGAND FREE ENERGY PREDICTED BY IDOCK:   -0.41 KCAL/MOL
REMARK 927      BINDING AFFINITY PREDICTED BY RF-SCORE:    0.00 PKD
ROOT
HETATM    1  O   UNL     1     -10.380   9.789  66.018  1.00  0.00    -0.221 OA 
HETATM    2  N   UNL     1     -10.067  10.584  65.116  1.00  0.00    -0.310 N  
HETATM    3  C   UNL     1     -11.028  11.593  64.791  1.00  0.00    -0.289 A  
HETATM    4  O   UNL     1      -8.984  10.616  64.524  1.00  0.00    -0.191 OA 
HETATM    5  N   UNL     1     -11.303  11.968  63.558  1.00  0.00    -0.438 NA 
HETATM    6  C   UNL     1     -12.226  12.972  63.698  1.00  0.00    -0.491 A  
HETATM    7  C   UNL     1     -12.494  13.211  65.027  1.00  0.00    -0.460 A  
HETATM    8  N   UNL     1     -11.734  12.302  65.724  1.00  0.00    -0.426 NA 
ENDROOT
BRANCH   8   9
HETATM    9  C   UNL     1     -11.636  12.237  67.172  1.00  0.00    -0.353 C  
BRANCH   9  10
HETATM   10  C   UNL     1     -11.232  13.565  67.777  1.00  0.00    -0.282 C  
HETATM   11  N   UNL     1     -12.117  14.085  68.691  1.00  0.00    -0.488 N  
HETATM   12  O   UNL     1     -10.180  14.117  67.464  1.00  0.00    -0.238 OA 
HETATM   13  H   UNL     1     -12.969  13.566  68.902  1.00  0.00     0.000 HD 
BRANCH  11  14
HETATM   14  C   UNL     1     -11.882  15.345  69.367  1.00  0.00    -0.351 C  
BRANCH  14  15
HETATM   15  C   UNL     1     -12.256  15.256  70.823  1.00  0.00    -0.411 A  
HETATM   16  C   UNL     1     -11.890  16.279  71.712  1.00  0.00    -0.510 A  
HETATM   17  C   UNL     1     -12.240  16.206  73.062  1.00  0.00    -0.641 A  
HETATM   18  C   UNL     1     -12.949  15.107  73.540  1.00  0.00    -0.601 A  
HETATM   19  C   UNL     1     -13.310  14.079  72.670  1.00  0.00    -0.643 A  
HETATM   20  C   UNL     1     -12.961  14.151  71.318  1.00  0.00    -0.426 A  
ENDBRANCH  14  15
ENDBRANCH  11  14
ENDBRANCH   9  10
ENDBRANCH   8   9
TORSDOF 4
ENDMDL
MODEL       12
REMARK 921   NORMALIZED FREE ENERGY PREDICTED BY IDOCK:   -6.10 KCAL/MOL
REMARK 922        TOTAL FREE ENERGY PREDICTED BY IDOCK:   -8.15 KCAL/MOL
REMARK 923 INTER-LIGAND FREE ENERGY PREDICTED BY IDOCK:   -7.45 KCAL/MOL
REMARK 924 INTRA-LIGAND FREE ENERGY PREDICTED BY IDOCK:   -0.70 KCAL/MOL
REMARK 927      BINDING AFFINITY PREDICTED BY RF-SCORE:    0.00 PKD
ROOT
HETATM    1  O   UNL     1     -11.495  12.588  68.338  1.00  0.00    -0.264 OA 
HETATM    2  N   UNL     1     -11.597  11.995  67.251  1.00  0.00    -0.329 N  
HETATM    3  C   UNL     1     -11.724  12.815  66.085  1.00  0.00    -0.403 A  
HETATM    4  O   UNL     1     -11.540  10.772  67.086  1.00  0.00    -0.385 OA 
HETATM    5  N   UNL     1     -12.546  12.547  65.091  1.00  0.00    -0.650 NA 
HETATM    6  C   UNL     1     -12.319  13.541  64.175  1.00  0.00    -0.328 A  
HETATM    7  C   UNL     1     -11.340  14.402  64.617  1.00  0.00    -0.371 A  
HETATM    8  N   UNL     1     -10.978  13.940  65.860  1.00  0.00    -0.283 NA 
ENDROOT
BRANCH   8   9
HETATM    9  C   UNL     1      -9.913  14.495  66.677  1.00  0.00    -0.270 C  
BRANCH   9  10
HETATM   10  C   UNL     1     -10.389  15.660  67.519  1.00  0.00    -0.277 C  
HETATM   11  N   UNL     1     -10.691  15.356  68.825  1.00  0.00    -0.232 N  
HETATM   12  O   UNL     1     -10.483  16.793  67.049  1.00  0.00    -0.313 OA 
HETATM   13  H   UNL     1     -10.584  14.392  69.142  1.00  0.00     0.000 HD 
BRANCH  11  14
HETATM   14  C   UNL     1     -11.156  16.354  69.766  1.00  0.00    -0.305 C  
BRANCH  14  15
HETATM   15  C   UNL     1     -11.851  15.711  70.937  1.00  0.00    -0.428 A  
HETATM   16  C   UNL     1     -12.697  14.608  70.739  1.00  0.00    -0.422 A  
HETATM   17  C   UNL     1     -13.339  14.002  71.822  1.00  0.00    -0.465 A  
HETATM   18  C   UNL     1     -13.151  14.497  73.110  1.00  0.00    -0.553 A  
HETATM   19  C   UNL     1     -12.321  15.597  73.319  1.00  0.00    -0.609 A  
HETATM   20  C   UNL     1     -11.677  16.205  72.237  1.00  0.00    -0.564 A  
ENDBRANCH  14  15
ENDBRANCH  11  14
ENDBRANCH   9  10
ENDBRANCH   8   9
TORSDOF 4
ENDMDL
MODEL       13
REMARK 921   NORMALIZED FREE ENERGY PREDICTED BY IDOCK:   -6.07 KCAL/MOL
REMARK 922        TOTAL FREE ENERGY PREDICTED BY IDOCK:   -8.10 KCAL/MOL
REMARK 923 INTER-LIGAND FREE ENERGY PREDICTED BY IDOCK:   -8.02 KCAL/MOL
REMARK 924 INTRA-LIGAND FREE ENERGY PREDICTED BY IDOCK:   -0.08 KCAL/MOL
REMARK 927      BINDING AFFINITY PREDICTED BY RF-SCORE:    0.00 PKD
ROOT
HETATM    1  O   UNL     1     -11.283  12.159  63.539  1.00  0.00    -0.423 OA 
HETATM    2  N   UNL     1     -12.191  12.283  64.378  1.00  0.00    -0.412 N  
HETATM    3  C   UNL     1     -11.809  12.776  65.666  1.00  0.00    -0.425 A  
HETATM    4  O   UNL     1     -13.392  12.076  64.179  1.00  0.00    -0.725 OA 
HETATM    5  N   UNL     1     -12.285  12.300  66.799  1.00  0.00    -0.470 NA 
HETATM    6  C   UNL     1     -11.704  13.073  67.771  1.00  0.00    -0.359 A  
HETATM    7  C   UNL     1     -10.886  14.030  67.214  1.00  0.00    -0.284 A  
HETATM    8  N   UNL     1     -10.942  13.817  65.857  1.00  0.00    -0.282 NA 
ENDROOT
BRANCH   8   9
HETATM    9  C   UNL     1     -10.293  14.646  64.856  1.00  0.00    -0.350 C  
BRANCH   9  10
HETATM   10  C   UNL     1     -10.697  16.101  64.972  1.00  0.00    -0.337 C  
HETATM   11  N   UNL     1     -10.110  16.792  66.004  1.00  0.00    -0.338 N  
HETATM   12  O   UNL     1     -11.489  16.609  64.181  1.00  0.00    -1.131 OA 
HETATM   13  H   UNL     1      -9.458  16.301  66.617  1.00  0.00     0.000 HD 
BRANCH  11  14
HETATM   14  C   UNL     1     -10.383  18.193  66.254  1.00  0.00    -0.397 C  
BRANCH  14  15
HETATM   15  C   UNL     1      -9.200  18.869  66.893  1.00  0.00    -0.322 A  
HETATM   16  C   UNL     1      -8.380  19.723  66.139  1.00  0.00    -0.368 A  
HETATM   17  C   UNL     1      -7.284  20.359  66.729  1.00  0.00    -0.329 A  
HETATM   18  C   UNL     1      -6.991  20.141  68.072  1.00  0.00    -0.325 A  
HETATM   19  C   UNL     1      -7.791  19.287  68.830  1.00  0.00    -0.388 A  
HETATM   20  C   UNL     1      -8.888  18.650  68.242  1.00  0.00    -0.353 A  
ENDBRANCH  14  15
ENDBRANCH  11  14
ENDBRANCH   9  10
ENDBRANCH   8   9
TORSDOF 4
ENDMDL
MODEL       14
REMARK 921   NORMALIZED FREE ENERGY PREDICTED BY IDOCK:   -6.04 KCAL/MOL
REMARK 922        TOTAL FREE ENERGY PREDICTED BY IDOCK:   -8.07 KCAL/MOL
REMARK 923 INTER-LIGAND FREE ENERGY PREDICTED BY IDOCK:   -7.63 KCAL/MOL
REMARK 924 INTRA-LIGAND FREE ENERGY PREDICTED BY IDOCK:   -0.44 KCAL/MOL
REMARK 927      BINDING AFFINITY PREDICTED BY RF-SCORE:    0.00 PKD
ROOT
HETATM    1  O   UNL     1     -11.143  17.161  64.653  1.00  0.00    -1.036 OA 
HETATM    2  N   UNL     1     -10.418  16.574  65.473  1.00  0.00    -0.346 N  
HETATM    3  C   UNL     1     -11.026  15.518  66.225  1.00  0.00    -0.242 A  
HETATM    4  O   UNL     1      -9.214  16.780  65.651  1.00  0.00    -0.503 OA 
HETATM    5  N   UNL     1     -10.814  15.322  67.510  1.00  0.00    -0.297 NA 
HETATM    6  C   UNL     1     -11.539  14.199  67.814  1.00  0.00    -0.347 A  
HETATM    7  C   UNL     1     -12.178  13.710  66.698  1.00  0.00    -0.389 A  
HETATM    8  N   UNL     1     -11.861  14.579  65.681  1.00  0.00    -0.349 NA 
ENDROOT
BRANCH   8   9
HETATM    9  C   UNL     1     -12.252  14.415  64.292  1.00  0.00    -0.423 C  
BRANCH   9  10
HETATM   10  C   UNL     1     -11.974  13.016  63.783  1.00  0.00    -0.518 C  
HETATM   11  N   UNL     1     -10.650  12.649  63.770  1.00  0.00    -0.423 N  
HETATM   12  O   UNL     1     -12.885  12.275  63.419  1.00  0.00    -0.754 OA 
HETATM   13  H   UNL     1      -9.951  13.319  64.091  1.00  0.00     0.000 HD 
BRANCH  11  14
HETATM   14  C   UNL     1     -10.211  11.345  63.316  1.00  0.00    -0.385 C  
BRANCH  14  15
HETATM   15  C   UNL     1      -9.852  10.461  64.481  1.00  0.00    -0.405 A  
HETATM   16  C   UNL     1     -10.498  10.620  65.717  1.00  0.00    -0.235 A  
HETATM   17  C   UNL     1     -10.174   9.798  66.799  1.00  0.00    -0.300 A  
HETATM   18  C   UNL     1      -9.197   8.817  66.661  1.00  0.00    -0.223 A  
HETATM   19  C   UNL     1      -8.540   8.654  65.442  1.00  0.00    -0.206 A  
HETATM   20  C   UNL     1      -8.863   9.475  64.357  1.00  0.00    -0.251 A  
ENDBRANCH  14  15
ENDBRANCH  11  14
ENDBRANCH   9  10
ENDBRANCH   8   9
TORSDOF 4
ENDMDL
MODEL       15
REMARK 921   NORMALIZED FREE ENERGY PREDICTED BY IDOCK:   -6.02 KCAL/MOL
REMARK 922        TOTAL FREE ENERGY PREDICTED BY IDOCK:   -8.04 KCAL/MOL
REMARK 923 INTER-LIGAND FREE ENERGY PREDICTED BY IDOCK:   -7.64 KCAL/MOL
REMARK 924 INTRA-LIGAND FREE ENERGY PREDICTED BY IDOCK:   -0.41 KCAL/MOL
REMARK 927      BINDING AFFINITY PREDICTED BY RF-SCORE:    0.00 PKD
ROOT
HETATM    1  O   UNL     1      -9.674  15.836  64.841  1.00  0.00    -0.170 OA 
HETATM    2  N   UNL     1     -10.890  15.744  64.605  1.00  0.00    -0.349 N  
HETATM    3  C   UNL     1     -11.485  14.458  64.809  1.00  0.00    -0.402 A  
HETATM    4  O   UNL     1     -11.635  16.670  64.270  1.00  0.00    -0.989 OA 
HETATM    5  N   UNL     1     -12.375  13.928  63.994  1.00  0.00    -0.683 NA 
HETATM    6  C   UNL     1     -12.712  12.734  64.577  1.00  0.00    -0.328 A  
HETATM    7  C   UNL     1     -12.030  12.554  65.759  1.00  0.00    -0.420 A  
HETATM    8  N   UNL     1     -11.224  13.661  65.890  1.00  0.00    -0.303 NA 
ENDROOT
BRANCH   8   9
HETATM    9  C   UNL     1     -10.377  13.942  67.036  1.00  0.00    -0.267 C  
BRANCH   9  10
HETATM   10  C   UNL     1     -10.915  15.081  67.877  1.00  0.00    -0.291 C  
HETATM   11  N   UNL     1     -12.120  14.838  68.493  1.00  0.00    -0.578 N  
HETATM   12  O   UNL     1     -10.298  16.138  67.993  1.00  0.00    -0.255 OA 
HETATM   13  H   UNL     1     -12.570  13.933  68.351  1.00  0.00     0.000 HD 
BRANCH  11  14
HETATM   14  C   UNL     1     -12.772  15.819  69.335  1.00  0.00     0.491 C  
BRANCH  14  15
HETATM   15  C   UNL     1     -12.808  15.362  70.769  1.00  0.00    -0.524 A  
HETATM   16  C   UNL     1     -12.062  16.038  71.747  1.00  0.00    -0.570 A  
HETATM   17  C   UNL     1     -12.096  15.623  73.081  1.00  0.00    -0.598 A  
HETATM   18  C   UNL     1     -12.866  14.524  73.449  1.00  0.00    -0.423 A  
HETATM   19  C   UNL     1     -13.604  13.836  72.487  1.00  0.00    -0.680 A  
HETATM   20  C   UNL     1     -13.572  14.250  71.151  1.00  0.00    -0.300 A  
ENDBRANCH  14  15
ENDBRANCH  11  14
ENDBRANCH   9  10
ENDBRANCH   8   9
TORSDOF 4
ENDMDL
MODEL       16
REMARK 921   NORMALIZED FREE ENERGY PREDICTED BY IDOCK:   -5.99 KCAL/MOL
REMARK 922        TOTAL FREE ENERGY PREDICTED BY IDOCK:   -8.01 KCAL/MOL
REMARK 923 INTER-LIGAND FREE ENERGY PREDICTED BY IDOCK:   -7.60 KCAL/MOL
REMARK 924 INTRA-LIGAND FREE ENERGY PREDICTED BY IDOCK:   -0.41 KCAL/MOL
REMARK 927      BINDING AFFINITY PREDICTED BY RF-SCORE:    0.00 PKD
ROOT
HETATM    1  O   UNL     1     -10.201  15.755  64.997  1.00  0.00    -0.456 OA 
HETATM    2  N   UNL     1     -11.272  15.560  64.399  1.00  0.00    -0.291 N  
HETATM    3  C   UNL     1     -11.770  14.218  64.401  1.00  0.00    -0.389 A  
HETATM    4  O   UNL     1     -11.967  16.425  63.859  1.00  0.00    -1.023 OA 
HETATM    5  N   UNL     1     -12.312  13.639  63.349  1.00  0.00    -0.760 NA 
HETATM    6  C   UNL     1     -12.691  12.398  63.792  1.00  0.00    -0.364 A  
HETATM    7  C   UNL     1     -12.386  12.238  65.125  1.00  0.00    -0.205 A  
HETATM    8  N   UNL     1     -11.772  13.408  65.505  1.00  0.00    -0.327 NA 
ENDROOT
BRANCH   8   9
HETATM    9  C   UNL     1     -11.347  13.724  66.857  1.00  0.00    -0.328 C  
BRANCH   9  10
HETATM   10  C   UNL     1     -10.523  12.611  67.470  1.00  0.00    -0.221 C  
HETATM   11  N   UNL     1     -11.112  11.960  68.527  1.00  0.00    -0.224 N  
HETATM   12  O   UNL     1      -9.411  12.323  67.033  1.00  0.00    -0.192 OA 
HETATM   13  H   UNL     1     -12.041  12.254  68.831  1.00  0.00     0.000 HD 
BRANCH  11  14
HETATM   14  C   UNL     1     -10.463  10.869  69.225  1.00  0.00    -0.202 C  
BRANCH  14  15
HETATM   15  C   UNL     1     -11.346  10.324  70.316  1.00  0.00    -0.398 A  
HETATM   16  C   UNL     1     -12.411  11.090  70.815  1.00  0.00    -0.491 A  
HETATM   17  C   UNL     1     -13.239  10.586  71.822  1.00  0.00    -0.522 A  
HETATM   18  C   UNL     1     -13.005   9.319  72.347  1.00  0.00    -0.450 A  
HETATM   19  C   UNL     1     -11.944   8.551  71.869  1.00  0.00    -0.409 A  
HETATM   20  C   UNL     1     -11.115   9.053  70.860  1.00  0.00    -0.343 A  
ENDBRANCH  14  15
ENDBRANCH  11  14
ENDBRANCH   9  10
ENDBRANCH   8   9
TORSDOF 4
ENDMDL
MODEL       17
REMARK 921   NORMALIZED FREE ENERGY PREDICTED BY IDOCK:   -5.97 KCAL/MOL
REMARK 922        TOTAL FREE ENERGY PREDICTED BY IDOCK:   -7.98 KCAL/MOL
REMARK 923 INTER-LIGAND FREE ENERGY PREDICTED BY IDOCK:   -7.58 KCAL/MOL
REMARK 924 INTRA-LIGAND FREE ENERGY PREDICTED BY IDOCK:   -0.40 KCAL/MOL
REMARK 927      BINDING AFFINITY PREDICTED BY RF-SCORE:    0.00 PKD
ROOT
HETATM    1  O   UNL     1     -13.388  13.728  65.249  1.00  0.00    -0.710 OA 
HETATM    2  N   UNL     1     -12.513  14.233  64.526  1.00  0.00    -0.387 N  
HETATM    3  C   UNL     1     -11.381  14.800  65.194  1.00  0.00    -0.379 A  
HETATM    4  O   UNL     1     -12.507  14.234  63.292  1.00  0.00    -0.705 OA 
HETATM    5  N   UNL     1     -10.818  15.937  64.838  1.00  0.00    -0.563 NA 
HETATM    6  C   UNL     1      -9.758  16.083  65.695  1.00  0.00    -0.238 A  
HETATM    7  C   UNL     1      -9.675  15.015  66.560  1.00  0.00    -0.266 A  
HETATM    8  N   UNL     1     -10.739  14.203  66.246  1.00  0.00    -0.290 NA 
ENDROOT
BRANCH   8   9
HETATM    9  C   UNL     1     -11.008  12.912  66.852  1.00  0.00    -0.266 C  
BRANCH   9  10
HETATM   10  C   UNL     1     -11.615  13.046  68.234  1.00  0.00    -0.340 C  
HETATM   11  N   UNL     1     -11.414  11.972  69.069  1.00  0.00    -0.276 N  
HETATM   12  O   UNL     1     -12.232  14.055  68.567  1.00  0.00    -0.333 OA 
HETATM   13  H   UNL     1     -10.887  11.171  68.721  1.00  0.00     0.000 HD 
BRANCH  11  14
HETATM   14  C   UNL     1     -11.924  11.939  70.424  1.00  0.00    -0.311 C  
BRANCH  14  15
HETATM   15  C   UNL     1     -12.070  10.521  70.911  1.00  0.00    -0.487 A  
HETATM   16  C   UNL     1     -13.038  10.201  71.877  1.00  0.00    -0.571 A  
HETATM   17  C   UNL     1     -13.183   8.887  72.328  1.00  0.00    -0.498 A  
HETATM   18  C   UNL     1     -12.359   7.883  71.828  1.00  0.00    -0.352 A  
HETATM   19  C   UNL     1     -11.386   8.189  70.877  1.00  0.00    -0.286 A  
HETATM   20  C   UNL     1     -11.239   9.503  70.423  1.00  0.00    -0.323 A  
ENDBRANCH  14  15
ENDBRANCH  11  14
ENDBRANCH   9  10
ENDBRANCH   8   9
TORSDOF 4
ENDMDL
MODEL       18
REMARK 921   NORMALIZED FREE ENERGY PREDICTED BY IDOCK:   -5.96 KCAL/MOL
REMARK 922        TOTAL FREE ENERGY PREDICTED BY IDOCK:   -7.97 KCAL/MOL
REMARK 923 INTER-LIGAND FREE ENERGY PREDICTED BY IDOCK:   -7.56 KCAL/MOL
REMARK 924 INTRA-LIGAND FREE ENERGY PREDICTED BY IDOCK:   -0.41 KCAL/MOL
REMARK 927      BINDING AFFINITY PREDICTED BY RF-SCORE:    0.00 PKD
ROOT
HETATM    1  O   UNL     1     -12.520  13.822  63.155  1.00  0.00    -0.786 OA 
HETATM    2  N   UNL     1     -12.416  12.614  63.424  1.00  0.00    -0.449 N  
HETATM    3  C   UNL     1     -11.259  12.222  64.171  1.00  0.00    -0.369 A  
HETATM    4  O   UNL     1     -13.246  11.740  63.158  1.00  0.00    -0.538 OA 
HETATM    5  N   UNL     1     -10.565  11.130  63.920  1.00  0.00    -0.371 NA 
HETATM    6  C   UNL     1      -9.588  11.111  64.882  1.00  0.00    -0.239 A  
HETATM    7  C   UNL     1      -9.709  12.193  65.726  1.00  0.00    -0.229 A  
HETATM    8  N   UNL     1     -10.776  12.916  65.246  1.00  0.00    -0.289 NA 
ENDROOT
BRANCH   8   9
HETATM    9  C   UNL     1     -11.323  14.106  65.873  1.00  0.00    -0.323 C  
BRANCH   9  10
HETATM   10  C   UNL     1     -10.494  15.339  65.579  1.00  0.00    -0.374 C  
HETATM   11  N   UNL     1      -9.437  15.551  66.431  1.00  0.00    -0.266 N  
HETATM   12  O   UNL     1     -10.761  16.080  64.635  1.00  0.00    -0.601 OA 
HETATM   13  H   UNL     1      -9.277  14.889  67.191  1.00  0.00     0.000 HD 
BRANCH  11  14
HETATM   14  C   UNL     1      -8.541  16.681  66.290  1.00  0.00    -0.324 C  
BRANCH  14  15
HETATM   15  C   UNL     1      -9.114  17.910  66.945  1.00  0.00    -0.266 A  
HETATM   16  C   UNL     1      -9.485  19.019  66.168  1.00  0.00    -0.260 A  
HETATM   17  C   UNL     1     -10.024  20.159  66.769  1.00  0.00    -0.604 A  
HETATM   18  C   UNL     1     -10.187  20.207  68.151  1.00  0.00    -0.479 A  
HETATM   19  C   UNL     1      -9.812  19.118  68.935  1.00  0.00    -0.487 A  
HETATM   20  C   UNL     1      -9.274  17.975  68.336  1.00  0.00    -0.301 A  
ENDBRANCH  14  15
ENDBRANCH  11  14
ENDBRANCH   9  10
ENDBRANCH   8   9
TORSDOF 4
ENDMDL
MODEL       19
REMARK 921   NORMALIZED FREE ENERGY PREDICTED BY IDOCK:   -5.95 KCAL/MOL
REMARK 922        TOTAL FREE ENERGY PREDICTED BY IDOCK:   -7.96 KCAL/MOL
REMARK 923 INTER-LIGAND FREE ENERGY PREDICTED BY IDOCK:   -7.19 KCAL/MOL
REMARK 924 INTRA-LIGAND FREE ENERGY PREDICTED BY IDOCK:   -0.77 KCAL/MOL
REMARK 927      BINDING AFFINITY PREDICTED BY RF-SCORE:    0.00 PKD
ROOT
HETATM    1  O   UNL     1      -8.437  16.001  65.976  1.00  0.00    -0.302 OA 
HETATM    2  N   UNL     1      -8.176  17.216  65.975  1.00  0.00    -0.227 N  
HETATM    3  C   UNL     1      -9.213  18.092  66.430  1.00  0.00    -0.242 A  
HETATM    4  O   UNL     1      -7.091  17.722  65.675  1.00  0.00    -0.459 OA 
HETATM    5  N   UNL     1      -9.500  19.242  65.855  1.00  0.00    -0.414 NA 
HETATM    6  C   UNL     1     -10.504  19.773  66.623  1.00  0.00    -0.497 A  
HETATM    7  C   UNL     1     -10.809  18.941  67.676  1.00  0.00    -0.331 A  
HETATM    8  N   UNL     1      -9.988  17.848  67.531  1.00  0.00    -0.309 NA 
ENDROOT
BRANCH   8   9
HETATM    9  C   UNL     1      -9.905  16.739  68.466  1.00  0.00    -0.257 C  
BRANCH   9  10
HETATM   10  C   UNL     1     -11.086  15.800  68.344  1.00  0.00    -0.341 C  
HETATM   11  N   UNL     1     -11.025  14.916  67.293  1.00  0.00    -0.314 N  
HETATM   12  O   UNL     1     -12.019  15.838  69.143  1.00  0.00    -0.387 OA 
HETATM   13  H   UNL     1     -10.215  14.943  66.674  1.00  0.00     0.000 HD 
BRANCH  11  14
HETATM   14  C   UNL     1     -12.070  13.946  67.035  1.00  0.00    -0.415 C  
BRANCH  14  15
HETATM   15  C   UNL     1     -11.732  13.091  65.842  1.00  0.00    -0.442 A  
HETATM   16  C   UNL     1     -12.649  12.948  64.790  1.00  0.00    -0.493 A  
HETATM   17  C   UNL     1     -12.338  12.162  63.677  1.00  0.00    -0.673 A  
HETATM   18  C   UNL     1     -11.114  11.504  63.610  1.00  0.00    -0.469 A  
HETATM   19  C   UNL     1     -10.197  11.629  64.652  1.00  0.00    -0.327 A  
HETATM   20  C   UNL     1     -10.506  12.416  65.766  1.00  0.00    -0.288 A  
ENDBRANCH  14  15
ENDBRANCH  11  14
ENDBRANCH   9  10
ENDBRANCH   8   9
TORSDOF 4
ENDMDL
MODEL       20
REMARK 921   NORMALIZED FREE ENERGY PREDICTED BY IDOCK:   -5.95 KCAL/MOL
REMARK 922        TOTAL FREE ENERGY PREDICTED BY IDOCK:   -7.96 KCAL/MOL
REMARK 923 INTER-LIGAND FREE ENERGY PREDICTED BY IDOCK:   -7.59 KCAL/MOL
REMARK 924 INTRA-LIGAND FREE ENERGY PREDICTED BY IDOCK:   -0.37 KCAL/MOL
REMARK 927      BINDING AFFINITY PREDICTED BY RF-SCORE:    0.00 PKD
ROOT
HETATM    1  O   UNL     1      -9.644   7.333  69.779  1.00  0.00    -0.163 OA 
HETATM    2  N   UNL     1     -10.848   7.042  69.869  1.00  0.00    -0.243 N  
HETATM    3  C   UNL     1     -11.637   7.852  70.748  1.00  0.00    -0.247 A  
HETATM    4  O   UNL     1     -11.430   6.162  69.228  1.00  0.00    -0.404 OA 
HETATM    5  N   UNL     1     -12.558   7.367  71.556  1.00  0.00    -0.352 NA 
HETATM    6  C   UNL     1     -13.096   8.468  72.170  1.00  0.00    -0.358 A  
HETATM    7  C   UNL     1     -12.502   9.624  71.713  1.00  0.00    -0.402 A  
HETATM    8  N   UNL     1     -11.547   9.216  70.813  1.00  0.00    -0.281 NA 
ENDROOT
BRANCH   8   9
HETATM    9  C   UNL     1     -10.720  10.105  70.016  1.00  0.00    -0.305 C  
BRANCH   9  10
HETATM   10  C   UNL     1     -11.517  11.252  69.430  1.00  0.00    -0.301 C  
HETATM   11  N   UNL     1     -11.362  12.459  70.068  1.00  0.00    -0.507 N  
HETATM   12  O   UNL     1     -12.239  11.093  68.448  1.00  0.00    -0.610 OA 
HETATM   13  H   UNL     1     -10.742  12.513  70.876  1.00  0.00     0.000 HD 
BRANCH  11  14
HETATM   14  C   UNL     1     -12.049  13.659  69.634  1.00  0.00    -0.321 C  
BRANCH  14  15
HETATM   15  C   UNL     1     -12.540  14.457  70.813  1.00  0.00    -0.426 A  
HETATM   16  C   UNL     1     -11.626  15.115  71.652  1.00  0.00    -0.463 A  
HETATM   17  C   UNL     1     -12.075  15.863  72.743  1.00  0.00    -0.611 A  
HETATM   18  C   UNL     1     -13.438  15.953  73.013  1.00  0.00    -0.653 A  
HETATM   19  C   UNL     1     -14.355  15.297  72.194  1.00  0.00    -0.651 A  
HETATM   20  C   UNL     1     -13.908  14.548  71.100  1.00  0.00    -0.292 A  
ENDBRANCH  14  15
ENDBRANCH  11  14
ENDBRANCH   9  10
ENDBRANCH   8   9
TORSDOF 4
ENDMDL
MODEL       21
REMARK 921   NORMALIZED FREE ENERGY PREDICTED BY IDOCK:   -5.94 KCAL/MOL
REMARK 922        TOTAL FREE ENERGY PREDICTED BY IDOCK:   -7.95 KCAL/MOL
REMARK 923 INTER-LIGAND FREE ENERGY PREDICTED BY IDOCK:   -7.60 KCAL/MOL
REMARK 924 INTRA-LIGAND FREE ENERGY PREDICTED BY IDOCK:   -0.35 KCAL/MOL
REMARK 927      BINDING AFFINITY PREDICTED BY RF-SCORE:    0.00 PKD
ROOT
HETATM    1  O   UNL     1     -12.724  12.762  65.342  1.00  0.00    -0.621 OA 
HETATM    2  N   UNL     1     -12.334  13.475  64.402  1.00  0.00    -0.365 N  
HETATM    3  C   UNL     1     -11.740  14.729  64.753  1.00  0.00    -0.422 A  
HETATM    4  O   UNL     1     -12.361  13.171  63.205  1.00  0.00    -0.712 OA 
HETATM    5  N   UNL     1     -11.968  15.851  64.101  1.00  0.00    -0.616 NA 
HETATM    6  C   UNL     1     -11.177  16.781  64.726  1.00  0.00     0.040 A  
HETATM    7  C   UNL     1     -10.458  16.207  65.750  1.00  0.00    -0.367 A  
HETATM    8  N   UNL     1     -10.844  14.887  65.775  1.00  0.00    -0.326 NA 
ENDROOT
BRANCH   8   9
HETATM    9  C   UNL     1     -10.282  13.872  66.649  1.00  0.00    -0.276 C  
BRANCH   9  10
HETATM   10  C   UNL     1      -9.817  14.450  67.969  1.00  0.00    -0.221 C  
HETATM   11  N   UNL     1     -10.819  14.868  68.812  1.00  0.00    -0.243 N  
HETATM   12  O   UNL     1      -8.622  14.525  68.249  1.00  0.00    -0.157 OA 
HETATM   13  H   UNL     1     -11.788  14.770  68.510  1.00  0.00     0.000 HD 
BRANCH  11  14
HETATM   14  C   UNL     1     -10.547  15.441  70.115  1.00  0.00    -0.295 C  
BRANCH  14  15
HETATM   15  C   UNL     1     -11.786  15.449  70.970  1.00  0.00    -0.406 A  
HETATM   16  C   UNL     1     -13.017  15.030  70.439  1.00  0.00    -0.283 A  
HETATM   17  C   UNL     1     -14.168  15.028  71.230  1.00  0.00    -0.508 A  
HETATM   18  C   UNL     1     -14.106  15.454  72.554  1.00  0.00    -0.593 A  
HETATM   19  C   UNL     1     -12.893  15.882  73.091  1.00  0.00    -0.643 A  
HETATM   20  C   UNL     1     -11.738  15.884  72.302  1.00  0.00    -0.586 A  
ENDBRANCH  14  15
ENDBRANCH  11  14
ENDBRANCH   9  10
ENDBRANCH   8   9
TORSDOF 4
ENDMDL
MODEL       22
REMARK 921   NORMALIZED FREE ENERGY PREDICTED BY IDOCK:   -5.93 KCAL/MOL
REMARK 922        TOTAL FREE ENERGY PREDICTED BY IDOCK:   -7.93 KCAL/MOL
REMARK 923 INTER-LIGAND FREE ENERGY PREDICTED BY IDOCK:   -7.40 KCAL/MOL
REMARK 924 INTRA-LIGAND FREE ENERGY PREDICTED BY IDOCK:   -0.53 KCAL/MOL
REMARK 927      BINDING AFFINITY PREDICTED BY RF-SCORE:    0.00 PKD
ROOT
HETATM    1  O   UNL     1      -9.900  10.007  64.933  1.00  0.00    -0.317 OA 
HETATM    2  N   UNL     1      -9.896  10.945  64.117  1.00  0.00    -0.285 N  
HETATM    3  C   UNL     1     -10.721  12.071  64.434  1.00  0.00    -0.323 A  
HETATM    4  O   UNL     1      -9.202  11.014  63.099  1.00  0.00    -0.255 OA 
HETATM    5  N   UNL     1     -11.451  12.712  63.544  1.00  0.00    -0.490 NA 
HETATM    6  C   UNL     1     -12.035  13.735  64.247  1.00  0.00    -0.443 A  
HETATM    7  C   UNL     1     -11.639  13.714  65.565  1.00  0.00    -0.324 A  
HETATM    8  N   UNL     1     -10.809  12.624  65.682  1.00  0.00    -0.269 NA 
ENDROOT
BRANCH   8   9
HETATM    9  C   UNL     1     -10.087  12.253  66.887  1.00  0.00    -0.211 C  
BRANCH   9  10
HETATM   10  C   UNL     1     -11.004  11.682  67.948  1.00  0.00    -0.225 C  
HETATM   11  N   UNL     1     -10.969  12.326  69.161  1.00  0.00    -0.394 N  
HETATM   12  O   UNL     1     -11.725  10.714  67.716  1.00  0.00    -0.503 OA 
HETATM   13  H   UNL     1     -10.347  13.126  69.276  1.00  0.00     0.000 HD 
BRANCH  11  14
HETATM   14  C   UNL     1     -11.786  11.910  70.283  1.00  0.00    -0.281 C  
BRANCH  14  15
HETATM   15  C   UNL     1     -12.467  13.091  70.923  1.00  0.00    -0.396 A  
HETATM   16  C   UNL     1     -13.376  12.900  71.976  1.00  0.00    -0.579 A  
HETATM   17  C   UNL     1     -14.005  13.992  72.579  1.00  0.00    -0.553 A  
HETATM   18  C   UNL     1     -13.742  15.283  72.130  1.00  0.00    -0.598 A  
HETATM   19  C   UNL     1     -12.849  15.487  71.079  1.00  0.00    -0.543 A  
HETATM   20  C   UNL     1     -12.217  14.395  70.475  1.00  0.00    -0.411 A  
ENDBRANCH  14  15
ENDBRANCH  11  14
ENDBRANCH   9  10
ENDBRANCH   8   9
TORSDOF 4
ENDMDL
MODEL       23
REMARK 921   NORMALIZED FREE ENERGY PREDICTED BY IDOCK:   -5.89 KCAL/MOL
REMARK 922        TOTAL FREE ENERGY PREDICTED BY IDOCK:   -7.88 KCAL/MOL
REMARK 923 INTER-LIGAND FREE ENERGY PREDICTED BY IDOCK:   -7.13 KCAL/MOL
REMARK 924 INTRA-LIGAND FREE ENERGY PREDICTED BY IDOCK:   -0.75 KCAL/MOL
REMARK 927      BINDING AFFINITY PREDICTED BY RF-SCORE:    0.00 PKD
ROOT
HETATM    1  O   UNL     1     -11.874  14.531  65.934  1.00  0.00    -0.369 OA 
HETATM    2  N   UNL     1     -12.212  13.336  65.886  1.00  0.00    -0.437 N  
HETATM    3  C   UNL     1     -11.753  12.499  66.953  1.00  0.00    -0.377 A  
HETATM    4  O   UNL     1     -12.950  12.827  65.038  1.00  0.00    -0.811 OA 
HETATM    5  N   UNL     1     -11.307  11.272  66.776  1.00  0.00    -0.379 NA 
HETATM    6  C   UNL     1     -11.024  10.820  68.039  1.00  0.00    -0.283 A  
HETATM    7  C   UNL     1     -11.319  11.780  68.981  1.00  0.00    -0.278 A  
HETATM    8  N   UNL     1     -11.768  12.868  68.270  1.00  0.00    -0.333 NA 
ENDROOT
BRANCH   8   9
HETATM    9  C   UNL     1     -12.271  14.096  68.858  1.00  0.00    -0.222 C  
BRANCH   9  10
HETATM   10  C   UNL     1     -11.161  14.946  69.443  1.00  0.00    -0.283 C  
HETATM   11  N   UNL     1     -10.408  15.638  68.525  1.00  0.00    -0.216 N  
HETATM   12  O   UNL     1     -10.971  15.003  70.656  1.00  0.00    -0.238 OA 
HETATM   13  H   UNL     1     -10.629  15.541  67.534  1.00  0.00     0.000 HD 
BRANCH  11  14
HETATM   14  C   UNL     1      -9.310  16.499  68.915  1.00  0.00    -0.256 C  
BRANCH  14  15
HETATM   15  C   UNL     1      -9.453  17.867  68.302  1.00  0.00    -0.300 A  
HETATM   16  C   UNL     1     -10.643  18.232  67.653  1.00  0.00    -0.427 A  
HETATM   17  C   UNL     1     -10.784  19.502  67.089  1.00  0.00    -0.599 A  
HETATM   18  C   UNL     1      -9.736  20.416  67.158  1.00  0.00    -0.601 A  
HETATM   19  C   UNL     1      -8.545  20.063  67.790  1.00  0.00    -0.347 A  
HETATM   20  C   UNL     1      -8.402  18.793  68.357  1.00  0.00    -0.373 A  
ENDBRANCH  14  15
ENDBRANCH  11  14
ENDBRANCH   9  10
ENDBRANCH   8   9
TORSDOF 4
ENDMDL
MODEL       24
REMARK 921   NORMALIZED FREE ENERGY PREDICTED BY IDOCK:   -5.88 KCAL/MOL
REMARK 922        TOTAL FREE ENERGY PREDICTED BY IDOCK:   -7.88 KCAL/MOL
REMARK 923 INTER-LIGAND FREE ENERGY PREDICTED BY IDOCK:   -7.13 KCAL/MOL
REMARK 924 INTRA-LIGAND FREE ENERGY PREDICTED BY IDOCK:   -0.74 KCAL/MOL
REMARK 927      BINDING AFFINITY PREDICTED BY RF-SCORE:    0.00 PKD
ROOT
HETATM    1  O   UNL     1     -10.975  10.385  67.888  1.00  0.00    -0.259 OA 
HETATM    2  N   UNL     1     -10.844  10.851  66.744  1.00  0.00    -0.251 N  
HETATM    3  C   UNL     1     -11.534  12.074  66.468  1.00  0.00    -0.349 A  
HETATM    4  O   UNL     1     -10.128  10.385  65.852  1.00  0.00    -0.247 OA 
HETATM    5  N   UNL     1     -12.166  12.316  65.338  1.00  0.00    -0.558 NA 
HETATM    6  C   UNL     1     -12.636  13.597  65.470  1.00  0.00    -0.496 A  
HETATM    7  C   UNL     1     -12.269  14.132  66.684  1.00  0.00    -0.418 A  
HETATM    8  N   UNL     1     -11.577  13.135  67.331  1.00  0.00    -0.334 NA 
ENDROOT
BRANCH   8   9
HETATM    9  C   UNL     1     -10.927  13.276  68.622  1.00  0.00    -0.264 C  
BRANCH   9  10
HETATM   10  C   UNL     1     -11.876  13.007  69.771  1.00  0.00    -0.311 C  
HETATM   11  N   UNL     1     -11.861  11.720  70.255  1.00  0.00    -0.455 N  
HETATM   12  O   UNL     1     -12.595  13.893  70.229  1.00  0.00    -0.328 OA 
HETATM   13  H   UNL     1     -11.233  11.041  69.825  1.00  0.00     0.000 HD 
BRANCH  11  14
HETATM   14  C   UNL     1     -12.703  11.295  71.354  1.00  0.00    -0.396 C  
BRANCH  14  15
HETATM   15  C   UNL     1     -12.810   9.794  71.404  1.00  0.00    -0.489 A  
HETATM   16  C   UNL     1     -11.689   8.995  71.126  1.00  0.00    -0.366 A  
HETATM   17  C   UNL     1     -11.779   7.602  71.178  1.00  0.00    -0.311 A  
HETATM   18  C   UNL     1     -12.989   6.993  71.497  1.00  0.00    -0.411 A  
HETATM   19  C   UNL     1     -14.113   7.774  71.765  1.00  0.00    -0.519 A  
HETATM   20  C   UNL     1     -14.025   9.169  71.715  1.00  0.00    -0.372 A  
ENDBRANCH  14  15
ENDBRANCH  11  14
ENDBRANCH   9  10
ENDBRANCH   8   9
TORSDOF 4
ENDMDL
MODEL       25
REMARK 921   NORMALIZED FREE ENERGY PREDICTED BY IDOCK:   -5.83 KCAL/MOL
REMARK 922        TOTAL FREE ENERGY PREDICTED BY IDOCK:   -7.81 KCAL/MOL
REMARK 923 INTER-LIGAND FREE ENERGY PREDICTED BY IDOCK:   -7.41 KCAL/MOL
REMARK 924 INTRA-LIGAND FREE ENERGY PREDICTED BY IDOCK:   -0.40 KCAL/MOL
REMARK 927      BINDING AFFINITY PREDICTED BY RF-SCORE:    0.00 PKD
ROOT
HETATM    1  O   UNL     1     -12.455  14.151  63.690  1.00  0.00    -0.819 OA 
HETATM    2  N   UNL     1     -12.395  12.913  63.777  1.00  0.00    -0.427 N  
HETATM    3  C   UNL     1     -11.559  12.384  64.812  1.00  0.00    -0.341 A  
HETATM    4  O   UNL     1     -13.035  12.108  63.094  1.00  0.00    -0.659 OA 
HETATM    5  N   UNL     1     -10.769  11.342  64.649  1.00  0.00    -0.321 NA 
HETATM    6  C   UNL     1     -10.196  11.146  65.879  1.00  0.00    -0.251 A  
HETATM    7  C   UNL     1     -10.658  12.070  66.789  1.00  0.00    -0.227 A  
HETATM    8  N   UNL     1     -11.520  12.879  66.087  1.00  0.00    -0.330 NA 
ENDROOT
BRANCH   8   9
HETATM    9  C   UNL     1     -12.310  13.952  66.663  1.00  0.00    -0.369 C  
BRANCH   9  10
HETATM   10  C   UNL     1     -11.570  14.675  67.769  1.00  0.00    -0.359 C  
HETATM   11  N   UNL     1     -10.540  15.485  67.353  1.00  0.00    -0.286 N  
HETATM   12  O   UNL     1     -11.889  14.538  68.949  1.00  0.00    -0.310 OA 
HETATM   13  H   UNL     1     -10.338  15.550  66.356  1.00  0.00     0.000 HD 
BRANCH  11  14
HETATM   14  C   UNL     1      -9.733  16.251  68.281  1.00  0.00    -0.222 C  
BRANCH  14  15
HETATM   15  C   UNL     1      -9.675  17.700  67.878  1.00  0.00    -0.295 A  
HETATM   16  C   UNL     1      -8.842  18.595  68.570  1.00  0.00    -0.361 A  
HETATM   17  C   UNL     1      -8.778  19.940  68.196  1.00  0.00    -0.292 A  
HETATM   18  C   UNL     1      -9.550  20.406  67.137  1.00  0.00    -0.587 A  
HETATM   19  C   UNL     1     -10.389  19.531  66.447  1.00  0.00    -0.594 A  
HETATM   20  C   UNL     1     -10.454  18.185  66.819  1.00  0.00    -0.363 A  
ENDBRANCH  14  15
ENDBRANCH  11  14
ENDBRANCH   9  10
ENDBRANCH   8   9
TORSDOF 4
ENDMDL
MODEL       26
REMARK 921   NORMALIZED FREE ENERGY PREDICTED BY IDOCK:   -5.81 KCAL/MOL
REMARK 922        TOTAL FREE ENERGY PREDICTED BY IDOCK:   -7.79 KCAL/MOL
REMARK 923 INTER-LIGAND FREE ENERGY PREDICTED BY IDOCK:   -7.27 KCAL/MOL
REMARK 924 INTRA-LIGAND FREE ENERGY PREDICTED BY IDOCK:   -0.52 KCAL/MOL
REMARK 927      BINDING AFFINITY PREDICTED BY RF-SCORE:    0.00 PKD
ROOT
HETATM    1  O   UNL     1     -11.966   9.677  71.909  1.00  0.00    -0.370 OA 
HETATM    2  N   UNL     1     -11.605   8.492  71.994  1.00  0.00    -0.336 N  
HETATM    3  C   UNL     1     -11.353   7.809  70.762  1.00  0.00    -0.279 A  
HETATM    4  O   UNL     1     -11.391   7.875  73.042  1.00  0.00    -0.408 OA 
HETATM    5  N   UNL     1     -11.719   6.565  70.529  1.00  0.00    -0.395 NA 
HETATM    6  C   UNL     1     -11.247   6.294  69.270  1.00  0.00    -0.389 A  
HETATM    7  C   UNL     1     -10.579   7.381  68.752  1.00  0.00    -0.168 A  
HETATM    8  N   UNL     1     -10.671   8.361  69.711  1.00  0.00    -0.228 NA 
ENDROOT
BRANCH   8   9
HETATM    9  C   UNL     1     -10.039   9.666  69.631  1.00  0.00    -0.224 C  
BRANCH   9  10
HETATM   10  C   UNL     1     -10.973  10.720  69.075  1.00  0.00    -0.240 C  
HETATM   11  N   UNL     1     -11.056  11.878  69.812  1.00  0.00    -0.475 N  
HETATM   12  O   UNL     1     -11.597  10.536  68.032  1.00  0.00    -0.442 OA 
HETATM   13  H   UNL     1     -10.504  11.958  70.665  1.00  0.00     0.000 HD 
BRANCH  11  14
HETATM   14  C   UNL     1     -11.900  12.988  69.419  1.00  0.00    -0.322 C  
BRANCH  14  15
HETATM   15  C   UNL     1     -12.247  13.849  70.604  1.00  0.00    -0.443 A  
HETATM   16  C   UNL     1     -11.771  15.167  70.686  1.00  0.00    -0.356 A  
HETATM   17  C   UNL     1     -12.095  15.973  71.780  1.00  0.00    -0.570 A  
HETATM   18  C   UNL     1     -12.889  15.469  72.806  1.00  0.00    -0.539 A  
HETATM   19  C   UNL     1     -13.361  14.159  72.743  1.00  0.00    -0.618 A  
HETATM   20  C   UNL     1     -13.038  13.350  71.648  1.00  0.00    -0.463 A  
ENDBRANCH  14  15
ENDBRANCH  11  14
ENDBRANCH   9  10
ENDBRANCH   8   9
TORSDOF 4
ENDMDL
MODEL       27
REMARK 921   NORMALIZED FREE ENERGY PREDICTED BY IDOCK:   -5.80 KCAL/MOL
REMARK 922        TOTAL FREE ENERGY PREDICTED BY IDOCK:   -7.78 KCAL/MOL
REMARK 923 INTER-LIGAND FREE ENERGY PREDICTED BY IDOCK:   -7.41 KCAL/MOL
REMARK 924 INTRA-LIGAND FREE ENERGY PREDICTED BY IDOCK:   -0.37 KCAL/MOL
REMARK 927      BINDING AFFINITY PREDICTED BY RF-SCORE:    0.00 PKD
ROOT
HETATM    1  O   UNL     1     -11.751  11.004  67.468  1.00  0.00    -0.565 OA 
HETATM    2  N   UNL     1     -10.615  11.011  66.964  1.00  0.00    -0.243 N  
HETATM    3  C   UNL     1     -10.542  11.245  65.554  1.00  0.00    -0.246 A  
HETATM    4  O   UNL     1      -9.551  10.893  67.579  1.00  0.00    -0.154 OA 
HETATM    5  N   UNL     1      -9.731  10.592  64.747  1.00  0.00    -0.277 NA 
HETATM    6  C   UNL     1      -9.944  11.151  63.513  1.00  0.00    -0.379 A  
HETATM    7  C   UNL     1     -10.879  12.158  63.586  1.00  0.00    -0.464 A  
HETATM    8  N   UNL     1     -11.277  12.198  64.901  1.00  0.00    -0.316 NA 
ENDROOT
BRANCH   8   9
HETATM    9  C   UNL     1     -12.201  13.167  65.463  1.00  0.00    -0.461 C  
BRANCH   9  10
HETATM   10  C   UNL     1     -11.985  14.555  64.898  1.00  0.00    -0.422 C  
HETATM   11  N   UNL     1     -11.036  15.310  65.544  1.00  0.00    -0.350 N  
HETATM   12  O   UNL     1     -12.620  14.956  63.924  1.00  0.00    -0.831 OA 
HETATM   13  H   UNL     1     -10.547  14.907  66.343  1.00  0.00     0.000 HD 
BRANCH  11  14
HETATM   14  C   UNL     1     -10.703  16.658  65.129  1.00  0.00    -0.189 C  
BRANCH  14  15
HETATM   15  C   UNL     1     -10.393  17.528  66.319  1.00  0.00    -0.335 A  
HETATM   16  C   UNL     1     -10.509  18.924  66.225  1.00  0.00    -0.510 A  
HETATM   17  C   UNL     1     -10.229  19.736  67.327  1.00  0.00    -0.570 A  
HETATM   18  C   UNL     1      -9.821  19.164  68.528  1.00  0.00    -0.483 A  
HETATM   19  C   UNL     1      -9.692  17.780  68.633  1.00  0.00    -0.346 A  
HETATM   20  C   UNL     1      -9.972  16.965  67.531  1.00  0.00    -0.268 A  
ENDBRANCH  14  15
ENDBRANCH  11  14
ENDBRANCH   9  10
ENDBRANCH   8   9
TORSDOF 4
ENDMDL
MODEL       28
REMARK 921   NORMALIZED FREE ENERGY PREDICTED BY IDOCK:   -5.75 KCAL/MOL
REMARK 922        TOTAL FREE ENERGY PREDICTED BY IDOCK:   -7.71 KCAL/MOL
REMARK 923 INTER-LIGAND FREE ENERGY PREDICTED BY IDOCK:   -7.25 KCAL/MOL
REMARK 924 INTRA-LIGAND FREE ENERGY PREDICTED BY IDOCK:   -0.46 KCAL/MOL
REMARK 927      BINDING AFFINITY PREDICTED BY RF-SCORE:    0.00 PKD
ROOT
HETATM    1  O   UNL     1     -10.996  19.200  67.220  1.00  0.00    -0.478 OA 
HETATM    2  N   UNL     1     -10.520  18.560  66.268  1.00  0.00    -0.421 N  
HETATM    3  C   UNL     1      -9.530  17.577  66.589  1.00  0.00    -0.275 A  
HETATM    4  O   UNL     1     -10.866  18.655  65.086  1.00  0.00    -0.551 OA 
HETATM    5  N   UNL     1      -8.439  17.381  65.877  1.00  0.00    -0.541 NA 
HETATM    6  C   UNL     1      -7.804  16.336  66.496  1.00  0.00    -0.263 A  
HETATM    7  C   UNL     1      -8.530  15.892  67.579  1.00  0.00    -0.165 A  
HETATM    8  N   UNL     1      -9.630  16.713  67.645  1.00  0.00    -0.237 NA 
ENDROOT
BRANCH   8   9
HETATM    9  C   UNL     1     -10.723  16.565  68.591  1.00  0.00    -0.334 C  
BRANCH   9  10
HETATM   10  C   UNL     1     -11.275  15.155  68.609  1.00  0.00    -0.286 C  
HETATM   11  N   UNL     1     -11.724  14.685  67.398  1.00  0.00    -0.392 N  
HETATM   12  O   UNL     1     -11.303  14.492  69.644  1.00  0.00    -0.256 OA 
HETATM   13  H   UNL     1     -11.664  15.294  66.582  1.00  0.00     0.000 HD 
BRANCH  11  14
HETATM   14  C   UNL     1     -12.278  13.356  67.240  1.00  0.00    -0.233 C  
BRANCH  14  15
HETATM   15  C   UNL     1     -11.872  12.755  65.920  1.00  0.00    -0.490 A  
HETATM   16  C   UNL     1     -10.914  11.730  65.874  1.00  0.00    -0.354 A  
HETATM   17  C   UNL     1     -10.538  11.163  64.653  1.00  0.00    -0.386 A  
HETATM   18  C   UNL     1     -11.106  11.620  63.468  1.00  0.00    -0.476 A  
HETATM   19  C   UNL     1     -12.052  12.644  63.498  1.00  0.00    -0.648 A  
HETATM   20  C   UNL     1     -12.430  13.213  64.719  1.00  0.00    -0.460 A  
ENDBRANCH  14  15
ENDBRANCH  11  14
ENDBRANCH   9  10
ENDBRANCH   8   9
TORSDOF 4
ENDMDL
MODEL       29
REMARK 921   NORMALIZED FREE ENERGY PREDICTED BY IDOCK:   -5.74 KCAL/MOL
REMARK 922        TOTAL FREE ENERGY PREDICTED BY IDOCK:   -7.70 KCAL/MOL
REMARK 923 INTER-LIGAND FREE ENERGY PREDICTED BY IDOCK:   -7.27 KCAL/MOL
REMARK 924 INTRA-LIGAND FREE ENERGY PREDICTED BY IDOCK:   -0.44 KCAL/MOL
REMARK 927      BINDING AFFINITY PREDICTED BY RF-SCORE:    0.00 PKD
ROOT
HETATM    1  O   UNL     1     -10.771  15.263  64.902  1.00  0.00    -0.419 OA 
HETATM    2  N   UNL     1     -11.404  14.322  64.395  1.00  0.00    -0.317 N  
HETATM    3  C   UNL     1     -10.795  13.028  64.470  1.00  0.00    -0.372 A  
HETATM    4  O   UNL     1     -12.528  14.395  63.891  1.00  0.00    -0.798 OA 
HETATM    5  N   UNL     1     -10.802  12.161  63.478  1.00  0.00    -0.444 NA 
HETATM    6  C   UNL     1     -10.165  11.055  63.980  1.00  0.00    -0.358 A  
HETATM    7  C   UNL     1      -9.787  11.257  65.288  1.00  0.00    -0.246 A  
HETATM    8  N   UNL     1     -10.177  12.541  65.590  1.00  0.00    -0.265 NA 
ENDROOT
BRANCH   8   9
HETATM    9  C   UNL     1     -10.054  13.163  66.896  1.00  0.00    -0.245 C  
BRANCH   9  10
HETATM   10  C   UNL     1     -11.247  12.874  67.782  1.00  0.00    -0.280 C  
HETATM   11  N   UNL     1     -10.974  12.794  69.126  1.00  0.00    -0.409 N  
HETATM   12  O   UNL     1     -12.374  12.731  67.311  1.00  0.00    -0.335 OA 
HETATM   13  H   UNL     1     -10.013  12.928  69.442  1.00  0.00     0.000 HD 
BRANCH  11  14
HETATM   14  C   UNL     1     -12.002  12.527  70.112  1.00  0.00    -0.301 C  
BRANCH  14  15
HETATM   15  C   UNL     1     -11.972  11.086  70.548  1.00  0.00    -0.474 A  
HETATM   16  C   UNL     1     -10.944  10.236  70.111  1.00  0.00    -0.377 A  
HETATM   17  C   UNL     1     -10.906   8.900  70.518  1.00  0.00    -0.276 A  
HETATM   18  C   UNL     1     -11.899   8.398  71.355  1.00  0.00    -0.339 A  
HETATM   19  C   UNL     1     -12.931   9.229  71.788  1.00  0.00    -0.471 A  
HETATM   20  C   UNL     1     -12.970  10.567  71.383  1.00  0.00    -0.542 A  
ENDBRANCH  14  15
ENDBRANCH  11  14
ENDBRANCH   9  10
ENDBRANCH   8   9
TORSDOF 4
ENDMDL
MODEL       30
REMARK 921   NORMALIZED FREE ENERGY PREDICTED BY IDOCK:   -5.72 KCAL/MOL
REMARK 922        TOTAL FREE ENERGY PREDICTED BY IDOCK:   -7.68 KCAL/MOL
REMARK 923 INTER-LIGAND FREE ENERGY PREDICTED BY IDOCK:   -7.05 KCAL/MOL
REMARK 924 INTRA-LIGAND FREE ENERGY PREDICTED BY IDOCK:   -0.63 KCAL/MOL
REMARK 927      BINDING AFFINITY PREDICTED BY RF-SCORE:    0.00 PKD
ROOT
HETATM    1  O   UNL     1     -10.711  13.867  64.957  1.00  0.00    -0.338 OA 
HETATM    2  N   UNL     1     -11.658  13.420  65.625  1.00  0.00    -0.318 N  
HETATM    3  C   UNL     1     -11.318  12.625  66.766  1.00  0.00    -0.320 A  
HETATM    4  O   UNL     1     -12.855  13.651  65.427  1.00  0.00    -0.634 OA 
HETATM    5  N   UNL     1     -11.957  11.524  67.104  1.00  0.00    -0.499 NA 
HETATM    6  C   UNL     1     -11.350  11.112  68.262  1.00  0.00    -0.297 A  
HETATM    7  C   UNL     1     -10.349  11.983  68.629  1.00  0.00    -0.196 A  
HETATM    8  N   UNL     1     -10.320  12.944  67.646  1.00  0.00    -0.216 NA 
ENDROOT
BRANCH   8   9
HETATM    9  C   UNL     1      -9.466  14.119  67.656  1.00  0.00    -0.213 C  
BRANCH   9  10
HETATM   10  C   UNL     1     -10.175  15.335  68.213  1.00  0.00    -0.226 C  
HETATM   11  N   UNL     1     -10.123  15.469  69.580  1.00  0.00    -0.281 N  
HETATM   12  O   UNL     1     -10.746  16.138  67.477  1.00  0.00    -0.311 OA 
HETATM   13  H   UNL     1      -9.627  14.763  70.125  1.00  0.00     0.000 HD 
BRANCH  11  14
HETATM   14  C   UNL     1     -10.746  16.577  70.275  1.00  0.00    -0.081 C  
BRANCH  14  15
HETATM   15  C   UNL     1     -11.863  16.098  71.164  1.00  0.00    -0.411 A  
HETATM   16  C   UNL     1     -13.006  15.503  70.606  1.00  0.00    -0.425 A  
HETATM   17  C   UNL     1     -14.043  15.049  71.426  1.00  0.00    -0.576 A  
HETATM   18  C   UNL     1     -13.954  15.195  72.807  1.00  0.00    -0.419 A  
HETATM   19  C   UNL     1     -12.830  15.794  73.374  1.00  0.00    -0.680 A  
HETATM   20  C   UNL     1     -11.790  16.247  72.555  1.00  0.00    -0.608 A  
ENDBRANCH  14  15
ENDBRANCH  11  14
ENDBRANCH   9  10
ENDBRANCH   8   9
TORSDOF 4
ENDMDL
MODEL       31
REMARK 921   NORMALIZED FREE ENERGY PREDICTED BY IDOCK:   -5.70 KCAL/MOL
REMARK 922        TOTAL FREE ENERGY PREDICTED BY IDOCK:   -7.65 KCAL/MOL
REMARK 923 INTER-LIGAND FREE ENERGY PREDICTED BY IDOCK:   -7.30 KCAL/MOL
REMARK 924 INTRA-LIGAND FREE ENERGY PREDICTED BY IDOCK:   -0.34 KCAL/MOL
REMARK 927      BINDING AFFINITY PREDICTED BY RF-SCORE:    0.00 PKD
ROOT
HETATM    1  O   UNL     1     -11.110  19.279  67.271  1.00  0.00    -0.442 OA 
HETATM    2  N   UNL     1     -10.297  19.296  66.331  1.00  0.00    -0.434 N  
HETATM    3  C   UNL     1      -9.251  18.319  66.373  1.00  0.00    -0.263 A  
HETATM    4  O   UNL     1     -10.348  20.035  65.344  1.00  0.00    -0.322 OA 
HETATM    5  N   UNL     1      -8.000  18.577  66.051  1.00  0.00    -0.482 NA 
HETATM    6  C   UNL     1      -7.354  17.375  66.181  1.00  0.00    -0.296 A  
HETATM    7  C   UNL     1      -8.229  16.386  66.569  1.00  0.00    -0.306 A  
HETATM    8  N   UNL     1      -9.447  17.008  66.712  1.00  0.00    -0.248 NA 
ENDROOT
BRANCH   8   9
HETATM    9  C   UNL     1     -10.693  16.335  67.034  1.00  0.00    -0.233 C  
BRANCH   9  10
HETATM   10  C   UNL     1     -10.934  16.265  68.528  1.00  0.00    -0.345 C  
HETATM   11  N   UNL     1     -12.049  15.558  68.909  1.00  0.00    -0.595 N  
HETATM   12  O   UNL     1     -10.169  16.804  69.325  1.00  0.00    -0.288 OA 
HETATM   13  H   UNL     1     -12.634  15.135  68.188  1.00  0.00     0.000 HD 
BRANCH  11  14
HETATM   14  C   UNL     1     -12.423  15.390  70.299  1.00  0.00    -0.374 C  
BRANCH  14  15
HETATM   15  C   UNL     1     -12.529  13.932  70.658  1.00  0.00    -0.436 A  
HETATM   16  C   UNL     1     -11.976  12.953  69.817  1.00  0.00    -0.365 A  
HETATM   17  C   UNL     1     -12.065  11.599  70.148  1.00  0.00    -0.414 A  
HETATM   18  C   UNL     1     -12.714  11.208  71.316  1.00  0.00    -0.531 A  
HETATM   19  C   UNL     1     -13.276  12.169  72.156  1.00  0.00    -0.438 A  
HETATM   20  C   UNL     1     -13.188  13.525  71.826  1.00  0.00    -0.490 A  
ENDBRANCH  14  15
ENDBRANCH  11  14
ENDBRANCH   9  10
ENDBRANCH   8   9
TORSDOF 4
ENDMDL
MODEL       32
REMARK 921   NORMALIZED FREE ENERGY PREDICTED BY IDOCK:   -5.68 KCAL/MOL
REMARK 922        TOTAL FREE ENERGY PREDICTED BY IDOCK:   -7.62 KCAL/MOL
REMARK 923 INTER-LIGAND FREE ENERGY PREDICTED BY IDOCK:   -7.23 KCAL/MOL
REMARK 924 INTRA-LIGAND FREE ENERGY PREDICTED BY IDOCK:   -0.40 KCAL/MOL
REMARK 927      BINDING AFFINITY PREDICTED BY RF-SCORE:    0.00 PKD
ROOT
HETATM    1  O   UNL     1     -11.933  11.317  67.610  1.00  0.00    -0.634 OA 
HETATM    2  N   UNL     1     -11.217  11.358  66.595  1.00  0.00    -0.283 N  
HETATM    3  C   UNL     1     -11.619  12.268  65.566  1.00  0.00    -0.371 A  
HETATM    4  O   UNL     1     -10.167  10.731  66.426  1.00  0.00    -0.225 OA 
HETATM    5  N   UNL     1     -11.575  11.980  64.281  1.00  0.00    -0.359 NA 
HETATM    6  C   UNL     1     -11.993  13.126  63.654  1.00  0.00    -0.514 A  
HETATM    7  C   UNL     1     -12.274  14.113  64.572  1.00  0.00    -0.445 A  
HETATM    8  N   UNL     1     -12.052  13.544  65.804  1.00  0.00    -0.406 NA 
ENDROOT
BRANCH   8   9
HETATM    9  C   UNL     1     -12.145  14.244  67.073  1.00  0.00    -0.390 C  
BRANCH   9  10
HETATM   10  C   UNL     1     -10.836  14.898  67.462  1.00  0.00    -0.292 C  
HETATM   11  N   UNL     1     -10.932  15.874  68.425  1.00  0.00    -0.314 N  
HETATM   12  O   UNL     1      -9.773  14.559  66.945  1.00  0.00    -0.237 OA 
HETATM   13  H   UNL     1     -11.850  16.097  68.810  1.00  0.00     0.000 HD 
BRANCH  11  14
HETATM   14  C   UNL     1      -9.775  16.596  68.914  1.00  0.00    -0.255 C  
BRANCH  14  15
HETATM   15  C   UNL     1      -9.582  17.883  68.156  1.00  0.00    -0.306 A  
HETATM   16  C   UNL     1      -8.369  18.584  68.249  1.00  0.00    -0.344 A  
HETATM   17  C   UNL     1      -8.181  19.775  67.543  1.00  0.00    -0.347 A  
HETATM   18  C   UNL     1      -9.204  20.282  66.747  1.00  0.00    -0.452 A  
HETATM   19  C   UNL     1     -10.417  19.602  66.654  1.00  0.00    -0.610 A  
HETATM   20  C   UNL     1     -10.607  18.409  67.359  1.00  0.00    -0.445 A  
ENDBRANCH  14  15
ENDBRANCH  11  14
ENDBRANCH   9  10
ENDBRANCH   8   9
TORSDOF 4
ENDMDL
MODEL       33
REMARK 921   NORMALIZED FREE ENERGY PREDICTED BY IDOCK:   -5.65 KCAL/MOL
REMARK 922        TOTAL FREE ENERGY PREDICTED BY IDOCK:   -7.58 KCAL/MOL
REMARK 923 INTER-LIGAND FREE ENERGY PREDICTED BY IDOCK:   -6.78 KCAL/MOL
REMARK 924 INTRA-LIGAND FREE ENERGY PREDICTED BY IDOCK:   -0.81 KCAL/MOL
REMARK 927      BINDING AFFINITY PREDICTED BY RF-SCORE:    0.00 PKD
ROOT
HETATM    1  O   UNL     1     -10.579  10.487  69.951  1.00  0.00    -0.259 OA 
HETATM    2  N   UNL     1      -9.711   9.636  70.207  1.00  0.00    -0.255 N  
HETATM    3  C   UNL     1      -9.853   8.928  71.443  1.00  0.00    -0.306 A  
HETATM    4  O   UNL     1      -8.778   9.309  69.467  1.00  0.00    -0.130 OA 
HETATM    5  N   UNL     1      -8.844   8.643  72.241  1.00  0.00    -0.364 NA 
HETATM    6  C   UNL     1      -9.405   7.930  73.269  1.00  0.00    -0.286 A  
HETATM    7  C   UNL     1     -10.759   7.773  73.076  1.00  0.00    -0.384 A  
HETATM    8  N   UNL     1     -11.044   8.440  71.908  1.00  0.00    -0.285 NA 
ENDROOT
BRANCH   8   9
HETATM    9  C   UNL     1     -12.346   8.476  71.267  1.00  0.00    -0.271 C  
BRANCH   9  10
HETATM   10  C   UNL     1     -13.273   9.484  71.913  1.00  0.00    -0.439 C  
HETATM   11  N   UNL     1     -12.983  10.801  71.648  1.00  0.00    -0.464 N  
HETATM   12  O   UNL     1     -14.217   9.128  72.616  1.00  0.00    -0.551 OA 
HETATM   13  H   UNL     1     -12.184  11.018  71.052  1.00  0.00     0.000 HD 
BRANCH  11  14
HETATM   14  C   UNL     1     -13.771  11.892  72.184  1.00  0.00     0.071 C  
BRANCH  14  15
HETATM   15  C   UNL     1     -13.137  13.221  71.872  1.00  0.00    -0.483 A  
HETATM   16  C   UNL     1     -12.372  13.385  70.706  1.00  0.00    -0.433 A  
HETATM   17  C   UNL     1     -11.787  14.618  70.406  1.00  0.00    -0.365 A  
HETATM   18  C   UNL     1     -11.951  15.695  71.272  1.00  0.00    -0.467 A  
HETATM   19  C   UNL     1     -12.699  15.544  72.439  1.00  0.00    -0.488 A  
HETATM   20  C   UNL     1     -13.286  14.311  72.740  1.00  0.00    -0.621 A  
ENDBRANCH  14  15
ENDBRANCH  11  14
ENDBRANCH   9  10
ENDBRANCH   8   9
TORSDOF 4
ENDMDL
MODEL       34
REMARK 921   NORMALIZED FREE ENERGY PREDICTED BY IDOCK:   -5.63 KCAL/MOL
REMARK 922        TOTAL FREE ENERGY PREDICTED BY IDOCK:   -7.56 KCAL/MOL
REMARK 923 INTER-LIGAND FREE ENERGY PREDICTED BY IDOCK:   -6.77 KCAL/MOL
REMARK 924 INTRA-LIGAND FREE ENERGY PREDICTED BY IDOCK:   -0.80 KCAL/MOL
REMARK 927      BINDING AFFINITY PREDICTED BY RF-SCORE:    0.00 PKD
ROOT
HETATM    1  O   UNL     1     -10.251  10.764  66.469  1.00  0.00    -0.220 OA 
HETATM    2  N   UNL     1     -10.298  10.869  65.232  1.00  0.00    -0.278 N  
HETATM    3  C   UNL     1     -11.026  11.987  64.713  1.00  0.00    -0.311 A  
HETATM    4  O   UNL     1      -9.726  10.134  64.422  1.00  0.00    -0.308 OA 
HETATM    5  N   UNL     1     -11.824  11.915  63.667  1.00  0.00    -0.481 NA 
HETATM    6  C   UNL     1     -12.272  13.197  63.483  1.00  0.00    -0.476 A  
HETATM    7  C   UNL     1     -11.725  14.047  64.418  1.00  0.00    -0.397 A  
HETATM    8  N   UNL     1     -10.940  13.254  65.221  1.00  0.00    -0.286 NA 
ENDROOT
BRANCH   8   9
HETATM    9  C   UNL     1     -10.101  13.738  66.303  1.00  0.00    -0.300 C  
BRANCH   9  10
HETATM   10  C   UNL     1     -10.897  14.022  67.560  1.00  0.00    -0.270 C  
HETATM   11  N   UNL     1     -11.123  12.934  68.368  1.00  0.00    -0.247 N  
HETATM   12  O   UNL     1     -11.296  15.154  67.823  1.00  0.00    -0.315 OA 
HETATM   13  H   UNL     1     -10.756  12.025  68.084  1.00  0.00     0.000 HD 
BRANCH  11  14
HETATM   14  C   UNL     1     -11.863  13.031  69.610  1.00  0.00    -0.319 C  
BRANCH  14  15
HETATM   15  C   UNL     1     -11.954  11.691  70.291  1.00  0.00    -0.445 A  
HETATM   16  C   UNL     1     -12.949  11.451  71.252  1.00  0.00    -0.415 A  
HETATM   17  C   UNL     1     -13.043  10.208  71.882  1.00  0.00    -0.571 A  
HETATM   18  C   UNL     1     -12.139   9.197  71.569  1.00  0.00    -0.422 A  
HETATM   19  C   UNL     1     -11.139   9.425  70.624  1.00  0.00    -0.351 A  
HETATM   20  C   UNL     1     -11.044  10.668  69.991  1.00  0.00    -0.359 A  
ENDBRANCH  14  15
ENDBRANCH  11  14
ENDBRANCH   9  10
ENDBRANCH   8   9
TORSDOF 4
ENDMDL
MODEL       35
REMARK 921   NORMALIZED FREE ENERGY PREDICTED BY IDOCK:   -5.63 KCAL/MOL
REMARK 922        TOTAL FREE ENERGY PREDICTED BY IDOCK:   -7.56 KCAL/MOL
REMARK 923 INTER-LIGAND FREE ENERGY PREDICTED BY IDOCK:   -7.31 KCAL/MOL
REMARK 924 INTRA-LIGAND FREE ENERGY PREDICTED BY IDOCK:   -0.25 KCAL/MOL
REMARK 927      BINDING AFFINITY PREDICTED BY RF-SCORE:    0.00 PKD
ROOT
HETATM    1  O   UNL     1     -12.489  14.839  64.389  1.00  0.00    -0.599 OA 
HETATM    2  N   UNL     1     -11.628  15.724  64.526  1.00  0.00    -0.333 N  
HETATM    3  C   UNL     1     -10.736  15.582  65.636  1.00  0.00    -0.366 A  
HETATM    4  O   UNL     1     -11.439  16.674  63.760  1.00  0.00    -1.015 OA 
HETATM    5  N   UNL     1     -10.353  16.587  66.397  1.00  0.00    -0.311 NA 
HETATM    6  C   UNL     1      -9.478  16.030  67.294  1.00  0.00    -0.215 A  
HETATM    7  C   UNL     1      -9.324  14.682  67.057  1.00  0.00    -0.232 A  
HETATM    8  N   UNL     1     -10.156  14.397  66.000  1.00  0.00    -0.308 NA 
ENDROOT
BRANCH   8   9
HETATM    9  C   UNL     1     -10.262  13.103  65.351  1.00  0.00    -0.290 C  
BRANCH   9  10
HETATM   10  C   UNL     1     -11.187  12.164  66.097  1.00  0.00    -0.338 C  
HETATM   11  N   UNL     1     -10.584  11.388  67.058  1.00  0.00    -0.236 N  
HETATM   12  O   UNL     1     -12.391  12.121  65.850  1.00  0.00    -0.561 OA 
HETATM   13  H   UNL     1      -9.580  11.483  67.208  1.00  0.00     0.000 HD 
BRANCH  11  14
HETATM   14  C   UNL     1     -11.324  10.440  67.865  1.00  0.00    -0.173 C  
BRANCH  14  15
HETATM   15  C   UNL     1     -11.811  11.079  69.139  1.00  0.00    -0.407 A  
HETATM   16  C   UNL     1     -11.800  12.476  69.280  1.00  0.00    -0.360 A  
HETATM   17  C   UNL     1     -12.257  13.075  70.456  1.00  0.00    -0.392 A  
HETATM   18  C   UNL     1     -12.719  12.287  71.506  1.00  0.00    -0.339 A  
HETATM   19  C   UNL     1     -12.727  10.898  71.384  1.00  0.00    -0.539 A  
HETATM   20  C   UNL     1     -12.270  10.296  70.207  1.00  0.00    -0.298 A  
ENDBRANCH  14  15
ENDBRANCH  11  14
ENDBRANCH   9  10
ENDBRANCH   8   9
TORSDOF 4
ENDMDL
MODEL       36
REMARK 921   NORMALIZED FREE ENERGY PREDICTED BY IDOCK:   -5.61 KCAL/MOL
REMARK 922        TOTAL FREE ENERGY PREDICTED BY IDOCK:   -7.54 KCAL/MOL
REMARK 923 INTER-LIGAND FREE ENERGY PREDICTED BY IDOCK:   -7.18 KCAL/MOL
REMARK 924 INTRA-LIGAND FREE ENERGY PREDICTED BY IDOCK:   -0.36 KCAL/MOL
REMARK 927      BINDING AFFINITY PREDICTED BY RF-SCORE:    0.00 PKD
ROOT
HETATM    1  O   UNL     1      -9.338  14.777  68.033  1.00  0.00    -0.189 OA 
HETATM    2  N   UNL     1      -9.814  15.597  67.230  1.00  0.00    -0.224 N  
HETATM    3  C   UNL     1     -10.782  15.095  66.302  1.00  0.00    -0.320 A  
HETATM    4  O   UNL     1      -9.571  16.807  67.202  1.00  0.00    -0.229 OA 
HETATM    5  N   UNL     1     -10.821  15.440  65.031  1.00  0.00    -0.427 NA 
HETATM    6  C   UNL     1     -11.911  14.779  64.525  1.00  0.00    -0.419 A  
HETATM    7  C   UNL     1     -12.538  14.044  65.506  1.00  0.00    -0.516 A  
HETATM    8  N   UNL     1     -11.790  14.235  66.644  1.00  0.00    -0.408 NA 
ENDROOT
BRANCH   8   9
HETATM    9  C   UNL     1     -12.123  13.710  67.956  1.00  0.00    -0.274 C  
BRANCH   9  10
HETATM   10  C   UNL     1     -11.641  12.287  68.141  1.00  0.00    -0.339 C  
HETATM   11  N   UNL     1     -10.876  12.067  69.262  1.00  0.00    -0.431 N  
HETATM   12  O   UNL     1     -11.931  11.403  67.337  1.00  0.00    -0.606 OA 
HETATM   13  H   UNL     1     -10.681  12.851  69.885  1.00  0.00     0.000 HD 
BRANCH  11  14
HETATM   14  C   UNL     1     -10.338  10.763  69.591  1.00  0.00    -0.101 C  
BRANCH  14  15
HETATM   15  C   UNL     1     -11.182  10.077  70.632  1.00  0.00    -0.425 A  
HETATM   16  C   UNL     1     -10.680   8.970  71.334  1.00  0.00    -0.401 A  
HETATM   17  C   UNL     1     -11.455   8.333  72.306  1.00  0.00    -0.452 A  
HETATM   18  C   UNL     1     -12.742   8.788  72.579  1.00  0.00    -0.378 A  
HETATM   19  C   UNL     1     -13.258   9.880  71.882  1.00  0.00    -0.558 A  
HETATM   20  C   UNL     1     -12.483  10.520  70.909  1.00  0.00    -0.488 A  
ENDBRANCH  14  15
ENDBRANCH  11  14
ENDBRANCH   9  10
ENDBRANCH   8   9
TORSDOF 4
ENDMDL
MODEL       37
REMARK 921   NORMALIZED FREE ENERGY PREDICTED BY IDOCK:   -5.58 KCAL/MOL
REMARK 922        TOTAL FREE ENERGY PREDICTED BY IDOCK:   -7.51 KCAL/MOL
REMARK 923 INTER-LIGAND FREE ENERGY PREDICTED BY IDOCK:   -7.07 KCAL/MOL
REMARK 924 INTRA-LIGAND FREE ENERGY PREDICTED BY IDOCK:   -0.44 KCAL/MOL
REMARK 927      BINDING AFFINITY PREDICTED BY RF-SCORE:    0.00 PKD
ROOT
HETATM    1  O   UNL     1     -12.906  12.053  71.205  1.00  0.00    -0.365 OA 
HETATM    2  N   UNL     1     -13.363  12.890  72.001  1.00  0.00    -0.500 N  
HETATM    3  C   UNL     1     -12.679  14.145  72.073  1.00  0.00    -0.306 A  
HETATM    4  O   UNL     1     -14.382  12.756  72.686  1.00  0.00    -0.362 OA 
HETATM    5  N   UNL     1     -12.441  14.783  73.201  1.00  0.00    -0.384 NA 
HETATM    6  C   UNL     1     -11.819  15.943  72.819  1.00  0.00    -0.478 A  
HETATM    7  C   UNL     1     -11.697  16.008  71.449  1.00  0.00    -0.473 A  
HETATM    8  N   UNL     1     -12.234  14.833  70.977  1.00  0.00    -0.306 NA 
ENDROOT
BRANCH   8   9
HETATM    9  C   UNL     1     -12.394  14.497  69.573  1.00  0.00    -0.208 C  
BRANCH   9  10
HETATM   10  C   UNL     1     -11.144  14.788  68.770  1.00  0.00    -0.265 C  
HETATM   11  N   UNL     1     -11.266  15.788  67.836  1.00  0.00    -0.336 N  
HETATM   12  O   UNL     1     -10.101  14.166  68.963  1.00  0.00    -0.193 OA 
HETATM   13  H   UNL     1     -12.165  16.261  67.737  1.00  0.00     0.000 HD 
BRANCH  11  14
HETATM   14  C   UNL     1     -10.165  16.195  66.986  1.00  0.00    -0.285 C  
BRANCH  14  15
HETATM   15  C   UNL     1      -9.961  17.686  67.043  1.00  0.00    -0.320 A  
HETATM   16  C   UNL     1     -10.534  18.516  66.067  1.00  0.00    -0.433 A  
HETATM   17  C   UNL     1     -10.354  19.901  66.117  1.00  0.00    -0.604 A  
HETATM   18  C   UNL     1      -9.594  20.468  67.136  1.00  0.00    -0.570 A  
HETATM   19  C   UNL     1      -9.011  19.654  68.106  1.00  0.00    -0.381 A  
HETATM   20  C   UNL     1      -9.190  18.268  68.058  1.00  0.00    -0.300 A  
ENDBRANCH  14  15
ENDBRANCH  11  14
ENDBRANCH   9  10
ENDBRANCH   8   9
TORSDOF 4
ENDMDL
MODEL       38
REMARK 921   NORMALIZED FREE ENERGY PREDICTED BY IDOCK:   -5.57 KCAL/MOL
REMARK 922        TOTAL FREE ENERGY PREDICTED BY IDOCK:   -7.49 KCAL/MOL
REMARK 923 INTER-LIGAND FREE ENERGY PREDICTED BY IDOCK:   -7.03 KCAL/MOL
REMARK 924 INTRA-LIGAND FREE ENERGY PREDICTED BY IDOCK:   -0.46 KCAL/MOL
REMARK 927      BINDING AFFINITY PREDICTED BY RF-SCORE:    0.00 PKD
ROOT
HETATM    1  O   UNL     1     -10.178  16.923  65.385  1.00  0.00    -0.605 OA 
HETATM    2  N   UNL     1     -11.056  16.230  64.843  1.00  0.00    -0.368 N  
HETATM    3  C   UNL     1     -11.291  14.937  65.410  1.00  0.00    -0.346 A  
HETATM    4  O   UNL     1     -11.776  16.581  63.904  1.00  0.00    -1.148 OA 
HETATM    5  N   UNL     1     -11.499  13.853  64.691  1.00  0.00    -0.362 NA 
HETATM    6  C   UNL     1     -11.724  12.863  65.614  1.00  0.00    -0.387 A  
HETATM    7  C   UNL     1     -11.666  13.363  66.895  1.00  0.00    -0.389 A  
HETATM    8  N   UNL     1     -11.364  14.697  66.756  1.00  0.00    -0.348 NA 
ENDROOT
BRANCH   8   9
HETATM    9  C   UNL     1     -11.279  15.650  67.848  1.00  0.00    -0.328 C  
BRANCH   9  10
HETATM   10  C   UNL     1      -9.850  15.891  68.287  1.00  0.00    -0.217 C  
HETATM   11  N   UNL     1      -9.476  17.211  68.370  1.00  0.00    -0.267 N  
HETATM   12  O   UNL     1      -9.096  14.956  68.552  1.00  0.00    -0.178 OA 
HETATM   13  H   UNL     1     -10.160  17.931  68.136  1.00  0.00     0.000 HD 
BRANCH  11  14
HETATM   14  C   UNL     1      -8.146  17.616  68.777  1.00  0.00    -0.233 C  
BRANCH  14  15
HETATM   15  C   UNL     1      -7.613  18.701  67.879  1.00  0.00    -0.264 A  
HETATM   16  C   UNL     1      -7.615  18.531  66.485  1.00  0.00    -0.270 A  
HETATM   17  C   UNL     1      -7.129  19.537  65.646  1.00  0.00    -0.306 A  
HETATM   18  C   UNL     1      -6.626  20.716  66.190  1.00  0.00    -0.269 A  
HETATM   19  C   UNL     1      -6.608  20.893  67.573  1.00  0.00    -0.413 A  
HETATM   20  C   UNL     1      -7.096  19.888  68.414  1.00  0.00    -0.330 A  
ENDBRANCH  14  15
ENDBRANCH  11  14
ENDBRANCH   9  10
ENDBRANCH   8   9
TORSDOF 4
ENDMDL
MODEL       39
REMARK 921   NORMALIZED FREE ENERGY PREDICTED BY IDOCK:   -5.53 KCAL/MOL
REMARK 922        TOTAL FREE ENERGY PREDICTED BY IDOCK:   -7.44 KCAL/MOL
REMARK 923 INTER-LIGAND FREE ENERGY PREDICTED BY IDOCK:   -7.35 KCAL/MOL
REMARK 924 INTRA-LIGAND FREE ENERGY PREDICTED BY IDOCK:   -0.09 KCAL/MOL
REMARK 927      BINDING AFFINITY PREDICTED BY RF-SCORE:    0.00 PKD
ROOT
HETATM    1  O   UNL     1      -8.116  17.060  65.869  1.00  0.00    -0.494 OA 
HETATM    2  N   UNL     1      -8.040  18.296  65.966  1.00  0.00    -0.148 N  
HETATM    3  C   UNL     1      -8.874  18.913  66.953  1.00  0.00    -0.297 A  
HETATM    4  O   UNL     1      -7.271  19.025  65.333  1.00  0.00    -0.483 OA 
HETATM    5  N   UNL     1      -9.528  20.040  66.754  1.00  0.00    -0.381 NA 
HETATM    6  C   UNL     1     -10.151  20.294  67.948  1.00  0.00    -0.336 A  
HETATM    7  C   UNL     1      -9.855  19.320  68.875  1.00  0.00    -0.446 A  
HETATM    8  N   UNL     1      -9.049  18.421  68.218  1.00  0.00    -0.304 NA 
ENDROOT
BRANCH   8   9
HETATM    9  C   UNL     1      -8.424  17.261  68.830  1.00  0.00    -0.233 C  
BRANCH   9  10
HETATM   10  C   UNL     1      -9.386  16.100  68.967  1.00  0.00    -0.248 C  
HETATM   11  N   UNL     1     -10.715  16.445  69.031  1.00  0.00    -0.300 N  
HETATM   12  O   UNL     1      -8.985  14.939  69.008  1.00  0.00    -0.194 OA 
HETATM   13  H   UNL     1     -10.970  17.431  68.987  1.00  0.00     0.000 HD 
BRANCH  11  14
HETATM   14  C   UNL     1     -11.767  15.456  69.159  1.00  0.00    -0.345 C  
BRANCH  14  15
HETATM   15  C   UNL     1     -12.167  15.277  70.600  1.00  0.00    -0.412 A  
HETATM   16  C   UNL     1     -11.904  16.287  71.539  1.00  0.00    -0.441 A  
HETATM   17  C   UNL     1     -12.280  16.130  72.875  1.00  0.00    -0.640 A  
HETATM   18  C   UNL     1     -12.911  14.960  73.289  1.00  0.00    -0.635 A  
HETATM   19  C   UNL     1     -13.169  13.945  72.369  1.00  0.00    -0.587 A  
HETATM   20  C   UNL     1     -12.795  14.101  71.031  1.00  0.00    -0.421 A  
ENDBRANCH  14  15
ENDBRANCH  11  14
ENDBRANCH   9  10
ENDBRANCH   8   9
TORSDOF 4
ENDMDL
MODEL       40
REMARK 921   NORMALIZED FREE ENERGY PREDICTED BY IDOCK:   -5.52 KCAL/MOL
REMARK 922        TOTAL FREE ENERGY PREDICTED BY IDOCK:   -7.43 KCAL/MOL
REMARK 923 INTER-LIGAND FREE ENERGY PREDICTED BY IDOCK:   -7.07 KCAL/MOL
REMARK 924 INTRA-LIGAND FREE ENERGY PREDICTED BY IDOCK:   -0.36 KCAL/MOL
REMARK 927      BINDING AFFINITY PREDICTED BY RF-SCORE:    0.00 PKD
ROOT
HETATM    1  O   UNL     1      -7.123  18.887  65.224  1.00  0.00    -0.492 OA 
HETATM    2  N   UNL     1      -7.343  19.466  66.300  1.00  0.00    -0.251 N  
HETATM    3  C   UNL     1      -8.685  19.410  66.795  1.00  0.00    -0.319 A  
HETATM    4  O   UNL     1      -6.499  20.030  67.003  1.00  0.00    -0.190 OA 
HETATM    5  N   UNL     1      -9.303  20.435  67.346  1.00  0.00    -0.398 NA 
HETATM    6  C   UNL     1     -10.528  19.943  67.716  1.00  0.00    -0.371 A  
HETATM    7  C   UNL     1     -10.638  18.608  67.398  1.00  0.00    -0.441 A  
HETATM    8  N   UNL     1      -9.453  18.278  66.783  1.00  0.00    -0.289 NA 
ENDROOT
BRANCH   8   9
HETATM    9  C   UNL     1      -9.087  16.942  66.345  1.00  0.00    -0.283 C  
BRANCH   9  10
HETATM   10  C   UNL     1     -10.289  16.143  65.886  1.00  0.00    -0.367 C  
HETATM   11  N   UNL     1     -10.700  15.155  66.748  1.00  0.00    -0.307 N  
HETATM   12  O   UNL     1     -10.846  16.383  64.817  1.00  0.00    -0.697 OA 
HETATM   13  H   UNL     1     -10.188  15.018  67.620  1.00  0.00     0.000 HD 
BRANCH  11  14
HETATM   14  C   UNL     1     -11.835  14.301  66.463  1.00  0.00    -0.415 C  
BRANCH  14  15
HETATM   15  C   UNL     1     -11.442  13.162  65.560  1.00  0.00    -0.343 A  
HETATM   16  C   UNL     1     -10.562  12.168  66.016  1.00  0.00    -0.292 A  
HETATM   17  C   UNL     1     -10.199  11.105  65.185  1.00  0.00    -0.347 A  
HETATM   18  C   UNL     1     -10.701  11.030  63.889  1.00  0.00    -0.310 A  
HETATM   19  C   UNL     1     -11.568  12.017  63.419  1.00  0.00    -0.495 A  
HETATM   20  C   UNL     1     -11.934  13.081  64.250  1.00  0.00    -0.466 A  
ENDBRANCH  14  15
ENDBRANCH  11  14
ENDBRANCH   9  10
ENDBRANCH   8   9
TORSDOF 4
ENDMDL
MODEL       41
REMARK 921   NORMALIZED FREE ENERGY PREDICTED BY IDOCK:   -5.50 KCAL/MOL
REMARK 922        TOTAL FREE ENERGY PREDICTED BY IDOCK:   -7.41 KCAL/MOL
REMARK 923 INTER-LIGAND FREE ENERGY PREDICTED BY IDOCK:   -7.34 KCAL/MOL
REMARK 924 INTRA-LIGAND FREE ENERGY PREDICTED BY IDOCK:   -0.07 KCAL/MOL
REMARK 927      BINDING AFFINITY PREDICTED BY RF-SCORE:    0.00 PKD
ROOT
HETATM    1  O   UNL     1     -13.979  15.565  71.061  1.00  0.00    -0.535 OA 
HETATM    2  N   UNL     1     -13.555  14.653  71.790  1.00  0.00    -0.363 N  
HETATM    3  C   UNL     1     -12.872  13.577  71.137  1.00  0.00    -0.309 A  
HETATM    4  O   UNL     1     -13.618  14.623  73.022  1.00  0.00    -0.561 OA 
HETATM    5  N   UNL     1     -13.031  12.310  71.459  1.00  0.00    -0.354 NA 
HETATM    6  C   UNL     1     -12.171  11.631  70.635  1.00  0.00    -0.366 A  
HETATM    7  C   UNL     1     -11.479  12.502  69.823  1.00  0.00    -0.141 A  
HETATM    8  N   UNL     1     -11.953  13.754  70.138  1.00  0.00    -0.325 NA 
ENDROOT
BRANCH   8   9
HETATM    9  C   UNL     1     -11.451  14.998  69.583  1.00  0.00    -0.294 C  
BRANCH   9  10
HETATM   10  C   UNL     1     -11.560  15.035  68.073  1.00  0.00    -0.338 C  
HETATM   11  N   UNL     1     -12.410  14.105  67.524  1.00  0.00    -0.560 N  
HETATM   12  O   UNL     1     -10.929  15.852  67.405  1.00  0.00    -0.318 OA 
HETATM   13  H   UNL     1     -12.903  13.462  68.144  1.00  0.00     0.000 HD 
BRANCH  11  14
HETATM   14  C   UNL     1     -12.633  14.006  66.096  1.00  0.00    -0.367 C  
BRANCH  14  15
HETATM   15  C   UNL     1     -11.810  12.898  65.496  1.00  0.00    -0.455 A  
HETATM   16  C   UNL     1     -11.586  12.852  64.110  1.00  0.00    -0.456 A  
HETATM   17  C   UNL     1     -10.817  11.830  63.548  1.00  0.00    -0.496 A  
HETATM   18  C   UNL     1     -10.273  10.839  64.361  1.00  0.00    -0.432 A  
HETATM   19  C   UNL     1     -10.496  10.867  65.737  1.00  0.00    -0.275 A  
HETATM   20  C   UNL     1     -11.264  11.889  66.302  1.00  0.00    -0.392 A  
ENDBRANCH  14  15
ENDBRANCH  11  14
ENDBRANCH   9  10
ENDBRANCH   8   9
TORSDOF 4
ENDMDL
MODEL       42
REMARK 921   NORMALIZED FREE ENERGY PREDICTED BY IDOCK:   -5.49 KCAL/MOL
REMARK 922        TOTAL FREE ENERGY PREDICTED BY IDOCK:   -7.40 KCAL/MOL
REMARK 923 INTER-LIGAND FREE ENERGY PREDICTED BY IDOCK:   -6.75 KCAL/MOL
REMARK 924 INTRA-LIGAND FREE ENERGY PREDICTED BY IDOCK:   -0.65 KCAL/MOL
REMARK 927      BINDING AFFINITY PREDICTED BY RF-SCORE:    0.00 PKD
ROOT
HETATM    1  O   UNL     1      -8.953   9.985  69.447  1.00  0.00    -0.169 OA 
HETATM    2  N   UNL     1      -9.673   9.310  68.692  1.00  0.00    -0.148 N  
HETATM    3  C   UNL     1     -10.337   8.185  69.278  1.00  0.00    -0.217 A  
HETATM    4  O   UNL     1      -9.909   9.558  67.506  1.00  0.00    -0.153 OA 
HETATM    5  N   UNL     1     -10.454   7.016  68.683  1.00  0.00    -0.197 NA 
HETATM    6  C   UNL     1     -11.186   6.254  69.556  1.00  0.00    -0.430 A  
HETATM    7  C   UNL     1     -11.525   6.979  70.676  1.00  0.00    -0.324 A  
HETATM    8  N   UNL     1     -10.953   8.217  70.500  1.00  0.00    -0.242 NA 
ENDROOT
BRANCH   8   9
HETATM    9  C   UNL     1     -11.114   9.344  71.401  1.00  0.00    -0.380 C  
BRANCH   9  10
HETATM   10  C   UNL     1     -12.059  10.389  70.846  1.00  0.00    -0.374 C  
HETATM   11  N   UNL     1     -11.467  11.562  70.446  1.00  0.00    -0.482 N  
HETATM   12  O   UNL     1     -13.267  10.178  70.761  1.00  0.00    -0.379 OA 
HETATM   13  H   UNL     1     -10.456  11.661  70.544  1.00  0.00     0.000 HD 
BRANCH  11  14
HETATM   14  C   UNL     1     -12.225  12.663  69.889  1.00  0.00    -0.168 C  
BRANCH  14  15
HETATM   15  C   UNL     1     -12.325  13.802  70.870  1.00  0.00    -0.456 A  
HETATM   16  C   UNL     1     -13.166  13.700  71.990  1.00  0.00    -0.522 A  
HETATM   17  C   UNL     1     -13.258  14.749  72.907  1.00  0.00    -0.597 A  
HETATM   18  C   UNL     1     -12.521  15.913  72.711  1.00  0.00    -0.565 A  
HETATM   19  C   UNL     1     -11.690  16.032  71.597  1.00  0.00    -0.583 A  
HETATM   20  C   UNL     1     -11.596  14.983  70.678  1.00  0.00    -0.358 A  
ENDBRANCH  14  15
ENDBRANCH  11  14
ENDBRANCH   9  10
ENDBRANCH   8   9
TORSDOF 4
ENDMDL
MODEL       43
REMARK 921   NORMALIZED FREE ENERGY PREDICTED BY IDOCK:   -5.48 KCAL/MOL
REMARK 922        TOTAL FREE ENERGY PREDICTED BY IDOCK:   -7.38 KCAL/MOL
REMARK 923 INTER-LIGAND FREE ENERGY PREDICTED BY IDOCK:   -6.60 KCAL/MOL
REMARK 924 INTRA-LIGAND FREE ENERGY PREDICTED BY IDOCK:   -0.79 KCAL/MOL
REMARK 927      BINDING AFFINITY PREDICTED BY RF-SCORE:    0.00 PKD
ROOT
HETATM    1  O   UNL     1      -9.514  10.232  69.333  1.00  0.00    -0.207 OA 
HETATM    2  N   UNL     1     -10.329   9.842  68.480  1.00  0.00    -0.194 N  
HETATM    3  C   UNL     1     -10.497   8.425  68.357  1.00  0.00    -0.164 A  
HETATM    4  O   UNL     1     -11.043  10.564  67.778  1.00  0.00    -0.290 OA 
HETATM    5  N   UNL     1     -10.613   7.803  67.201  1.00  0.00    -0.343 NA 
HETATM    6  C   UNL     1     -10.801   6.486  67.534  1.00  0.00    -0.352 A  
HETATM    7  C   UNL     1     -10.813   6.322  68.901  1.00  0.00    -0.333 A  
HETATM    8  N   UNL     1     -10.594   7.574  69.424  1.00  0.00    -0.229 NA 
ENDROOT
BRANCH   8   9
HETATM    9  C   UNL     1     -10.603   7.898  70.839  1.00  0.00    -0.213 C  
BRANCH   9  10
HETATM   10  C   UNL     1     -11.929   8.482  71.282  1.00  0.00    -0.294 C  
HETATM   11  N   UNL     1     -11.930   9.840  71.494  1.00  0.00    -0.395 N  
HETATM   12  O   UNL     1     -12.923   7.774  71.428  1.00  0.00    -0.328 OA 
HETATM   13  H   UNL     1     -11.065  10.361  71.348  1.00  0.00     0.000 HD 
BRANCH  11  14
HETATM   14  C   UNL     1     -13.115  10.558  71.917  1.00  0.00    -0.462 C  
BRANCH  14  15
HETATM   15  C   UNL     1     -12.992  12.028  71.619  1.00  0.00    -0.439 A  
HETATM   16  C   UNL     1     -13.686  12.969  72.396  1.00  0.00    -0.593 A  
HETATM   17  C   UNL     1     -13.570  14.336  72.129  1.00  0.00    -0.546 A  
HETATM   18  C   UNL     1     -12.769  14.775  71.079  1.00  0.00    -0.411 A  
HETATM   19  C   UNL     1     -12.082  13.851  70.292  1.00  0.00    -0.423 A  
HETATM   20  C   UNL     1     -12.196  12.483  70.558  1.00  0.00    -0.382 A  
ENDBRANCH  14  15
ENDBRANCH  11  14
ENDBRANCH   9  10
ENDBRANCH   8   9
TORSDOF 4
ENDMDL
MODEL       44
REMARK 921   NORMALIZED FREE ENERGY PREDICTED BY IDOCK:   -5.48 KCAL/MOL
REMARK 922        TOTAL FREE ENERGY PREDICTED BY IDOCK:   -7.38 KCAL/MOL
REMARK 923 INTER-LIGAND FREE ENERGY PREDICTED BY IDOCK:   -7.01 KCAL/MOL
REMARK 924 INTRA-LIGAND FREE ENERGY PREDICTED BY IDOCK:   -0.37 KCAL/MOL
REMARK 927      BINDING AFFINITY PREDICTED BY RF-SCORE:    0.00 PKD
ROOT
HETATM    1  O   UNL     1     -12.064  14.672  65.146  1.00  0.00    -0.363 OA 
HETATM    2  N   UNL     1     -11.485  15.723  64.821  1.00  0.00    -0.316 N  
HETATM    3  C   UNL     1     -10.624  16.309  65.803  1.00  0.00    -0.324 A  
HETATM    4  O   UNL     1     -11.543  16.268  63.715  1.00  0.00    -0.952 OA 
HETATM    5  N   UNL     1     -10.558  17.604  66.036  1.00  0.00    -0.346 NA 
HETATM    6  C   UNL     1      -9.592  17.735  67.000  1.00  0.00    -0.284 A  
HETATM    7  C   UNL     1      -9.064  16.508  67.335  1.00  0.00    -0.204 A  
HETATM    8  N   UNL     1      -9.751  15.592  66.575  1.00  0.00    -0.254 NA 
ENDROOT
BRANCH   8   9
HETATM    9  C   UNL     1      -9.475  14.166  66.539  1.00  0.00    -0.285 C  
BRANCH   9  10
HETATM   10  C   UNL     1     -10.360  13.389  67.491  1.00  0.00    -0.226 C  
HETATM   11  N   UNL     1     -11.219  14.151  68.247  1.00  0.00    -0.260 N  
HETATM   12  O   UNL     1     -10.303  12.163  67.561  1.00  0.00    -0.202 OA 
HETATM   13  H   UNL     1     -11.210  15.164  68.130  1.00  0.00     0.000 HD 
BRANCH  11  14
HETATM   14  C   UNL     1     -12.136  13.566  69.204  1.00  0.00    -0.288 C  
BRANCH  14  15
HETATM   15  C   UNL     1     -12.207  14.393  70.460  1.00  0.00    -0.411 A  
HETATM   16  C   UNL     1     -11.636  15.675  70.497  1.00  0.00    -0.383 A  
HETATM   17  C   UNL     1     -11.704  16.451  71.657  1.00  0.00    -0.372 A  
HETATM   18  C   UNL     1     -12.335  15.951  72.793  1.00  0.00    -0.580 A  
HETATM   19  C   UNL     1     -12.898  14.676  72.773  1.00  0.00    -0.530 A  
HETATM   20  C   UNL     1     -12.831  13.898  71.613  1.00  0.00    -0.432 A  
ENDBRANCH  14  15
ENDBRANCH  11  14
ENDBRANCH   9  10
ENDBRANCH   8   9
TORSDOF 4
ENDMDL
MODEL       45
REMARK 921   NORMALIZED FREE ENERGY PREDICTED BY IDOCK:   -5.48 KCAL/MOL
REMARK 922        TOTAL FREE ENERGY PREDICTED BY IDOCK:   -7.38 KCAL/MOL
REMARK 923 INTER-LIGAND FREE ENERGY PREDICTED BY IDOCK:   -6.60 KCAL/MOL
REMARK 924 INTRA-LIGAND FREE ENERGY PREDICTED BY IDOCK:   -0.78 KCAL/MOL
REMARK 927      BINDING AFFINITY PREDICTED BY RF-SCORE:    0.00 PKD
ROOT
HETATM    1  O   UNL     1     -11.997  10.877  68.117  1.00  0.00    -0.581 OA 
HETATM    2  N   UNL     1     -10.879  10.700  67.605  1.00  0.00    -0.270 N  
HETATM    3  C   UNL     1      -9.796  10.441  68.505  1.00  0.00    -0.167 A  
HETATM    4  O   UNL     1     -10.634  10.669  66.395  1.00  0.00    -0.233 OA 
HETATM    5  N   UNL     1      -8.593  10.960  68.368  1.00  0.00    -0.139 NA 
HETATM    6  C   UNL     1      -7.864  10.423  69.397  1.00  0.00    -0.161 A  
HETATM    7  C   UNL     1      -8.633   9.562  70.148  1.00  0.00    -0.224 A  
HETATM    8  N   UNL     1      -9.885   9.597  69.579  1.00  0.00    -0.193 NA 
ENDROOT
BRANCH   8   9
HETATM    9  C   UNL     1     -11.010   8.779  69.994  1.00  0.00    -0.209 C  
BRANCH   9  10
HETATM   10  C   UNL     1     -11.757   9.386  71.163  1.00  0.00    -0.345 C  
HETATM   11  N   UNL     1     -12.325  10.614  70.921  1.00  0.00    -0.364 N  
HETATM   12  O   UNL     1     -11.844   8.801  72.241  1.00  0.00    -0.360 OA 
HETATM   13  H   UNL     1     -12.213  11.035  69.999  1.00  0.00     0.000 HD 
BRANCH  11  14
HETATM   14  C   UNL     1     -13.077  11.333  71.930  1.00  0.00    -0.405 C  
BRANCH  14  15
HETATM   15  C   UNL     1     -13.006  12.819  71.700  1.00  0.00    -0.402 A  
HETATM   16  C   UNL     1     -12.225  13.338  70.655  1.00  0.00    -0.417 A  
HETATM   17  C   UNL     1     -12.161  14.716  70.433  1.00  0.00    -0.383 A  
HETATM   18  C   UNL     1     -12.866  15.589  71.256  1.00  0.00    -0.540 A  
HETATM   19  C   UNL     1     -13.638  15.088  72.304  1.00  0.00    -0.547 A  
HETATM   20  C   UNL     1     -13.704  13.709  72.528  1.00  0.00    -0.663 A  
ENDBRANCH  14  15
ENDBRANCH  11  14
ENDBRANCH   9  10
ENDBRANCH   8   9
TORSDOF 4
ENDMDL
MODEL       46
REMARK 921   NORMALIZED FREE ENERGY PREDICTED BY IDOCK:   -5.47 KCAL/MOL
REMARK 922        TOTAL FREE ENERGY PREDICTED BY IDOCK:   -7.36 KCAL/MOL
REMARK 923 INTER-LIGAND FREE ENERGY PREDICTED BY IDOCK:   -7.12 KCAL/MOL
REMARK 924 INTRA-LIGAND FREE ENERGY PREDICTED BY IDOCK:   -0.24 KCAL/MOL
REMARK 927      BINDING AFFINITY PREDICTED BY RF-SCORE:    0.00 PKD
ROOT
HETATM    1  O   UNL     1      -9.973  20.224  67.921  1.00  0.00    -0.396 OA 
HETATM    2  N   UNL     1      -8.748  20.059  67.793  1.00  0.00    -0.319 N  
HETATM    3  C   UNL     1      -8.236  18.771  68.152  1.00  0.00    -0.304 A  
HETATM    4  O   UNL     1      -7.952  20.882  67.332  1.00  0.00    -0.300 OA 
HETATM    5  N   UNL     1      -7.111  18.592  68.813  1.00  0.00    -0.295 NA 
HETATM    6  C   UNL     1      -6.972  17.231  68.901  1.00  0.00    -0.233 A  
HETATM    7  C   UNL     1      -8.016  16.590  68.273  1.00  0.00    -0.177 A  
HETATM    8  N   UNL     1      -8.839  17.590  67.812  1.00  0.00    -0.238 NA 
ENDROOT
BRANCH   8   9
HETATM    9  C   UNL     1     -10.033  17.384  67.012  1.00  0.00    -0.295 C  
BRANCH   9  10
HETATM   10  C   UNL     1     -10.780  16.130  67.416  1.00  0.00    -0.291 C  
HETATM   11  N   UNL     1     -11.117  16.051  68.746  1.00  0.00    -0.317 N  
HETATM   12  O   UNL     1     -11.063  15.260  66.594  1.00  0.00    -0.324 OA 
HETATM   13  H   UNL     1     -10.851  16.816  69.367  1.00  0.00     0.000 HD 
BRANCH  11  14
HETATM   14  C   UNL     1     -11.837  14.922  69.298  1.00  0.00    -0.318 C  
BRANCH  14  15
HETATM   15  C   UNL     1     -12.392  15.248  70.659  1.00  0.00    -0.427 A  
HETATM   16  C   UNL     1     -11.564  15.803  71.648  1.00  0.00    -0.537 A  
HETATM   17  C   UNL     1     -12.075  16.114  72.910  1.00  0.00    -0.643 A  
HETATM   18  C   UNL     1     -13.414  15.866  73.201  1.00  0.00    -0.650 A  
HETATM   19  C   UNL     1     -14.245  15.305  72.232  1.00  0.00    -0.642 A  
HETATM   20  C   UNL     1     -13.736  14.994  70.967  1.00  0.00    -0.417 A  
ENDBRANCH  14  15
ENDBRANCH  11  14
ENDBRANCH   9  10
ENDBRANCH   8   9
TORSDOF 4
ENDMDL
MODEL       47
REMARK 921   NORMALIZED FREE ENERGY PREDICTED BY IDOCK:   -5.44 KCAL/MOL
REMARK 922        TOTAL FREE ENERGY PREDICTED BY IDOCK:   -7.33 KCAL/MOL
REMARK 923 INTER-LIGAND FREE ENERGY PREDICTED BY IDOCK:   -6.61 KCAL/MOL
REMARK 924 INTRA-LIGAND FREE ENERGY PREDICTED BY IDOCK:   -0.72 KCAL/MOL
REMARK 927      BINDING AFFINITY PREDICTED BY RF-SCORE:    0.00 PKD
ROOT
HETATM    1  O   UNL     1     -13.671  10.177  70.205  1.00  0.00     0.205 OA 
HETATM    2  N   UNL     1     -12.875  10.336  71.146  1.00  0.00    -0.380 N  
HETATM    3  C   UNL     1     -11.560   9.797  70.969  1.00  0.00    -0.376 A  
HETATM    4  O   UNL     1     -13.099  10.964  72.185  1.00  0.00    -0.463 OA 
HETATM    5  N   UNL     1     -10.895   9.171  71.919  1.00  0.00    -0.347 NA 
HETATM    6  C   UNL     1      -9.684   8.868  71.352  1.00  0.00    -0.300 A  
HETATM    7  C   UNL     1      -9.618   9.331  70.057  1.00  0.00    -0.209 A  
HETATM    8  N   UNL     1     -10.841   9.909  69.811  1.00  0.00    -0.252 NA 
ENDROOT
BRANCH   8   9
HETATM    9  C   UNL     1     -11.201  10.605  68.588  1.00  0.00    -0.278 C  
BRANCH   9  10
HETATM   10  C   UNL     1     -10.888  12.085  68.660  1.00  0.00    -0.237 C  
HETATM   11  N   UNL     1     -11.882  12.869  69.195  1.00  0.00    -0.308 N  
HETATM   12  O   UNL     1      -9.811  12.531  68.270  1.00  0.00    -0.222 OA 
HETATM   13  H   UNL     1     -12.748  12.425  69.501  1.00  0.00     0.000 HD 
BRANCH  11  14
HETATM   14  C   UNL     1     -11.744  14.304  69.340  1.00  0.00    -0.316 C  
BRANCH  14  15
HETATM   15  C   UNL     1     -12.286  14.768  70.666  1.00  0.00    -0.401 A  
HETATM   16  C   UNL     1     -11.541  15.647  71.467  1.00  0.00    -0.507 A  
HETATM   17  C   UNL     1     -12.041  16.087  72.695  1.00  0.00    -0.640 A  
HETATM   18  C   UNL     1     -13.284  15.646  73.140  1.00  0.00    -0.674 A  
HETATM   19  C   UNL     1     -14.031  14.764  72.359  1.00  0.00    -0.575 A  
HETATM   20  C   UNL     1     -13.532  14.324  71.129  1.00  0.00    -0.335 A  
ENDBRANCH  14  15
ENDBRANCH  11  14
ENDBRANCH   9  10
ENDBRANCH   8   9
TORSDOF 4
ENDMDL
MODEL       48
REMARK 921   NORMALIZED FREE ENERGY PREDICTED BY IDOCK:   -5.44 KCAL/MOL
REMARK 922        TOTAL FREE ENERGY PREDICTED BY IDOCK:   -7.33 KCAL/MOL
REMARK 923 INTER-LIGAND FREE ENERGY PREDICTED BY IDOCK:   -7.02 KCAL/MOL
REMARK 924 INTRA-LIGAND FREE ENERGY PREDICTED BY IDOCK:   -0.31 KCAL/MOL
REMARK 927      BINDING AFFINITY PREDICTED BY RF-SCORE:    0.00 PKD
ROOT
HETATM    1  O   UNL     1     -12.881  11.723  63.602  1.00  0.00    -0.556 OA 
HETATM    2  N   UNL     1     -12.580  12.904  63.847  1.00  0.00    -0.291 N  
HETATM    3  C   UNL     1     -12.332  13.229  65.219  1.00  0.00    -0.476 A  
HETATM    4  O   UNL     1     -12.421  13.798  63.010  1.00  0.00    -0.712 OA 
HETATM    5  N   UNL     1     -12.752  14.338  65.792  1.00  0.00    -0.423 NA 
HETATM    6  C   UNL     1     -12.264  14.273  67.072  1.00  0.00    -0.303 A  
HETATM    7  C   UNL     1     -11.532  13.122  67.261  1.00  0.00    -0.331 A  
HETATM    8  N   UNL     1     -11.599  12.443  66.067  1.00  0.00    -0.383 NA 
ENDROOT
BRANCH   8   9
HETATM    9  C   UNL     1     -10.903  11.203  65.774  1.00  0.00    -0.151 C  
BRANCH   9  10
HETATM   10  C   UNL     1     -10.177  10.656  66.985  1.00  0.00    -0.220 C  
HETATM   11  N   UNL     1     -10.919   9.821  67.785  1.00  0.00    -0.460 N  
HETATM   12  O   UNL     1      -9.005  10.947  67.214  1.00  0.00    -0.137 OA 
HETATM   13  H   UNL     1     -11.887   9.624  67.527  1.00  0.00     0.000 HD 
BRANCH  11  14
HETATM   14  C   UNL     1     -10.377   9.209  68.981  1.00  0.00    -0.215 C  
BRANCH  14  15
HETATM   15  C   UNL     1     -11.366   9.268  70.115  1.00  0.00    -0.193 A  
HETATM   16  C   UNL     1     -12.104  10.439  70.350  1.00  0.00    -0.402 A  
HETATM   17  C   UNL     1     -13.028  10.499  71.396  1.00  0.00    -0.542 A  
HETATM   18  C   UNL     1     -13.217   9.395  72.223  1.00  0.00    -0.528 A  
HETATM   19  C   UNL     1     -12.484   8.229  72.007  1.00  0.00    -0.393 A  
HETATM   20  C   UNL     1     -11.559   8.167  70.960  1.00  0.00    -0.301 A  
ENDBRANCH  14  15
ENDBRANCH  11  14
ENDBRANCH   9  10
ENDBRANCH   8   9
TORSDOF 4
ENDMDL
MODEL       49
REMARK 921   NORMALIZED FREE ENERGY PREDICTED BY IDOCK:   -5.41 KCAL/MOL
REMARK 922        TOTAL FREE ENERGY PREDICTED BY IDOCK:   -7.29 KCAL/MOL
REMARK 923 INTER-LIGAND FREE ENERGY PREDICTED BY IDOCK:   -6.51 KCAL/MOL
REMARK 924 INTRA-LIGAND FREE ENERGY PREDICTED BY IDOCK:   -0.78 KCAL/MOL
REMARK 927      BINDING AFFINITY PREDICTED BY RF-SCORE:    0.00 PKD
ROOT
HETATM    1  O   UNL     1      -8.307  16.278  66.040  1.00  0.00    -0.296 OA 
HETATM    2  N   UNL     1      -8.085  17.500  66.033  1.00  0.00    -0.188 N  
HETATM    3  C   UNL     1      -9.165  18.349  66.437  1.00  0.00    -0.273 A  
HETATM    4  O   UNL     1      -7.005  18.038  65.768  1.00  0.00    -0.378 OA 
HETATM    5  N   UNL     1      -9.465  19.482  65.837  1.00  0.00    -0.411 NA 
HETATM    6  C   UNL     1     -10.514  19.990  66.559  1.00  0.00    -0.404 A  
HETATM    7  C   UNL     1     -10.834  19.161  67.610  1.00  0.00    -0.369 A  
HETATM    8  N   UNL     1      -9.973  18.093  67.511  1.00  0.00    -0.318 NA 
ENDROOT
BRANCH   8   9
HETATM    9  C   UNL     1      -9.892  16.998  68.462  1.00  0.00    -0.290 C  
BRANCH   9  10
HETATM   10  C   UNL     1     -11.052  16.035  68.324  1.00  0.00    -0.351 C  
HETATM   11  N   UNL     1     -11.053  15.280  67.175  1.00  0.00    -0.336 N  
HETATM   12  O   UNL     1     -11.916  15.945  69.193  1.00  0.00    -0.380 OA 
HETATM   13  H   UNL     1     -10.298  15.409  66.501  1.00  0.00     0.000 HD 
BRANCH  11  14
HETATM   14  C   UNL     1     -12.088  14.307  66.887  1.00  0.00    -0.409 C  
BRANCH  14  15
HETATM   15  C   UNL     1     -11.538  12.906  66.928  1.00  0.00    -0.425 A  
HETATM   16  C   UNL     1     -10.799  12.403  65.845  1.00  0.00    -0.305 A  
HETATM   17  C   UNL     1     -10.280  11.107  65.880  1.00  0.00    -0.303 A  
HETATM   18  C   UNL     1     -10.503  10.296  66.989  1.00  0.00    -0.304 A  
HETATM   19  C   UNL     1     -11.245  10.778  68.067  1.00  0.00    -0.372 A  
HETATM   20  C   UNL     1     -11.764  12.077  68.035  1.00  0.00    -0.398 A  
ENDBRANCH  14  15
ENDBRANCH  11  14
ENDBRANCH   9  10
ENDBRANCH   8   9
TORSDOF 4
ENDMDL
MODEL       50
REMARK 921   NORMALIZED FREE ENERGY PREDICTED BY IDOCK:   -5.40 KCAL/MOL
REMARK 922        TOTAL FREE ENERGY PREDICTED BY IDOCK:   -7.28 KCAL/MOL
REMARK 923 INTER-LIGAND FREE ENERGY PREDICTED BY IDOCK:   -6.51 KCAL/MOL
REMARK 924 INTRA-LIGAND FREE ENERGY PREDICTED BY IDOCK:   -0.76 KCAL/MOL
REMARK 927      BINDING AFFINITY PREDICTED BY RF-SCORE:    0.00 PKD
ROOT
HETATM    1  O   UNL     1     -12.131  12.051  66.441  1.00  0.00    -0.610 OA 
HETATM    2  N   UNL     1     -12.319  13.276  66.354  1.00  0.00    -0.341 N  
HETATM    3  C   UNL     1     -11.617  14.099  67.292  1.00  0.00    -0.373 A  
HETATM    4  O   UNL     1     -13.005  13.843  65.498  1.00  0.00    -0.673 OA 
HETATM    5  N   UNL     1     -12.156  15.140  67.894  1.00  0.00    -0.054 NA 
HETATM    6  C   UNL     1     -11.143  15.662  68.656  1.00  0.00    -0.317 A  
HETATM    7  C   UNL     1      -9.984  14.937  68.496  1.00  0.00    -0.223 A  
HETATM    8  N   UNL     1     -10.304  13.917  67.632  1.00  0.00    -0.240 NA 
ENDROOT
BRANCH   8   9
HETATM    9  C   UNL     1      -9.363  12.941  67.110  1.00  0.00    -0.229 C  
BRANCH   9  10
HETATM   10  C   UNL     1      -8.967  11.917  68.152  1.00  0.00    -0.185 C  
HETATM   11  N   UNL     1     -10.010  11.229  68.725  1.00  0.00    -0.251 N  
HETATM   12  O   UNL     1      -7.788  11.725  68.445  1.00  0.00    -0.128 OA 
HETATM   13  H   UNL     1     -10.962  11.443  68.427  1.00  0.00     0.000 HD 
BRANCH  11  14
HETATM   14  C   UNL     1      -9.806  10.212  69.736  1.00  0.00    -0.208 C  
BRANCH  14  15
HETATM   15  C   UNL     1     -11.039  10.037  70.583  1.00  0.00    -0.408 A  
HETATM   16  C   UNL     1     -11.286   8.816  71.230  1.00  0.00    -0.357 A  
HETATM   17  C   UNL     1     -12.424   8.649  72.022  1.00  0.00    -0.433 A  
HETATM   18  C   UNL     1     -13.331   9.695  72.170  1.00  0.00    -0.545 A  
HETATM   19  C   UNL     1     -13.103  10.910  71.525  1.00  0.00    -0.503 A  
HETATM   20  C   UNL     1     -11.964  11.080  70.732  1.00  0.00    -0.436 A  
ENDBRANCH  14  15
ENDBRANCH  11  14
ENDBRANCH   9  10
ENDBRANCH   8   9
TORSDOF 4
ENDMDL
MODEL       51
REMARK 921   NORMALIZED FREE ENERGY PREDICTED BY IDOCK:   -5.39 KCAL/MOL
REMARK 922        TOTAL FREE ENERGY PREDICTED BY IDOCK:   -7.27 KCAL/MOL
REMARK 923 INTER-LIGAND FREE ENERGY PREDICTED BY IDOCK:   -6.76 KCAL/MOL
REMARK 924 INTRA-LIGAND FREE ENERGY PREDICTED BY IDOCK:   -0.51 KCAL/MOL
REMARK 927      BINDING AFFINITY PREDICTED BY RF-SCORE:    0.00 PKD
ROOT
HETATM    1  O   UNL     1      -6.794  16.988  67.129  1.00  0.00    -0.147 OA 
HETATM    2  N   UNL     1      -7.213  17.494  68.184  1.00  0.00    -0.208 N  
HETATM    3  C   UNL     1      -8.550  18.004  68.162  1.00  0.00    -0.273 A  
HETATM    4  O   UNL     1      -6.602  17.540  69.256  1.00  0.00    -0.237 OA 
HETATM    5  N   UNL     1      -8.907  19.137  68.731  1.00  0.00    -0.355 NA 
HETATM    6  C   UNL     1     -10.259  19.222  68.518  1.00  0.00    -0.383 A  
HETATM    7  C   UNL     1     -10.717  18.121  67.828  1.00  0.00    -0.335 A  
HETATM    8  N   UNL     1      -9.605  17.352  67.583  1.00  0.00    -0.257 NA 
ENDROOT
BRANCH   8   9
HETATM    9  C   UNL     1      -9.619  16.047  66.946  1.00  0.00    -0.226 C  
BRANCH   9  10
HETATM   10  C   UNL     1     -10.751  15.177  67.452  1.00  0.00    -0.286 C  
HETATM   11  N   UNL     1     -10.624  14.748  68.752  1.00  0.00    -0.244 N  
HETATM   12  O   UNL     1     -11.709  14.893  66.737  1.00  0.00    -0.335 OA 
HETATM   13  H   UNL     1      -9.800  15.029  69.284  1.00  0.00     0.000 HD 
BRANCH  11  14
HETATM   14  C   UNL     1     -11.619  13.913  69.393  1.00  0.00    -0.297 C  
BRANCH  14  15
HETATM   15  C   UNL     1     -12.053  14.502  70.709  1.00  0.00    -0.398 A  
HETATM   16  C   UNL     1     -11.427  15.655  71.210  1.00  0.00    -0.469 A  
HETATM   17  C   UNL     1     -11.831  16.210  72.426  1.00  0.00    -0.637 A  
HETATM   18  C   UNL     1     -12.855  15.617  73.158  1.00  0.00    -0.621 A  
HETATM   19  C   UNL     1     -13.479  14.466  72.678  1.00  0.00    -0.605 A  
HETATM   20  C   UNL     1     -13.077  13.908  71.460  1.00  0.00    -0.441 A  
ENDBRANCH  14  15
ENDBRANCH  11  14
ENDBRANCH   9  10
ENDBRANCH   8   9
TORSDOF 4
ENDMDL
MODEL       52
REMARK 921   NORMALIZED FREE ENERGY PREDICTED BY IDOCK:   -5.37 KCAL/MOL
REMARK 922        TOTAL FREE ENERGY PREDICTED BY IDOCK:   -7.25 KCAL/MOL
REMARK 923 INTER-LIGAND FREE ENERGY PREDICTED BY IDOCK:   -6.47 KCAL/MOL
REMARK 924 INTRA-LIGAND FREE ENERGY PREDICTED BY IDOCK:   -0.78 KCAL/MOL
REMARK 927      BINDING AFFINITY PREDICTED BY RF-SCORE:    0.00 PKD
ROOT
HETATM    1  O   UNL     1     -12.342  11.950  70.208  1.00  0.00    -0.274 OA 
HETATM    2  N   UNL     1     -12.813  11.399  71.217  1.00  0.00    -0.407 N  
HETATM    3  C   UNL     1     -12.758   9.969  71.250  1.00  0.00    -0.399 A  
HETATM    4  O   UNL     1     -13.267  11.976  72.210  1.00  0.00    -0.455 OA 
HETATM    5  N   UNL     1     -13.743   9.211  71.687  1.00  0.00    -0.387 NA 
HETATM    6  C   UNL     1     -13.264   7.930  71.591  1.00  0.00    -0.334 A  
HETATM    7  C   UNL     1     -11.975   7.923  71.107  1.00  0.00    -0.285 A  
HETATM    8  N   UNL     1     -11.664   9.241  70.868  1.00  0.00    -0.288 NA 
ENDROOT
BRANCH   8   9
HETATM    9  C   UNL     1     -10.369   9.723  70.422  1.00  0.00    -0.293 C  
BRANCH   9  10
HETATM   10  C   UNL     1     -10.164   9.517  68.936  1.00  0.00    -0.199 C  
HETATM   11  N   UNL     1     -10.613  10.540  68.135  1.00  0.00    -0.189 N  
HETATM   12  O   UNL     1      -9.626   8.502  68.498  1.00  0.00    -0.148 OA 
HETATM   13  H   UNL     1     -11.047  11.353  68.573  1.00  0.00     0.000 HD 
BRANCH  11  14
HETATM   14  C   UNL     1     -10.491  10.506  66.692  1.00  0.00    -0.228 C  
BRANCH  14  15
HETATM   15  C   UNL     1     -11.098  11.735  66.069  1.00  0.00    -0.363 A  
HETATM   16  C   UNL     1     -11.745  12.689  66.870  1.00  0.00    -0.453 A  
HETATM   17  C   UNL     1     -12.304  13.835  66.299  1.00  0.00    -0.479 A  
HETATM   18  C   UNL     1     -12.231  14.034  64.923  1.00  0.00    -0.455 A  
HETATM   19  C   UNL     1     -11.601  13.090  64.115  1.00  0.00    -0.462 A  
HETATM   20  C   UNL     1     -11.040  11.942  64.684  1.00  0.00    -0.373 A  
ENDBRANCH  14  15
ENDBRANCH  11  14
ENDBRANCH   9  10
ENDBRANCH   8   9
TORSDOF 4
ENDMDL
MODEL       53
REMARK 921   NORMALIZED FREE ENERGY PREDICTED BY IDOCK:   -5.36 KCAL/MOL
REMARK 922        TOTAL FREE ENERGY PREDICTED BY IDOCK:   -7.22 KCAL/MOL
REMARK 923 INTER-LIGAND FREE ENERGY PREDICTED BY IDOCK:   -7.01 KCAL/MOL
REMARK 924 INTRA-LIGAND FREE ENERGY PREDICTED BY IDOCK:   -0.21 KCAL/MOL
REMARK 927      BINDING AFFINITY PREDICTED BY RF-SCORE:    0.00 PKD
ROOT
HETATM    1  O   UNL     1      -9.506  10.537  66.428  1.00  0.00    -0.164 OA 
HETATM    2  N   UNL     1     -10.153   9.642  66.997  1.00  0.00    -0.200 N  
HETATM    3  C   UNL     1     -10.873  10.023  68.174  1.00  0.00    -0.255 A  
HETATM    4  O   UNL     1     -10.277   8.478  66.604  1.00  0.00    -0.288 OA 
HETATM    5  N   UNL     1     -10.937   9.281  69.261  1.00  0.00    -0.146 NA 
HETATM    6  C   UNL     1     -11.750   9.983  70.113  1.00  0.00    -0.215 A  
HETATM    7  C   UNL     1     -12.190  11.147  69.524  1.00  0.00    -0.277 A  
HETATM    8  N   UNL     1     -11.601  11.176  68.282  1.00  0.00    -0.437 NA 
ENDROOT
BRANCH   8   9
HETATM    9  C   UNL     1     -11.842  12.190  67.270  1.00  0.00    -0.223 C  
BRANCH   9  10
HETATM   10  C   UNL     1     -11.414  13.568  67.730  1.00  0.00    -0.315 C  
HETATM   11  N   UNL     1     -12.259  14.176  68.627  1.00  0.00    -0.554 N  
HETATM   12  O   UNL     1     -10.375  14.085  67.323  1.00  0.00    -0.260 OA 
HETATM   13  H   UNL     1     -13.102  13.681  68.922  1.00  0.00     0.000 HD 
BRANCH  11  14
HETATM   14  C   UNL     1     -11.997  15.493  69.170  1.00  0.00    -0.309 C  
BRANCH  14  15
HETATM   15  C   UNL     1     -12.451  15.587  70.603  1.00  0.00    -0.483 A  
HETATM   16  C   UNL     1     -11.607  16.142  71.578  1.00  0.00    -0.502 A  
HETATM   17  C   UNL     1     -12.025  16.239  72.907  1.00  0.00    -0.615 A  
HETATM   18  C   UNL     1     -13.284  15.774  73.278  1.00  0.00    -0.687 A  
HETATM   19  C   UNL     1     -14.128  15.211  72.322  1.00  0.00    -0.633 A  
HETATM   20  C   UNL     1     -13.712  15.114  70.990  1.00  0.00    -0.450 A  
ENDBRANCH  14  15
ENDBRANCH  11  14
ENDBRANCH   9  10
ENDBRANCH   8   9
TORSDOF 4
ENDMDL
MODEL       54
REMARK 921   NORMALIZED FREE ENERGY PREDICTED BY IDOCK:   -5.34 KCAL/MOL
REMARK 922        TOTAL FREE ENERGY PREDICTED BY IDOCK:   -7.20 KCAL/MOL
REMARK 923 INTER-LIGAND FREE ENERGY PREDICTED BY IDOCK:   -7.04 KCAL/MOL
REMARK 924 INTRA-LIGAND FREE ENERGY PREDICTED BY IDOCK:   -0.17 KCAL/MOL
REMARK 927      BINDING AFFINITY PREDICTED BY RF-SCORE:    0.00 PKD
ROOT
HETATM    1  O   UNL     1     -11.401  11.271  70.330  1.00  0.00    -0.248 OA 
HETATM    2  N   UNL     1     -12.314  11.896  70.896  1.00  0.00    -0.356 N  
HETATM    3  C   UNL     1     -12.329  13.315  70.709  1.00  0.00    -0.344 A  
HETATM    4  O   UNL     1     -13.235  11.397  71.550  1.00  0.00    -0.373 OA 
HETATM    5  N   UNL     1     -12.594  14.174  71.672  1.00  0.00    -0.341 NA 
HETATM    6  C   UNL     1     -12.551  15.402  71.063  1.00  0.00    -0.431 A  
HETATM    7  C   UNL     1     -12.274  15.275  69.720  1.00  0.00    -0.294 A  
HETATM    8  N   UNL     1     -12.110  13.927  69.505  1.00  0.00    -0.338 NA 
ENDROOT
BRANCH   8   9
HETATM    9  C   UNL     1     -11.880  13.313  68.209  1.00  0.00    -0.354 C  
BRANCH   9  10
HETATM   10  C   UNL     1     -11.791  14.340  67.099  1.00  0.00    -0.425 C  
HETATM   11  N   UNL     1     -10.671  15.136  67.125  1.00  0.00    -0.303 N  
HETATM   12  O   UNL     1     -12.667  14.432  66.241  1.00  0.00    -0.286 OA 
HETATM   13  H   UNL     1      -9.986  14.997  67.868  1.00  0.00     0.000 HD 
BRANCH  11  14
HETATM   14  C   UNL     1     -10.428  16.166  66.136  1.00  0.00    -0.325 C  
BRANCH  14  15
HETATM   15  C   UNL     1     -10.258  17.512  66.787  1.00  0.00    -0.327 A  
HETATM   16  C   UNL     1     -10.583  18.685  66.087  1.00  0.00    -0.409 A  
HETATM   17  C   UNL     1     -10.433  19.937  66.688  1.00  0.00    -0.580 A  
HETATM   18  C   UNL     1      -9.949  20.031  67.989  1.00  0.00    -0.550 A  
HETATM   19  C   UNL     1      -9.612  18.876  68.693  1.00  0.00    -0.443 A  
HETATM   20  C   UNL     1      -9.762  17.622  68.094  1.00  0.00    -0.310 A  
ENDBRANCH  14  15
ENDBRANCH  11  14
ENDBRANCH   9  10
ENDBRANCH   8   9
TORSDOF 4
ENDMDL
MODEL       55
REMARK 921   NORMALIZED FREE ENERGY PREDICTED BY IDOCK:   -5.34 KCAL/MOL
REMARK 922        TOTAL FREE ENERGY PREDICTED BY IDOCK:   -7.20 KCAL/MOL
REMARK 923 INTER-LIGAND FREE ENERGY PREDICTED BY IDOCK:   -6.85 KCAL/MOL
REMARK 924 INTRA-LIGAND FREE ENERGY PREDICTED BY IDOCK:   -0.35 KCAL/MOL
REMARK 927      BINDING AFFINITY PREDICTED BY RF-SCORE:    0.00 PKD
ROOT
HETATM    1  O   UNL     1     -12.320  15.951  69.863  1.00  0.00    -0.290 OA 
HETATM    2  N   UNL     1     -12.310  15.651  71.068  1.00  0.00    -0.402 N  
HETATM    3  C   UNL     1     -12.742  14.328  71.402  1.00  0.00    -0.352 A  
HETATM    4  O   UNL     1     -11.908  16.369  71.989  1.00  0.00    -0.511 OA 
HETATM    5  N   UNL     1     -13.509  14.050  72.436  1.00  0.00    -0.494 NA 
HETATM    6  C   UNL     1     -13.639  12.685  72.416  1.00  0.00    -0.333 A  
HETATM    7  C   UNL     1     -12.930  12.140  71.369  1.00  0.00    -0.257 A  
HETATM    8  N   UNL     1     -12.373  13.208  70.706  1.00  0.00    -0.360 NA 
ENDROOT
BRANCH   8   9
HETATM    9  C   UNL     1     -11.470  13.106  69.574  1.00  0.00    -0.226 C  
BRANCH   9  10
HETATM   10  C   UNL     1     -11.345  11.683  69.071  1.00  0.00    -0.275 C  
HETATM   11  N   UNL     1     -10.291  10.969  69.587  1.00  0.00    -0.446 N  
HETATM   12  O   UNL     1     -12.146  11.218  68.263  1.00  0.00    -0.619 OA 
HETATM   13  H   UNL     1      -9.670  11.423  70.257  1.00  0.00     0.000 HD 
BRANCH  11  14
HETATM   14  C   UNL     1     -10.029   9.593  69.214  1.00  0.00    -0.191 C  
BRANCH  14  15
HETATM   15  C   UNL     1     -10.683   8.639  70.177  1.00  0.00    -0.244 A  
HETATM   16  C   UNL     1     -11.032   7.343  69.764  1.00  0.00    -0.215 A  
HETATM   17  C   UNL     1     -11.632   6.450  70.655  1.00  0.00    -0.412 A  
HETATM   18  C   UNL     1     -11.900   6.845  71.963  1.00  0.00    -0.345 A  
HETATM   19  C   UNL     1     -11.569   8.132  72.384  1.00  0.00    -0.463 A  
HETATM   20  C   UNL     1     -10.967   9.027  71.494  1.00  0.00    -0.418 A  
ENDBRANCH  14  15
ENDBRANCH  11  14
ENDBRANCH   9  10
ENDBRANCH   8   9
TORSDOF 4
ENDMDL
MODEL       56
REMARK 921   NORMALIZED FREE ENERGY PREDICTED BY IDOCK:   -5.32 KCAL/MOL
REMARK 922        TOTAL FREE ENERGY PREDICTED BY IDOCK:   -7.19 KCAL/MOL
REMARK 923 INTER-LIGAND FREE ENERGY PREDICTED BY IDOCK:   -6.49 KCAL/MOL
REMARK 924 INTRA-LIGAND FREE ENERGY PREDICTED BY IDOCK:   -0.69 KCAL/MOL
REMARK 927      BINDING AFFINITY PREDICTED BY RF-SCORE:    0.00 PKD
ROOT
HETATM    1  O   UNL     1     -12.981  12.016  71.765  1.00  0.00    -0.405 OA 
HETATM    2  N   UNL     1     -13.351  13.200  71.845  1.00  0.00    -0.458 N  
HETATM    3  C   UNL     1     -12.510  14.176  71.221  1.00  0.00    -0.370 A  
HETATM    4  O   UNL     1     -14.400  13.596  72.361  1.00  0.00    -0.661 OA 
HETATM    5  N   UNL     1     -12.228  15.345  71.758  1.00  0.00    -0.341 NA 
HETATM    6  C   UNL     1     -11.447  15.976  70.824  1.00  0.00    -0.414 A  
HETATM    7  C   UNL     1     -11.273  15.183  69.712  1.00  0.00    -0.279 A  
HETATM    8  N   UNL     1     -11.944  14.014  69.985  1.00  0.00    -0.318 NA 
ENDROOT
BRANCH   8   9
HETATM    9  C   UNL     1     -12.101  12.908  69.058  1.00  0.00    -0.154 C  
BRANCH   9  10
HETATM   10  C   UNL     1     -10.914  11.969  69.084  1.00  0.00    -0.178 C  
HETATM   11  N   UNL     1     -11.065  10.855  69.875  1.00  0.00    -0.384 N  
HETATM   12  O   UNL     1      -9.899  12.201  68.431  1.00  0.00    -0.209 OA 
HETATM   13  H   UNL     1     -11.939  10.729  70.385  1.00  0.00     0.000 HD 
BRANCH  11  14
HETATM   14  C   UNL     1     -10.027   9.853  70.010  1.00  0.00    -0.254 C  
BRANCH  14  15
HETATM   15  C   UNL     1     -10.357   8.622  69.208  1.00  0.00    -0.228 A  
HETATM   16  C   UNL     1     -10.261   8.642  67.808  1.00  0.00    -0.282 A  
HETATM   17  C   UNL     1     -10.559   7.501  67.059  1.00  0.00    -0.409 A  
HETATM   18  C   UNL     1     -10.965   6.334  67.698  1.00  0.00    -0.438 A  
HETATM   19  C   UNL     1     -11.075   6.302  69.088  1.00  0.00    -0.457 A  
HETATM   20  C   UNL     1     -10.777   7.443  69.840  1.00  0.00    -0.254 A  
ENDBRANCH  14  15
ENDBRANCH  11  14
ENDBRANCH   9  10
ENDBRANCH   8   9
TORSDOF 4
ENDMDL
MODEL       57
REMARK 921   NORMALIZED FREE ENERGY PREDICTED BY IDOCK:   -5.31 KCAL/MOL
REMARK 922        TOTAL FREE ENERGY PREDICTED BY IDOCK:   -7.17 KCAL/MOL
REMARK 923 INTER-LIGAND FREE ENERGY PREDICTED BY IDOCK:   -6.76 KCAL/MOL
REMARK 924 INTRA-LIGAND FREE ENERGY PREDICTED BY IDOCK:   -0.41 KCAL/MOL
REMARK 927      BINDING AFFINITY PREDICTED BY RF-SCORE:    0.00 PKD
ROOT
HETATM    1  O   UNL     1      -9.952   7.653  70.223  1.00  0.00    -0.187 OA 
HETATM    2  N   UNL     1     -11.169   7.408  70.278  1.00  0.00    -0.267 N  
HETATM    3  C   UNL     1     -11.970   8.316  71.042  1.00  0.00    -0.241 A  
HETATM    4  O   UNL     1     -11.750   6.492  69.688  1.00  0.00    -0.357 OA 
HETATM    5  N   UNL     1     -12.944   7.933  71.842  1.00  0.00    -0.316 NA 
HETATM    6  C   UNL     1     -13.471   9.101  72.330  1.00  0.00    -0.486 A  
HETATM    7  C   UNL     1     -12.817  10.193  71.804  1.00  0.00    -0.452 A  
HETATM    8  N   UNL     1     -11.835   9.677  70.992  1.00  0.00    -0.322 NA 
ENDROOT
BRANCH   8   9
HETATM    9  C   UNL     1     -10.942  10.466  70.162  1.00  0.00    -0.300 C  
BRANCH   9  10
HETATM   10  C   UNL     1     -11.686  11.504  69.348  1.00  0.00    -0.346 C  
HETATM   11  N   UNL     1     -11.484  12.807  69.733  1.00  0.00    -0.492 N  
HETATM   12  O   UNL     1     -12.409  11.181  68.408  1.00  0.00    -0.556 OA 
HETATM   13  H   UNL     1     -10.866  12.997  70.522  1.00  0.00     0.000 HD 
BRANCH  11  14
HETATM   14  C   UNL     1     -12.118  13.922  69.059  1.00  0.00    -0.329 C  
BRANCH  14  15
HETATM   15  C   UNL     1     -11.425  14.231  67.758  1.00  0.00    -0.354 A  
HETATM   16  C   UNL     1     -12.141  14.203  66.551  1.00  0.00    -0.481 A  
HETATM   17  C   UNL     1     -11.506  14.495  65.341  1.00  0.00    -0.348 A  
HETATM   18  C   UNL     1     -10.150  14.809  65.324  1.00  0.00    -0.388 A  
HETATM   19  C   UNL     1      -9.424  14.831  66.515  1.00  0.00    -0.316 A  
HETATM   20  C   UNL     1     -10.058  14.539  67.727  1.00  0.00    -0.225 A  
ENDBRANCH  14  15
ENDBRANCH  11  14
ENDBRANCH   9  10
ENDBRANCH   8   9
TORSDOF 4
ENDMDL
MODEL       58
REMARK 921   NORMALIZED FREE ENERGY PREDICTED BY IDOCK:   -5.22 KCAL/MOL
REMARK 922        TOTAL FREE ENERGY PREDICTED BY IDOCK:   -7.06 KCAL/MOL
REMARK 923 INTER-LIGAND FREE ENERGY PREDICTED BY IDOCK:   -6.58 KCAL/MOL
REMARK 924 INTRA-LIGAND FREE ENERGY PREDICTED BY IDOCK:   -0.48 KCAL/MOL
REMARK 927      BINDING AFFINITY PREDICTED BY RF-SCORE:    0.00 PKD
ROOT
HETATM    1  O   UNL     1     -14.383  14.965  71.539  1.00  0.00    -0.469 OA 
HETATM    2  N   UNL     1     -13.529  14.215  72.040  1.00  0.00    -0.391 N  
HETATM    3  C   UNL     1     -12.834  13.345  71.140  1.00  0.00    -0.291 A  
HETATM    4  O   UNL     1     -13.190  14.197  73.227  1.00  0.00    -0.584 OA 
HETATM    5  N   UNL     1     -12.550  12.088  71.415  1.00  0.00    -0.285 NA 
HETATM    6  C   UNL     1     -11.849  11.645  70.323  1.00  0.00    -0.326 A  
HETATM    7  C   UNL     1     -11.699  12.650  69.394  1.00  0.00    -0.325 A  
HETATM    8  N   UNL     1     -12.357  13.737  69.919  1.00  0.00    -0.308 NA 
ENDROOT
BRANCH   8   9
HETATM    9  C   UNL     1     -12.395  15.057  69.316  1.00  0.00    -0.094 C  
BRANCH   9  10
HETATM   10  C   UNL     1     -11.011  15.568  68.972  1.00  0.00    -0.256 C  
HETATM   11  N   UNL     1     -10.796  15.826  67.639  1.00  0.00    -0.308 N  
HETATM   12  O   UNL     1     -10.158  15.740  69.840  1.00  0.00    -0.275 OA 
HETATM   13  H   UNL     1     -11.555  15.662  66.978  1.00  0.00     0.000 HD 
BRANCH  11  14
HETATM   14  C   UNL     1      -9.530  16.323  67.140  1.00  0.00    -0.224 C  
BRANCH  14  15
HETATM   15  C   UNL     1      -9.511  17.828  67.119  1.00  0.00    -0.265 A  
HETATM   16  C   UNL     1      -8.744  18.540  68.055  1.00  0.00    -0.313 A  
HETATM   17  C   UNL     1      -8.716  19.937  68.036  1.00  0.00    -0.322 A  
HETATM   18  C   UNL     1      -9.460  20.636  67.090  1.00  0.00    -0.505 A  
HETATM   19  C   UNL     1     -10.234  19.942  66.161  1.00  0.00    -0.611 A  
HETATM   20  C   UNL     1     -10.263  18.544  66.178  1.00  0.00    -0.424 A  
ENDBRANCH  14  15
ENDBRANCH  11  14
ENDBRANCH   9  10
ENDBRANCH   8   9
TORSDOF 4
ENDMDL
MODEL       59
REMARK 921   NORMALIZED FREE ENERGY PREDICTED BY IDOCK:   -5.21 KCAL/MOL
REMARK 922        TOTAL FREE ENERGY PREDICTED BY IDOCK:   -7.05 KCAL/MOL
REMARK 923 INTER-LIGAND FREE ENERGY PREDICTED BY IDOCK:   -6.36 KCAL/MOL
REMARK 924 INTRA-LIGAND FREE ENERGY PREDICTED BY IDOCK:   -0.69 KCAL/MOL
REMARK 927      BINDING AFFINITY PREDICTED BY RF-SCORE:    0.00 PKD
ROOT
HETATM    1  O   UNL     1     -10.275  14.850  68.609  1.00  0.00    -0.222 OA 
HETATM    2  N   UNL     1     -11.335  14.263  68.336  1.00  0.00    -0.268 N  
HETATM    3  C   UNL     1     -11.437  13.704  67.022  1.00  0.00    -0.343 A  
HETATM    4  O   UNL     1     -12.276  14.071  69.113  1.00  0.00    -0.346 OA 
HETATM    5  N   UNL     1     -12.529  13.764  66.287  1.00  0.00    -0.424 NA 
HETATM    6  C   UNL     1     -12.215  13.076  65.143  1.00  0.00    -0.459 A  
HETATM    7  C   UNL     1     -10.930  12.586  65.202  1.00  0.00    -0.297 A  
HETATM    8  N   UNL     1     -10.427  13.015  66.407  1.00  0.00    -0.273 NA 
ENDROOT
BRANCH   8   9
HETATM    9  C   UNL     1      -9.120  12.666  66.935  1.00  0.00    -0.218 C  
BRANCH   9  10
HETATM   10  C   UNL     1      -9.103  11.281  67.548  1.00  0.00    -0.151 C  
HETATM   11  N   UNL     1      -9.346  11.235  68.900  1.00  0.00    -0.363 N  
HETATM   12  O   UNL     1      -8.893  10.282  66.864  1.00  0.00    -0.132 OA 
HETATM   13  H   UNL     1      -9.516  12.109  69.399  1.00  0.00     0.000 HD 
BRANCH  11  14
HETATM   14  C   UNL     1      -9.369   9.991  69.642  1.00  0.00    -0.220 C  
BRANCH  14  15
HETATM   15  C   UNL     1     -10.646   9.854  70.428  1.00  0.00    -0.364 A  
HETATM   16  C   UNL     1     -11.695  10.767  70.239  1.00  0.00    -0.442 A  
HETATM   17  C   UNL     1     -12.885  10.642  70.961  1.00  0.00    -0.496 A  
HETATM   18  C   UNL     1     -13.034   9.611  71.884  1.00  0.00    -0.527 A  
HETATM   19  C   UNL     1     -11.997   8.703  72.090  1.00  0.00    -0.449 A  
HETATM   20  C   UNL     1     -10.805   8.827  71.368  1.00  0.00    -0.359 A  
ENDBRANCH  14  15
ENDBRANCH  11  14
ENDBRANCH   9  10
ENDBRANCH   8   9
TORSDOF 4
ENDMDL
MODEL       60
REMARK 921   NORMALIZED FREE ENERGY PREDICTED BY IDOCK:   -5.20 KCAL/MOL
REMARK 922        TOTAL FREE ENERGY PREDICTED BY IDOCK:   -7.03 KCAL/MOL
REMARK 923 INTER-LIGAND FREE ENERGY PREDICTED BY IDOCK:   -6.29 KCAL/MOL
REMARK 924 INTRA-LIGAND FREE ENERGY PREDICTED BY IDOCK:   -0.74 KCAL/MOL
REMARK 927      BINDING AFFINITY PREDICTED BY RF-SCORE:    0.00 PKD
ROOT
HETATM    1  O   UNL     1     -12.128  14.085  65.491  1.00  0.00    -0.370 OA 
HETATM    2  N   UNL     1     -12.348  13.006  64.915  1.00  0.00    -0.441 N  
HETATM    3  C   UNL     1     -11.206  12.195  64.620  1.00  0.00    -0.323 A  
HETATM    4  O   UNL     1     -13.460  12.551  64.631  1.00  0.00    -0.639 OA 
HETATM    5  N   UNL     1     -11.049  11.542  63.486  1.00  0.00    -0.396 NA 
HETATM    6  C   UNL     1      -9.866  10.866  63.637  1.00  0.00    -0.351 A  
HETATM    7  C   UNL     1      -9.318  11.104  64.877  1.00  0.00    -0.194 A  
HETATM    8  N   UNL     1     -10.177  11.980  65.497  1.00  0.00    -0.250 NA 
ENDROOT
BRANCH   8   9
HETATM    9  C   UNL     1     -10.043  12.452  66.863  1.00  0.00    -0.219 C  
BRANCH   9  10
HETATM   10  C   UNL     1      -8.911  13.447  67.015  1.00  0.00    -0.224 C  
HETATM   11  N   UNL     1      -9.131  14.676  66.441  1.00  0.00    -0.435 N  
HETATM   12  O   UNL     1      -7.881  13.157  67.619  1.00  0.00    -0.142 OA 
HETATM   13  H   UNL     1     -10.014  14.843  65.959  1.00  0.00     0.000 HD 
BRANCH  11  14
HETATM   14  C   UNL     1      -8.153  15.744  66.497  1.00  0.00    -0.196 C  
BRANCH  14  15
HETATM   15  C   UNL     1      -8.773  17.020  67.000  1.00  0.00    -0.240 A  
HETATM   16  C   UNL     1      -8.086  17.827  67.921  1.00  0.00    -0.235 A  
HETATM   17  C   UNL     1      -8.653  19.015  68.386  1.00  0.00    -0.383 A  
HETATM   18  C   UNL     1      -9.915  19.405  67.946  1.00  0.00    -0.483 A  
HETATM   19  C   UNL     1     -10.613  18.608  67.040  1.00  0.00    -0.448 A  
HETATM   20  C   UNL     1     -10.047  17.418  66.572  1.00  0.00    -0.320 A  
ENDBRANCH  14  15
ENDBRANCH  11  14
ENDBRANCH   9  10
ENDBRANCH   8   9
TORSDOF 4
ENDMDL
MODEL       61
REMARK 921   NORMALIZED FREE ENERGY PREDICTED BY IDOCK:   -5.20 KCAL/MOL
REMARK 922        TOTAL FREE ENERGY PREDICTED BY IDOCK:   -7.03 KCAL/MOL
REMARK 923 INTER-LIGAND FREE ENERGY PREDICTED BY IDOCK:   -6.69 KCAL/MOL
REMARK 924 INTRA-LIGAND FREE ENERGY PREDICTED BY IDOCK:   -0.34 KCAL/MOL
REMARK 927      BINDING AFFINITY PREDICTED BY RF-SCORE:    0.00 PKD
ROOT
HETATM    1  O   UNL     1     -12.588  14.094  63.365  1.00  0.00    -0.818 OA 
HETATM    2  N   UNL     1     -12.525  12.952  63.848  1.00  0.00    -0.359 N  
HETATM    3  C   UNL     1     -11.407  12.678  64.699  1.00  0.00    -0.318 A  
HETATM    4  O   UNL     1     -13.367  12.059  63.707  1.00  0.00    -0.681 OA 
HETATM    5  N   UNL     1     -10.732  11.547  64.675  1.00  0.00    -0.309 NA 
HETATM    6  C   UNL     1      -9.793  11.682  65.665  1.00  0.00    -0.240 A  
HETATM    7  C   UNL     1      -9.918  12.898  66.297  1.00  0.00    -0.270 A  
HETATM    8  N   UNL     1     -10.947  13.544  65.653  1.00  0.00    -0.287 NA 
ENDROOT
BRANCH   8   9
HETATM    9  C   UNL     1     -11.487  14.836  66.036  1.00  0.00    -0.316 C  
BRANCH   9  10
HETATM   10  C   UNL     1     -10.612  15.981  65.571  1.00  0.00    -0.398 C  
HETATM   11  N   UNL     1      -9.536  16.263  66.378  1.00  0.00    -0.271 N  
HETATM   12  O   UNL     1     -10.860  16.597  64.536  1.00  0.00    -0.847 OA 
HETATM   13  H   UNL     1      -9.394  15.705  67.220  1.00  0.00     0.000 HD 
BRANCH  11  14
HETATM   14  C   UNL     1      -8.597  17.324  66.077  1.00  0.00    -0.092 C  
BRANCH  14  15
HETATM   15  C   UNL     1      -7.861  17.763  67.315  1.00  0.00    -0.225 A  
HETATM   16  C   UNL     1      -7.063  16.851  68.025  1.00  0.00    -0.163 A  
HETATM   17  C   UNL     1      -6.372  17.254  69.171  1.00  0.00    -0.229 A  
HETATM   18  C   UNL     1      -6.479  18.565  69.624  1.00  0.00    -0.175 A  
HETATM   19  C   UNL     1      -7.277  19.478  68.936  1.00  0.00    -0.397 A  
HETATM   20  C   UNL     1      -7.968  19.078  67.788  1.00  0.00    -0.292 A  
ENDBRANCH  14  15
ENDBRANCH  11  14
ENDBRANCH   9  10
ENDBRANCH   8   9
TORSDOF 4
ENDMDL
MODEL       62
REMARK 921   NORMALIZED FREE ENERGY PREDICTED BY IDOCK:   -5.20 KCAL/MOL
REMARK 922        TOTAL FREE ENERGY PREDICTED BY IDOCK:   -7.03 KCAL/MOL
REMARK 923 INTER-LIGAND FREE ENERGY PREDICTED BY IDOCK:   -6.45 KCAL/MOL
REMARK 924 INTRA-LIGAND FREE ENERGY PREDICTED BY IDOCK:   -0.58 KCAL/MOL
REMARK 927      BINDING AFFINITY PREDICTED BY RF-SCORE:    0.00 PKD
ROOT
HETATM    1  O   UNL     1     -11.231  10.376  69.464  1.00  0.00    -0.238 OA 
HETATM    2  N   UNL     1     -10.682   9.471  68.812  1.00  0.00    -0.214 N  
HETATM    3  C   UNL     1     -10.203   9.822  67.510  1.00  0.00    -0.220 A  
HETATM    4  O   UNL     1     -10.465   8.323  69.210  1.00  0.00    -0.217 OA 
HETATM    5  N   UNL     1     -10.327   9.044  66.453  1.00  0.00    -0.223 NA 
HETATM    6  C   UNL     1      -9.701   9.728  65.443  1.00  0.00    -0.313 A  
HETATM    7  C   UNL     1      -9.182  10.918  65.904  1.00  0.00    -0.191 A  
HETATM    8  N   UNL     1      -9.530  10.981  67.232  1.00  0.00    -0.163 NA 
ENDROOT
BRANCH   8   9
HETATM    9  C   UNL     1      -9.125  12.031  68.150  1.00  0.00    -0.191 C  
BRANCH   9  10
HETATM   10  C   UNL     1     -10.040  13.236  68.078  1.00  0.00    -0.235 C  
HETATM   11  N   UNL     1     -10.785  13.475  69.208  1.00  0.00    -0.441 N  
HETATM   12  O   UNL     1     -10.091  13.941  67.072  1.00  0.00    -0.249 OA 
HETATM   13  H   UNL     1     -10.684  12.846  70.005  1.00  0.00     0.000 HD 
BRANCH  11  14
HETATM   14  C   UNL     1     -11.707  14.588  69.308  1.00  0.00    -0.310 C  
BRANCH  14  15
HETATM   15  C   UNL     1     -12.083  14.851  70.742  1.00  0.00    -0.377 A  
HETATM   16  C   UNL     1     -12.888  13.938  71.442  1.00  0.00    -0.439 A  
HETATM   17  C   UNL     1     -13.235  14.173  72.774  1.00  0.00    -0.604 A  
HETATM   18  C   UNL     1     -12.791  15.324  73.418  1.00  0.00    -0.667 A  
HETATM   19  C   UNL     1     -11.999  16.244  72.732  1.00  0.00    -0.636 A  
HETATM   20  C   UNL     1     -11.650  16.011  71.398  1.00  0.00    -0.520 A  
ENDBRANCH  14  15
ENDBRANCH  11  14
ENDBRANCH   9  10
ENDBRANCH   8   9
TORSDOF 4
ENDMDL
MODEL       63
REMARK 921   NORMALIZED FREE ENERGY PREDICTED BY IDOCK:   -5.20 KCAL/MOL
REMARK 922        TOTAL FREE ENERGY PREDICTED BY IDOCK:   -7.03 KCAL/MOL
REMARK 923 INTER-LIGAND FREE ENERGY PREDICTED BY IDOCK:   -6.27 KCAL/MOL
REMARK 924 INTRA-LIGAND FREE ENERGY PREDICTED BY IDOCK:   -0.76 KCAL/MOL
REMARK 927      BINDING AFFINITY PREDICTED BY RF-SCORE:    0.00 PKD
ROOT
HETATM    1  O   UNL     1     -13.033  13.503  65.029  1.00  0.00    -0.719 OA 
HETATM    2  N   UNL     1     -12.581  12.553  64.369  1.00  0.00    -0.450 N  
HETATM    3  C   UNL     1     -11.344  11.992  64.821  1.00  0.00    -0.313 A  
HETATM    4  O   UNL     1     -13.130  12.018  63.402  1.00  0.00    -0.747 OA 
HETATM    5  N   UNL     1     -10.371  11.625  64.012  1.00  0.00    -0.320 NA 
HETATM    6  C   UNL     1      -9.409  11.106  64.839  1.00  0.00    -0.194 A  
HETATM    7  C   UNL     1      -9.817  11.147  66.153  1.00  0.00    -0.225 A  
HETATM    8  N   UNL     1     -11.056  11.741  66.135  1.00  0.00    -0.310 NA 
ENDROOT
BRANCH   8   9
HETATM    9  C   UNL     1     -11.909  11.924  67.297  1.00  0.00    -0.148 C  
BRANCH   9  10
HETATM   10  C   UNL     1     -11.455  13.080  68.162  1.00  0.00    -0.319 C  
HETATM   11  N   UNL     1     -12.115  14.267  67.949  1.00  0.00    -0.567 N  
HETATM   12  O   UNL     1     -10.561  12.944  68.996  1.00  0.00    -0.167 OA 
HETATM   13  H   UNL     1     -12.849  14.301  67.241  1.00  0.00     0.000 HD 
BRANCH  11  14
HETATM   14  C   UNL     1     -11.807  15.470  68.694  1.00  0.00    -0.300 C  
BRANCH  14  15
HETATM   15  C   UNL     1     -10.601  16.167  68.121  1.00  0.00    -0.290 A  
HETATM   16  C   UNL     1     -10.635  16.680  66.814  1.00  0.00    -0.214 A  
HETATM   17  C   UNL     1      -9.522  17.334  66.279  1.00  0.00    -0.256 A  
HETATM   18  C   UNL     1      -8.364  17.473  67.037  1.00  0.00    -0.239 A  
HETATM   19  C   UNL     1      -8.313  16.960  68.333  1.00  0.00    -0.238 A  
HETATM   20  C   UNL     1      -9.426  16.306  68.871  1.00  0.00    -0.252 A  
ENDBRANCH  14  15
ENDBRANCH  11  14
ENDBRANCH   9  10
ENDBRANCH   8   9
TORSDOF 4
ENDMDL
MODEL       64
REMARK 921   NORMALIZED FREE ENERGY PREDICTED BY IDOCK:   -5.18 KCAL/MOL
REMARK 922        TOTAL FREE ENERGY PREDICTED BY IDOCK:   -7.01 KCAL/MOL
REMARK 923 INTER-LIGAND FREE ENERGY PREDICTED BY IDOCK:   -6.57 KCAL/MOL
REMARK 924 INTRA-LIGAND FREE ENERGY PREDICTED BY IDOCK:   -0.44 KCAL/MOL
REMARK 927      BINDING AFFINITY PREDICTED BY RF-SCORE:    0.00 PKD
ROOT
HETATM    1  O   UNL     1     -12.640  11.978  65.435  1.00  0.00    -0.340 OA 
HETATM    2  N   UNL     1     -12.553  12.641  64.388  1.00  0.00    -0.415 N  
HETATM    3  C   UNL     1     -12.039  13.971  64.513  1.00  0.00    -0.459 A  
HETATM    4  O   UNL     1     -12.814  12.235  63.251  1.00  0.00    -0.719 OA 
HETATM    5  N   UNL     1     -12.531  15.007  63.865  1.00  0.00    -0.744 NA 
HETATM    6  C   UNL     1     -11.729  16.057  64.230  1.00  0.00    -0.081 A  
HETATM    7  C   UNL     1     -10.739  15.642  65.092  1.00  0.00    -0.443 A  
HETATM    8  N   UNL     1     -10.959  14.299  65.287  1.00  0.00    -0.324 NA 
ENDROOT
BRANCH   8   9
HETATM    9  C   UNL     1     -10.106  13.421  66.067  1.00  0.00    -0.304 C  
BRANCH   9  10
HETATM   10  C   UNL     1      -9.824  13.977  67.447  1.00  0.00    -0.240 C  
HETATM   11  N   UNL     1      -8.614  14.613  67.587  1.00  0.00    -0.166 N  
HETATM   12  O   UNL     1     -10.637  13.863  68.362  1.00  0.00    -0.241 OA 
HETATM   13  H   UNL     1      -7.993  14.671  66.779  1.00  0.00     0.000 HD 
BRANCH  11  14
HETATM   14  C   UNL     1      -8.188  15.205  68.839  1.00  0.00    -0.181 C  
BRANCH  14  15
HETATM   15  C   UNL     1      -8.216  16.708  68.763  1.00  0.00    -0.249 A  
HETATM   16  C   UNL     1      -7.036  17.448  68.942  1.00  0.00    -0.251 A  
HETATM   17  C   UNL     1      -7.054  18.843  68.866  1.00  0.00    -0.354 A  
HETATM   18  C   UNL     1      -8.249  19.513  68.620  1.00  0.00    -0.369 A  
HETATM   19  C   UNL     1      -9.430  18.791  68.450  1.00  0.00    -0.391 A  
HETATM   20  C   UNL     1      -9.415  17.395  68.525  1.00  0.00    -0.297 A  
ENDBRANCH  14  15
ENDBRANCH  11  14
ENDBRANCH   9  10
ENDBRANCH   8   9
TORSDOF 4
ENDMDL
MODEL       65
REMARK 921   NORMALIZED FREE ENERGY PREDICTED BY IDOCK:   -5.14 KCAL/MOL
REMARK 922        TOTAL FREE ENERGY PREDICTED BY IDOCK:   -6.96 KCAL/MOL
REMARK 923 INTER-LIGAND FREE ENERGY PREDICTED BY IDOCK:   -6.55 KCAL/MOL
REMARK 924 INTRA-LIGAND FREE ENERGY PREDICTED BY IDOCK:   -0.41 KCAL/MOL
REMARK 927      BINDING AFFINITY PREDICTED BY RF-SCORE:    0.00 PKD
ROOT
HETATM    1  O   UNL     1     -10.707  19.109  66.760  1.00  0.00    -0.425 OA 
HETATM    2  N   UNL     1     -10.520  18.124  66.026  1.00  0.00    -0.395 N  
HETATM    3  C   UNL     1      -9.787  17.033  66.594  1.00  0.00    -0.290 A  
HETATM    4  O   UNL     1     -10.959  17.982  64.881  1.00  0.00    -0.776 OA 
HETATM    5  N   UNL     1      -8.869  16.352  65.938  1.00  0.00    -0.456 NA 
HETATM    6  C   UNL     1      -8.460  15.385  66.819  1.00  0.00    -0.272 A  
HETATM    7  C   UNL     1      -9.151  15.478  68.007  1.00  0.00    -0.182 A  
HETATM    8  N   UNL     1      -9.989  16.558  67.861  1.00  0.00    -0.240 NA 
ENDROOT
BRANCH   8   9
HETATM    9  C   UNL     1     -10.971  16.988  68.841  1.00  0.00    -0.141 C  
BRANCH   9  10
HETATM   10  C   UNL     1     -11.304  15.893  69.833  1.00  0.00    -0.348 C  
HETATM   11  N   UNL     1     -12.262  14.999  69.419  1.00  0.00    -0.526 N  
HETATM   12  O   UNL     1     -10.739  15.823  70.923  1.00  0.00    -0.224 OA 
HETATM   13  H   UNL     1     -12.683  15.120  68.498  1.00  0.00     0.000 HD 
BRANCH  11  14
HETATM   14  C   UNL     1     -12.695  13.890  70.244  1.00  0.00    -0.182 C  
BRANCH  14  15
HETATM   15  C   UNL     1     -12.160  12.584  69.719  1.00  0.00    -0.293 A  
HETATM   16  C   UNL     1     -12.053  11.470  70.567  1.00  0.00    -0.472 A  
HETATM   17  C   UNL     1     -11.564  10.254  70.084  1.00  0.00    -0.376 A  
HETATM   18  C   UNL     1     -11.167  10.140  68.755  1.00  0.00    -0.217 A  
HETATM   19  C   UNL     1     -11.257  11.241  67.905  1.00  0.00    -0.353 A  
HETATM   20  C   UNL     1     -11.748  12.460  68.385  1.00  0.00    -0.386 A  
ENDBRANCH  14  15
ENDBRANCH  11  14
ENDBRANCH   9  10
ENDBRANCH   8   9
TORSDOF 4
ENDMDL
MODEL       66
REMARK 921   NORMALIZED FREE ENERGY PREDICTED BY IDOCK:   -5.14 KCAL/MOL
REMARK 922        TOTAL FREE ENERGY PREDICTED BY IDOCK:   -6.95 KCAL/MOL
REMARK 923 INTER-LIGAND FREE ENERGY PREDICTED BY IDOCK:   -6.38 KCAL/MOL
REMARK 924 INTRA-LIGAND FREE ENERGY PREDICTED BY IDOCK:   -0.57 KCAL/MOL
REMARK 927      BINDING AFFINITY PREDICTED BY RF-SCORE:    0.00 PKD
ROOT
HETATM    1  O   UNL     1     -11.608  12.865  69.100  1.00  0.00    -0.285 OA 
HETATM    2  N   UNL     1     -11.694  12.459  67.928  1.00  0.00    -0.357 N  
HETATM    3  C   UNL     1     -11.168  13.321  66.913  1.00  0.00    -0.305 A  
HETATM    4  O   UNL     1     -12.136  11.363  67.573  1.00  0.00    -0.592 OA 
HETATM    5  N   UNL     1     -11.761  13.529  65.755  1.00  0.00    -0.332 NA 
HETATM    6  C   UNL     1     -10.911  14.365  65.076  1.00  0.00    -0.389 A  
HETATM    7  C   UNL     1      -9.793  14.645  65.829  1.00  0.00    -0.328 A  
HETATM    8  N   UNL     1      -9.977  13.986  67.021  1.00  0.00    -0.252 NA 
ENDROOT
BRANCH   8   9
HETATM    9  C   UNL     1      -9.007  13.932  68.100  1.00  0.00    -0.185 C  
BRANCH   9  10
HETATM   10  C   UNL     1      -8.895  15.252  68.834  1.00  0.00    -0.209 C  
HETATM   11  N   UNL     1      -7.883  16.077  68.403  1.00  0.00    -0.143 N  
HETATM   12  O   UNL     1      -9.669  15.548  69.742  1.00  0.00    -0.287 OA 
HETATM   13  H   UNL     1      -7.284  15.763  67.640  1.00  0.00     0.000 HD 
BRANCH  11  14
HETATM   14  C   UNL     1      -7.639  17.377  68.994  1.00  0.00    -0.169 C  
BRANCH  14  15
HETATM   15  C   UNL     1      -8.435  18.447  68.294  1.00  0.00    -0.321 A  
HETATM   16  C   UNL     1      -8.068  18.875  67.008  1.00  0.00    -0.272 A  
HETATM   17  C   UNL     1      -8.806  19.862  66.350  1.00  0.00    -0.420 A  
HETATM   18  C   UNL     1      -9.909  20.438  66.972  1.00  0.00    -0.594 A  
HETATM   19  C   UNL     1     -10.279  20.030  68.253  1.00  0.00    -0.527 A  
HETATM   20  C   UNL     1      -9.542  19.042  68.913  1.00  0.00    -0.417 A  
ENDBRANCH  14  15
ENDBRANCH  11  14
ENDBRANCH   9  10
ENDBRANCH   8   9
TORSDOF 4
ENDMDL
MODEL       67
REMARK 921   NORMALIZED FREE ENERGY PREDICTED BY IDOCK:   -5.12 KCAL/MOL
REMARK 922        TOTAL FREE ENERGY PREDICTED BY IDOCK:   -6.94 KCAL/MOL
REMARK 923 INTER-LIGAND FREE ENERGY PREDICTED BY IDOCK:   -6.51 KCAL/MOL
REMARK 924 INTRA-LIGAND FREE ENERGY PREDICTED BY IDOCK:   -0.43 KCAL/MOL
REMARK 927      BINDING AFFINITY PREDICTED BY RF-SCORE:    0.00 PKD
ROOT
HETATM    1  O   UNL     1     -10.540   6.778  73.783  1.00  0.00    -0.337 OA 
HETATM    2  N   UNL     1      -9.935   6.120  72.920  1.00  0.00    -0.171 N  
HETATM    3  C   UNL     1     -10.377   6.278  71.568  1.00  0.00    -0.204 A  
HETATM    4  O   UNL     1      -8.956   5.395  73.119  1.00  0.00    -0.120 OA 
HETATM    5  N   UNL     1     -10.490   5.280  70.717  1.00  0.00    -0.249 NA 
HETATM    6  C   UNL     1     -10.890   5.867  69.544  1.00  0.00    -0.372 A  
HETATM    7  C   UNL     1     -11.001   7.232  69.691  1.00  0.00    -0.186 A  
HETATM    8  N   UNL     1     -10.690   7.486  71.006  1.00  0.00    -0.229 NA 
ENDROOT
BRANCH   8   9
HETATM    9  C   UNL     1     -10.599   8.809  71.599  1.00  0.00    -0.331 C  
BRANCH   9  10
HETATM   10  C   UNL     1     -11.960   9.371  71.952  1.00  0.00    -0.346 C  
HETATM   11  N   UNL     1     -12.163  10.683  71.596  1.00  0.00    -0.244 N  
HETATM   12  O   UNL     1     -12.811   8.682  72.512  1.00  0.00    -0.379 OA 
HETATM   13  H   UNL     1     -11.409  11.188  71.130  1.00  0.00     0.000 HD 
BRANCH  11  14
HETATM   14  C   UNL     1     -13.410  11.373  71.857  1.00  0.00    -0.304 C  
BRANCH  14  15
HETATM   15  C   UNL     1     -13.245  12.862  71.706  1.00  0.00    -0.479 A  
HETATM   16  C   UNL     1     -12.332  13.383  70.775  1.00  0.00    -0.433 A  
HETATM   17  C   UNL     1     -12.180  14.763  70.626  1.00  0.00    -0.385 A  
HETATM   18  C   UNL     1     -12.929  15.636  71.409  1.00  0.00    -0.555 A  
HETATM   19  C   UNL     1     -13.832  15.133  72.344  1.00  0.00    -0.617 A  
HETATM   20  C   UNL     1     -13.987  13.751  72.496  1.00  0.00    -0.572 A  
ENDBRANCH  14  15
ENDBRANCH  11  14
ENDBRANCH   9  10
ENDBRANCH   8   9
TORSDOF 4
ENDMDL
MODEL       68
REMARK 921   NORMALIZED FREE ENERGY PREDICTED BY IDOCK:   -5.11 KCAL/MOL
REMARK 922        TOTAL FREE ENERGY PREDICTED BY IDOCK:   -6.93 KCAL/MOL
REMARK 923 INTER-LIGAND FREE ENERGY PREDICTED BY IDOCK:   -6.43 KCAL/MOL
REMARK 924 INTRA-LIGAND FREE ENERGY PREDICTED BY IDOCK:   -0.50 KCAL/MOL
REMARK 927      BINDING AFFINITY PREDICTED BY RF-SCORE:    0.00 PKD
ROOT
HETATM    1  O   UNL     1     -12.481   8.140  72.443  1.00  0.00    -0.322 OA 
HETATM    2  N   UNL     1     -11.846   7.146  72.052  1.00  0.00    -0.289 N  
HETATM    3  C   UNL     1     -11.371   7.181  70.702  1.00  0.00    -0.292 A  
HETATM    4  O   UNL     1     -11.543   6.165  72.738  1.00  0.00    -0.231 OA 
HETATM    5  N   UNL     1     -11.409   6.146  69.888  1.00  0.00    -0.421 NA 
HETATM    6  C   UNL     1     -10.820   6.592  68.733  1.00  0.00    -0.299 A  
HETATM    7  C   UNL     1     -10.411   7.900  68.863  1.00  0.00    -0.213 A  
HETATM    8  N   UNL     1     -10.790   8.280  70.128  1.00  0.00    -0.241 NA 
ENDROOT
BRANCH   8   9
HETATM    9  C   UNL     1     -10.492   9.565  70.736  1.00  0.00    -0.314 C  
BRANCH   9  10
HETATM   10  C   UNL     1     -11.419  10.657  70.245  1.00  0.00    -0.337 C  
HETATM   11  N   UNL     1     -10.807  11.687  69.571  1.00  0.00    -0.454 N  
HETATM   12  O   UNL     1     -12.632  10.603  70.440  1.00  0.00    -0.335 OA 
HETATM   13  H   UNL     1      -9.795  11.659  69.446  1.00  0.00     0.000 HD 
BRANCH  11  14
HETATM   14  C   UNL     1     -11.547  12.809  69.032  1.00  0.00    -0.316 C  
BRANCH  14  15
HETATM   15  C   UNL     1     -11.635  12.728  67.531  1.00  0.00    -0.412 A  
HETATM   16  C   UNL     1     -12.254  13.755  66.802  1.00  0.00    -0.440 A  
HETATM   17  C   UNL     1     -12.333  13.689  65.408  1.00  0.00    -0.510 A  
HETATM   18  C   UNL     1     -11.805  12.594  64.732  1.00  0.00    -0.434 A  
HETATM   19  C   UNL     1     -11.197  11.561  65.444  1.00  0.00    -0.207 A  
HETATM   20  C   UNL     1     -11.116  11.625  66.839  1.00  0.00    -0.365 A  
ENDBRANCH  14  15
ENDBRANCH  11  14
ENDBRANCH   9  10
ENDBRANCH   8   9
TORSDOF 4
ENDMDL
MODEL       69
REMARK 921   NORMALIZED FREE ENERGY PREDICTED BY IDOCK:   -5.10 KCAL/MOL
REMARK 922        TOTAL FREE ENERGY PREDICTED BY IDOCK:   -6.91 KCAL/MOL
REMARK 923 INTER-LIGAND FREE ENERGY PREDICTED BY IDOCK:   -6.17 KCAL/MOL
REMARK 924 INTRA-LIGAND FREE ENERGY PREDICTED BY IDOCK:   -0.74 KCAL/MOL
REMARK 927      BINDING AFFINITY PREDICTED BY RF-SCORE:    0.00 PKD
ROOT
HETATM    1  O   UNL     1     -12.045  14.260  69.767  1.00  0.00    -0.311 OA 
HETATM    2  N   UNL     1     -11.989  13.046  70.025  1.00  0.00    -0.338 N  
HETATM    3  C   UNL     1     -11.445  12.200  69.007  1.00  0.00    -0.297 A  
HETATM    4  O   UNL     1     -12.304  12.520  71.096  1.00  0.00    -0.309 OA 
HETATM    5  N   UNL     1     -11.944  11.021  68.695  1.00  0.00    -0.536 NA 
HETATM    6  C   UNL     1     -11.107  10.537  67.722  1.00  0.00    -0.317 A  
HETATM    7  C   UNL     1     -10.091  11.428  67.461  1.00  0.00    -0.183 A  
HETATM    8  N   UNL     1     -10.329  12.508  68.277  1.00  0.00    -0.231 NA 
ENDROOT
BRANCH   8   9
HETATM    9  C   UNL     1      -9.461  13.666  68.399  1.00  0.00    -0.190 C  
BRANCH   9  10
HETATM   10  C   UNL     1      -9.617  14.621  67.235  1.00  0.00    -0.221 C  
HETATM   11  N   UNL     1     -10.585  15.585  67.393  1.00  0.00    -0.286 N  
HETATM   12  O   UNL     1      -8.913  14.528  66.232  1.00  0.00    -0.194 OA 
HETATM   13  H   UNL     1     -11.127  15.600  68.257  1.00  0.00     0.000 HD 
BRANCH  11  14
HETATM   14  C   UNL     1     -10.861  16.580  66.377  1.00  0.00    -0.042 C  
BRANCH  14  15
HETATM   15  C   UNL     1     -10.500  17.960  66.859  1.00  0.00    -0.334 A  
HETATM   16  C   UNL     1     -10.465  19.037  65.960  1.00  0.00    -0.530 A  
HETATM   17  C   UNL     1     -10.138  20.322  66.402  1.00  0.00    -0.491 A  
HETATM   18  C   UNL     1      -9.833  20.540  67.743  1.00  0.00    -0.431 A  
HETATM   19  C   UNL     1      -9.854  19.478  68.645  1.00  0.00    -0.530 A  
HETATM   20  C   UNL     1     -10.182  18.191  68.204  1.00  0.00    -0.400 A  
ENDBRANCH  14  15
ENDBRANCH  11  14
ENDBRANCH   9  10
ENDBRANCH   8   9
TORSDOF 4
ENDMDL
MODEL       70
REMARK 921   NORMALIZED FREE ENERGY PREDICTED BY IDOCK:   -5.10 KCAL/MOL
REMARK 922        TOTAL FREE ENERGY PREDICTED BY IDOCK:   -6.91 KCAL/MOL
REMARK 923 INTER-LIGAND FREE ENERGY PREDICTED BY IDOCK:   -6.39 KCAL/MOL
REMARK 924 INTRA-LIGAND FREE ENERGY PREDICTED BY IDOCK:   -0.52 KCAL/MOL
REMARK 927      BINDING AFFINITY PREDICTED BY RF-SCORE:    0.00 PKD
ROOT
HETATM    1  O   UNL     1      -9.955   8.133  72.273  1.00  0.00    -0.212 OA 
HETATM    2  N   UNL     1     -11.173   8.121  72.028  1.00  0.00    -0.287 N  
HETATM    3  C   UNL     1     -11.745   9.350  71.568  1.00  0.00    -0.394 A  
HETATM    4  O   UNL     1     -11.913   7.135  72.091  1.00  0.00    -0.292 OA 
HETATM    5  N   UNL     1     -12.916   9.804  71.968  1.00  0.00    -0.418 NA 
HETATM    6  C   UNL     1     -13.099  10.962  71.258  1.00  0.00    -0.308 A  
HETATM    7  C   UNL     1     -12.036  11.195  70.415  1.00  0.00    -0.378 A  
HETATM    8  N   UNL     1     -11.156  10.162  70.638  1.00  0.00    -0.323 NA 
ENDROOT
BRANCH   8   9
HETATM    9  C   UNL     1      -9.919   9.950  69.907  1.00  0.00    -0.252 C  
BRANCH   9  10
HETATM   10  C   UNL     1     -10.168   9.503  68.482  1.00  0.00    -0.199 C  
HETATM   11  N   UNL     1      -9.965  10.466  67.522  1.00  0.00    -0.175 N  
HETATM   12  O   UNL     1     -10.517   8.353  68.224  1.00  0.00    -0.206 OA 
HETATM   13  H   UNL     1      -9.671  11.398  67.814  1.00  0.00     0.000 HD 
BRANCH  11  14
HETATM   14  C   UNL     1     -10.154  10.204  66.110  1.00  0.00    -0.246 C  
BRANCH  14  15
HETATM   15  C   UNL     1     -10.893  11.334  65.445  1.00  0.00    -0.255 A  
HETATM   16  C   UNL     1     -10.870  11.471  64.047  1.00  0.00    -0.453 A  
HETATM   17  C   UNL     1     -11.560  12.514  63.424  1.00  0.00    -0.547 A  
HETATM   18  C   UNL     1     -12.270  13.435  64.188  1.00  0.00    -0.457 A  
HETATM   19  C   UNL     1     -12.293  13.318  65.577  1.00  0.00    -0.533 A  
HETATM   20  C   UNL     1     -11.604  12.274  66.203  1.00  0.00    -0.450 A  
ENDBRANCH  14  15
ENDBRANCH  11  14
ENDBRANCH   9  10
ENDBRANCH   8   9
TORSDOF 4
ENDMDL
MODEL       71
REMARK 921   NORMALIZED FREE ENERGY PREDICTED BY IDOCK:   -5.09 KCAL/MOL
REMARK 922        TOTAL FREE ENERGY PREDICTED BY IDOCK:   -6.90 KCAL/MOL
REMARK 923 INTER-LIGAND FREE ENERGY PREDICTED BY IDOCK:   -6.58 KCAL/MOL
REMARK 924 INTRA-LIGAND FREE ENERGY PREDICTED BY IDOCK:   -0.32 KCAL/MOL
REMARK 927      BINDING AFFINITY PREDICTED BY RF-SCORE:    0.00 PKD
ROOT
HETATM    1  O   UNL     1      -9.730  10.068  65.360  1.00  0.00    -0.260 OA 
HETATM    2  N   UNL     1     -10.285   9.691  66.406  1.00  0.00    -0.240 N  
HETATM    3  C   UNL     1     -10.801  10.716  67.261  1.00  0.00    -0.287 A  
HETATM    4  O   UNL     1     -10.479   8.518  66.739  1.00  0.00    -0.303 OA 
HETATM    5  N   UNL     1     -10.695  10.693  68.574  1.00  0.00    -0.201 NA 
HETATM    6  C   UNL     1     -11.354  11.819  68.996  1.00  0.00    -0.278 A  
HETATM    7  C   UNL     1     -11.874  12.513  67.926  1.00  0.00    -0.323 A  
HETATM    8  N   UNL     1     -11.493  11.807  66.809  1.00  0.00    -0.476 NA 
ENDROOT
BRANCH   8   9
HETATM    9  C   UNL     1     -11.886  12.128  65.449  1.00  0.00    -0.295 C  
BRANCH   9  10
HETATM   10  C   UNL     1     -12.051  13.618  65.238  1.00  0.00    -0.406 C  
HETATM   11  N   UNL     1     -10.880  14.324  65.102  1.00  0.00    -0.353 N  
HETATM   12  O   UNL     1     -13.164  14.138  65.188  1.00  0.00    -0.743 OA 
HETATM   13  H   UNL     1      -9.994  13.821  65.152  1.00  0.00     0.000 HD 
BRANCH  11  14
HETATM   14  C   UNL     1     -10.859  15.757  64.891  1.00  0.00    -0.413 C  
BRANCH  14  15
HETATM   15  C   UNL     1     -10.650  16.492  66.189  1.00  0.00    -0.239 A  
HETATM   16  C   UNL     1     -10.391  17.872  66.187  1.00  0.00    -0.352 A  
HETATM   17  C   UNL     1     -10.203  18.561  67.388  1.00  0.00    -0.401 A  
HETATM   18  C   UNL     1     -10.262  17.878  68.600  1.00  0.00    -0.387 A  
HETATM   19  C   UNL     1     -10.508  16.506  68.615  1.00  0.00    -0.304 A  
HETATM   20  C   UNL     1     -10.697  15.815  67.415  1.00  0.00    -0.317 A  
ENDBRANCH  14  15
ENDBRANCH  11  14
ENDBRANCH   9  10
ENDBRANCH   8   9
TORSDOF 4
ENDMDL
MODEL       72
REMARK 921   NORMALIZED FREE ENERGY PREDICTED BY IDOCK:   -5.08 KCAL/MOL
REMARK 922        TOTAL FREE ENERGY PREDICTED BY IDOCK:   -6.89 KCAL/MOL
REMARK 923 INTER-LIGAND FREE ENERGY PREDICTED BY IDOCK:   -6.66 KCAL/MOL
REMARK 924 INTRA-LIGAND FREE ENERGY PREDICTED BY IDOCK:   -0.23 KCAL/MOL
REMARK 927      BINDING AFFINITY PREDICTED BY RF-SCORE:    0.00 PKD
ROOT
HETATM    1  O   UNL     1     -10.048   7.180  71.325  1.00  0.00    -0.190 OA 
HETATM    2  N   UNL     1     -11.160   6.873  70.864  1.00  0.00    -0.259 N  
HETATM    3  C   UNL     1     -12.253   7.731  71.205  1.00  0.00    -0.268 A  
HETATM    4  O   UNL     1     -11.390   5.933  70.097  1.00  0.00    -0.338 OA 
HETATM    5  N   UNL     1     -13.454   7.292  71.524  1.00  0.00    -0.391 NA 
HETATM    6  C   UNL     1     -14.196   8.427  71.726  1.00  0.00    -0.458 A  
HETATM    7  C   UNL     1     -13.437   9.555  71.511  1.00  0.00    -0.368 A  
HETATM    8  N   UNL     1     -12.179   9.098  71.197  1.00  0.00    -0.298 NA 
ENDROOT
BRANCH   8   9
HETATM    9  C   UNL     1     -11.060   9.939  70.812  1.00  0.00    -0.347 C  
BRANCH   9  10
HETATM   10  C   UNL     1     -11.506  11.169  70.050  1.00  0.00    -0.292 C  
HETATM   11  N   UNL     1     -11.395  11.085  68.683  1.00  0.00    -0.256 N  
HETATM   12  O   UNL     1     -11.942  12.160  70.633  1.00  0.00    -0.322 OA 
HETATM   13  H   UNL     1     -11.027  10.226  68.272  1.00  0.00     0.000 HD 
BRANCH  11  14
HETATM   14  C   UNL     1     -11.781  12.170  67.805  1.00  0.00    -0.320 C  
BRANCH  14  15
HETATM   15  C   UNL     1     -11.396  11.875  66.379  1.00  0.00    -0.400 A  
HETATM   16  C   UNL     1     -10.409  10.918  66.096  1.00  0.00    -0.305 A  
HETATM   17  C   UNL     1     -10.052  10.635  64.775  1.00  0.00    -0.412 A  
HETATM   18  C   UNL     1     -10.670  11.310  63.726  1.00  0.00    -0.448 A  
HETATM   19  C   UNL     1     -11.645  12.270  63.993  1.00  0.00    -0.495 A  
HETATM   20  C   UNL     1     -12.004  12.555  65.315  1.00  0.00    -0.490 A  
ENDBRANCH  14  15
ENDBRANCH  11  14
ENDBRANCH   9  10
ENDBRANCH   8   9
TORSDOF 4
ENDMDL
MODEL       73
REMARK 921   NORMALIZED FREE ENERGY PREDICTED BY IDOCK:   -5.07 KCAL/MOL
REMARK 922        TOTAL FREE ENERGY PREDICTED BY IDOCK:   -6.88 KCAL/MOL
REMARK 923 INTER-LIGAND FREE ENERGY PREDICTED BY IDOCK:   -6.51 KCAL/MOL
REMARK 924 INTRA-LIGAND FREE ENERGY PREDICTED BY IDOCK:   -0.37 KCAL/MOL
REMARK 927      BINDING AFFINITY PREDICTED BY RF-SCORE:    0.00 PKD
ROOT
HETATM    1  O   UNL     1     -10.294  10.310  65.168  1.00  0.00    -0.286 OA 
HETATM    2  N   UNL     1     -10.130  11.236  64.356  1.00  0.00    -0.278 N  
HETATM    3  C   UNL     1     -10.832  12.454  64.625  1.00  0.00    -0.309 A  
HETATM    4  O   UNL     1      -9.375  11.217  63.380  1.00  0.00    -0.251 OA 
HETATM    5  N   UNL     1     -11.428  13.173  63.695  1.00  0.00    -0.381 NA 
HETATM    6  C   UNL     1     -11.926  14.261  64.364  1.00  0.00    -0.456 A  
HETATM    7  C   UNL     1     -11.613  14.201  65.703  1.00  0.00    -0.339 A  
HETATM    8  N   UNL     1     -10.926  13.020  65.867  1.00  0.00    -0.269 NA 
ENDROOT
BRANCH   8   9
HETATM    9  C   UNL     1     -10.326  12.573  67.112  1.00  0.00    -0.220 C  
BRANCH   9  10
HETATM   10  C   UNL     1     -11.349  11.983  68.059  1.00  0.00    -0.296 C  
HETATM   11  N   UNL     1     -11.188  12.321  69.381  1.00  0.00    -0.429 N  
HETATM   12  O   UNL     1     -12.257  11.260  67.652  1.00  0.00    -0.423 OA 
HETATM   13  H   UNL     1     -10.411  12.930  69.642  1.00  0.00     0.000 HD 
BRANCH  11  14
HETATM   14  C   UNL     1     -12.080  11.846  70.418  1.00  0.00    -0.333 C  
BRANCH  14  15
HETATM   15  C   UNL     1     -11.643  10.500  70.932  1.00  0.00    -0.385 A  
HETATM   16  C   UNL     1     -10.405   9.962  70.547  1.00  0.00    -0.298 A  
HETATM   17  C   UNL     1      -9.991   8.717  71.026  1.00  0.00    -0.297 A  
HETATM   18  C   UNL     1     -10.811   7.993  71.886  1.00  0.00    -0.316 A  
HETATM   19  C   UNL     1     -12.048   8.510  72.269  1.00  0.00    -0.455 A  
HETATM   20  C   UNL     1     -12.465   9.756  71.791  1.00  0.00    -0.485 A  
ENDBRANCH  14  15
ENDBRANCH  11  14
ENDBRANCH   9  10
ENDBRANCH   8   9
TORSDOF 4
ENDMDL
MODEL       74
REMARK 921   NORMALIZED FREE ENERGY PREDICTED BY IDOCK:   -5.03 KCAL/MOL
REMARK 922        TOTAL FREE ENERGY PREDICTED BY IDOCK:   -6.82 KCAL/MOL
REMARK 923 INTER-LIGAND FREE ENERGY PREDICTED BY IDOCK:   -6.49 KCAL/MOL
REMARK 924 INTRA-LIGAND FREE ENERGY PREDICTED BY IDOCK:   -0.33 KCAL/MOL
REMARK 927      BINDING AFFINITY PREDICTED BY RF-SCORE:    0.00 PKD
ROOT
HETATM    1  O   UNL     1     -11.242   6.108  71.038  1.00  0.00    -0.296 OA 
HETATM    2  N   UNL     1     -10.484   6.080  70.054  1.00  0.00    -0.226 N  
HETATM    3  C   UNL     1     -10.466   7.248  69.226  1.00  0.00    -0.216 A  
HETATM    4  O   UNL     1      -9.708   5.164  69.765  1.00  0.00    -0.157 OA 
HETATM    5  N   UNL     1     -10.431   7.208  67.910  1.00  0.00    -0.200 NA 
HETATM    6  C   UNL     1     -10.377   8.522  67.524  1.00  0.00    -0.267 A  
HETATM    7  C   UNL     1     -10.364   9.356  68.620  1.00  0.00    -0.203 A  
HETATM    8  N   UNL     1     -10.445   8.526  69.714  1.00  0.00    -0.218 NA 
ENDROOT
BRANCH   8   9
HETATM    9  C   UNL     1     -10.382   8.964  71.097  1.00  0.00    -0.268 C  
BRANCH   9  10
HETATM   10  C   UNL     1     -11.721   9.463  71.599  1.00  0.00    -0.398 C  
HETATM   11  N   UNL     1     -12.025  10.761  71.267  1.00  0.00    -0.261 N  
HETATM   12  O   UNL     1     -12.471   8.737  72.249  1.00  0.00    -0.372 OA 
HETATM   13  H   UNL     1     -11.352  11.300  70.722  1.00  0.00     0.000 HD 
BRANCH  11  14
HETATM   14  C   UNL     1     -13.267  11.393  71.665  1.00  0.00    -0.309 C  
BRANCH  14  15
HETATM   15  C   UNL     1     -13.162  12.892  71.581  1.00  0.00    -0.416 A  
HETATM   16  C   UNL     1     -12.309  13.491  70.640  1.00  0.00    -0.432 A  
HETATM   17  C   UNL     1     -12.212  14.882  70.553  1.00  0.00    -0.388 A  
HETATM   18  C   UNL     1     -12.957  15.688  71.408  1.00  0.00    -0.555 A  
HETATM   19  C   UNL     1     -13.801  15.107  72.354  1.00  0.00    -0.617 A  
HETATM   20  C   UNL     1     -13.900  13.715  72.443  1.00  0.00    -0.691 A  
ENDBRANCH  14  15
ENDBRANCH  11  14
ENDBRANCH   9  10
ENDBRANCH   8   9
TORSDOF 4
ENDMDL
MODEL       75
REMARK 921   NORMALIZED FREE ENERGY PREDICTED BY IDOCK:   -5.01 KCAL/MOL
REMARK 922        TOTAL FREE ENERGY PREDICTED BY IDOCK:   -6.80 KCAL/MOL
REMARK 923 INTER-LIGAND FREE ENERGY PREDICTED BY IDOCK:   -6.56 KCAL/MOL
REMARK 924 INTRA-LIGAND FREE ENERGY PREDICTED BY IDOCK:   -0.25 KCAL/MOL
REMARK 927      BINDING AFFINITY PREDICTED BY RF-SCORE:    0.00 PKD
ROOT
HETATM    1  O   UNL     1      -9.176   8.792  73.139  1.00  0.00    -0.199 OA 
HETATM    2  N   UNL     1      -8.955   8.470  71.959  1.00  0.00    -0.218 N  
HETATM    3  C   UNL     1      -9.927   7.626  71.334  1.00  0.00    -0.181 A  
HETATM    4  O   UNL     1      -8.008   8.858  71.269  1.00  0.00    -0.142 OA 
HETATM    5  N   UNL     1      -9.618   6.616  70.546  1.00  0.00    -0.169 NA 
HETATM    6  C   UNL     1     -10.826   6.118  70.131  1.00  0.00    -0.329 A  
HETATM    7  C   UNL     1     -11.867   6.845  70.663  1.00  0.00    -0.368 A  
HETATM    8  N   UNL     1     -11.279   7.803  71.456  1.00  0.00    -0.240 NA 
ENDROOT
BRANCH   8   9
HETATM    9  C   UNL     1     -11.993   8.854  72.158  1.00  0.00    -0.349 C  
BRANCH   9  10
HETATM   10  C   UNL     1     -12.517   9.917  71.215  1.00  0.00    -0.381 C  
HETATM   11  N   UNL     1     -11.626  10.917  70.906  1.00  0.00    -0.335 N  
HETATM   12  O   UNL     1     -13.659   9.865  70.764  1.00  0.00    -0.249 OA 
HETATM   13  H   UNL     1     -10.693  10.889  71.318  1.00  0.00     0.000 HD 
BRANCH  11  14
HETATM   14  C   UNL     1     -11.965  12.009  70.016  1.00  0.00    -0.324 C  
BRANCH  14  15
HETATM   15  C   UNL     1     -12.512  13.182  70.784  1.00  0.00    -0.389 A  
HETATM   16  C   UNL     1     -13.240  12.977  71.967  1.00  0.00    -0.543 A  
HETATM   17  C   UNL     1     -13.744  14.062  72.688  1.00  0.00    -0.586 A  
HETATM   18  C   UNL     1     -13.537  15.360  72.231  1.00  0.00    -0.606 A  
HETATM   19  C   UNL     1     -12.825  15.578  71.052  1.00  0.00    -0.543 A  
HETATM   20  C   UNL     1     -12.318  14.494  70.329  1.00  0.00    -0.408 A  
ENDBRANCH  14  15
ENDBRANCH  11  14
ENDBRANCH   9  10
ENDBRANCH   8   9
TORSDOF 4
ENDMDL
MODEL       76
REMARK 921   NORMALIZED FREE ENERGY PREDICTED BY IDOCK:   -5.01 KCAL/MOL
REMARK 922        TOTAL FREE ENERGY PREDICTED BY IDOCK:   -6.80 KCAL/MOL
REMARK 923 INTER-LIGAND FREE ENERGY PREDICTED BY IDOCK:   -6.17 KCAL/MOL
REMARK 924 INTRA-LIGAND FREE ENERGY PREDICTED BY IDOCK:   -0.63 KCAL/MOL
REMARK 927      BINDING AFFINITY PREDICTED BY RF-SCORE:    0.00 PKD
ROOT
HETATM    1  O   UNL     1      -8.927   8.946  71.969  1.00  0.00    -0.365 OA 
HETATM    2  N   UNL     1      -9.260   8.971  70.772  1.00  0.00    -0.224 N  
HETATM    3  C   UNL     1     -10.094   7.901  70.317  1.00  0.00    -0.196 A  
HETATM    4  O   UNL     1      -8.986   9.863  69.964  1.00  0.00    -0.217 OA 
HETATM    5  N   UNL     1      -9.940   7.299  69.156  1.00  0.00    -0.167 NA 
HETATM    6  C   UNL     1     -10.960   6.384  69.100  1.00  0.00    -0.355 A  
HETATM    7  C   UNL     1     -11.742   6.451  70.232  1.00  0.00    -0.320 A  
HETATM    8  N   UNL     1     -11.163   7.416  71.022  1.00  0.00    -0.258 NA 
ENDROOT
BRANCH   8   9
HETATM    9  C   UNL     1     -11.697   7.884  72.289  1.00  0.00    -0.355 C  
BRANCH   9  10
HETATM   10  C   UNL     1     -12.753   8.954  72.103  1.00  0.00    -0.405 C  
HETATM   11  N   UNL     1     -12.272  10.211  71.827  1.00  0.00    -0.330 N  
HETATM   12  O   UNL     1     -13.951   8.692  72.189  1.00  0.00    -0.405 OA 
HETATM   13  H   UNL     1     -11.263  10.350  71.767  1.00  0.00     0.000 HD 
BRANCH  11  14
HETATM   14  C   UNL     1     -13.146  11.347  71.617  1.00  0.00    -0.393 C  
BRANCH  14  15
HETATM   15  C   UNL     1     -12.490  12.380  70.740  1.00  0.00    -0.356 A  
HETATM   16  C   UNL     1     -11.834  11.993  69.560  1.00  0.00    -0.390 A  
HETATM   17  C   UNL     1     -11.229  12.948  68.739  1.00  0.00    -0.323 A  
HETATM   18  C   UNL     1     -11.264  14.294  69.090  1.00  0.00    -0.302 A  
HETATM   19  C   UNL     1     -11.904  14.691  70.264  1.00  0.00    -0.363 A  
HETATM   20  C   UNL     1     -12.511  13.737  71.088  1.00  0.00    -0.450 A  
ENDBRANCH  14  15
ENDBRANCH  11  14
ENDBRANCH   9  10
ENDBRANCH   8   9
TORSDOF 4
ENDMDL
MODEL       77
REMARK 921   NORMALIZED FREE ENERGY PREDICTED BY IDOCK:   -5.01 KCAL/MOL
REMARK 922        TOTAL FREE ENERGY PREDICTED BY IDOCK:   -6.80 KCAL/MOL
REMARK 923 INTER-LIGAND FREE ENERGY PREDICTED BY IDOCK:   -6.33 KCAL/MOL
REMARK 924 INTRA-LIGAND FREE ENERGY PREDICTED BY IDOCK:   -0.47 KCAL/MOL
REMARK 927      BINDING AFFINITY PREDICTED BY RF-SCORE:    0.00 PKD
ROOT
HETATM    1  O   UNL     1      -8.252   9.182  71.360  1.00  0.00    -0.316 OA 
HETATM    2  N   UNL     1      -7.668   9.839  70.482  1.00  0.00    -0.138 N  
HETATM    3  C   UNL     1      -8.235   9.794  69.168  1.00  0.00    -0.130 A  
HETATM    4  O   UNL     1      -6.686  10.566  70.656  1.00  0.00    -0.333 OA 
HETATM    5  N   UNL     1      -7.517   9.699  68.067  1.00  0.00    -0.082 NA 
HETATM    6  C   UNL     1      -8.435   9.737  67.050  1.00  0.00    -0.117 A  
HETATM    7  C   UNL     1      -9.712   9.873  67.546  1.00  0.00    -0.160 A  
HETATM    8  N   UNL     1      -9.576   9.886  68.914  1.00  0.00    -0.165 NA 
ENDROOT
BRANCH   8   9
HETATM    9  C   UNL     1     -10.662  10.093  69.856  1.00  0.00    -0.295 C  
BRANCH   9  10
HETATM   10  C   UNL     1     -11.543  11.261  69.465  1.00  0.00    -0.328 C  
HETATM   11  N   UNL     1     -11.053  12.501  69.797  1.00  0.00    -0.471 N  
HETATM   12  O   UNL     1     -12.613  11.089  68.885  1.00  0.00    -0.366 OA 
HETATM   13  H   UNL     1     -10.153  12.563  70.275  1.00  0.00     0.000 HD 
BRANCH  11  14
HETATM   14  C   UNL     1     -11.767  13.724  69.492  1.00  0.00    -0.323 C  
BRANCH  14  15
HETATM   15  C   UNL     1     -12.238  14.403  70.751  1.00  0.00    -0.413 A  
HETATM   16  C   UNL     1     -13.253  13.825  71.530  1.00  0.00    -0.417 A  
HETATM   17  C   UNL     1     -13.689  14.446  72.703  1.00  0.00    -0.546 A  
HETATM   18  C   UNL     1     -13.125  15.654  73.103  1.00  0.00    -0.666 A  
HETATM   19  C   UNL     1     -12.124  16.244  72.334  1.00  0.00    -0.598 A  
HETATM   20  C   UNL     1     -11.685  15.624  71.160  1.00  0.00    -0.461 A  
ENDBRANCH  14  15
ENDBRANCH  11  14
ENDBRANCH   9  10
ENDBRANCH   8   9
TORSDOF 4
ENDMDL
MODEL       78
REMARK 921   NORMALIZED FREE ENERGY PREDICTED BY IDOCK:   -5.01 KCAL/MOL
REMARK 922        TOTAL FREE ENERGY PREDICTED BY IDOCK:   -6.80 KCAL/MOL
REMARK 923 INTER-LIGAND FREE ENERGY PREDICTED BY IDOCK:   -6.25 KCAL/MOL
REMARK 924 INTRA-LIGAND FREE ENERGY PREDICTED BY IDOCK:   -0.55 KCAL/MOL
REMARK 927      BINDING AFFINITY PREDICTED BY RF-SCORE:    0.00 PKD
ROOT
HETATM    1  O   UNL     1     -11.743   4.918  73.164  1.00  0.00    -0.315 OA 
HETATM    2  N   UNL     1     -10.654   5.194  72.632  1.00  0.00    -0.218 N  
HETATM    3  C   UNL     1     -10.681   5.476  71.229  1.00  0.00    -0.218 A  
HETATM    4  O   UNL     1      -9.572   5.302  73.216  1.00  0.00    -0.141 OA 
HETATM    5  N   UNL     1      -9.770   5.043  70.381  1.00  0.00    -0.191 NA 
HETATM    6  C   UNL     1     -10.142   5.573  69.172  1.00  0.00    -0.216 A  
HETATM    7  C   UNL     1     -11.276   6.342  69.301  1.00  0.00    -0.375 A  
HETATM    8  N   UNL     1     -11.630   6.256  70.627  1.00  0.00    -0.335 NA 
ENDROOT
BRANCH   8   9
HETATM    9  C   UNL     1     -12.730   6.978  71.243  1.00  0.00    -0.351 C  
BRANCH   9  10
HETATM   10  C   UNL     1     -12.304   8.338  71.755  1.00  0.00    -0.328 C  
HETATM   11  N   UNL     1     -12.860   9.411  71.101  1.00  0.00    -0.466 N  
HETATM   12  O   UNL     1     -11.520   8.451  72.695  1.00  0.00    -0.380 OA 
HETATM   13  H   UNL     1     -13.506   9.236  70.331  1.00  0.00     0.000 HD 
BRANCH  11  14
HETATM   14  C   UNL     1     -12.563  10.781  71.466  1.00  0.00    -0.395 C  
BRANCH  14  15
HETATM   15  C   UNL     1     -12.236  11.605  70.249  1.00  0.00    -0.401 A  
HETATM   16  C   UNL     1     -11.864  10.980  69.048  1.00  0.00    -0.399 A  
HETATM   17  C   UNL     1     -11.566  11.739  67.914  1.00  0.00    -0.377 A  
HETATM   18  C   UNL     1     -11.626  13.128  67.970  1.00  0.00    -0.371 A  
HETATM   19  C   UNL     1     -11.983  13.763  69.158  1.00  0.00    -0.403 A  
HETATM   20  C   UNL     1     -12.282  13.005  70.295  1.00  0.00    -0.368 A  
ENDBRANCH  14  15
ENDBRANCH  11  14
ENDBRANCH   9  10
ENDBRANCH   8   9
TORSDOF 4
ENDMDL
MODEL       79
REMARK 921   NORMALIZED FREE ENERGY PREDICTED BY IDOCK:   -5.01 KCAL/MOL
REMARK 922        TOTAL FREE ENERGY PREDICTED BY IDOCK:   -6.80 KCAL/MOL
REMARK 923 INTER-LIGAND FREE ENERGY PREDICTED BY IDOCK:   -6.69 KCAL/MOL
REMARK 924 INTRA-LIGAND FREE ENERGY PREDICTED BY IDOCK:   -0.11 KCAL/MOL
REMARK 927      BINDING AFFINITY PREDICTED BY RF-SCORE:    0.00 PKD
ROOT
HETATM    1  O   UNL     1     -10.476  16.747  67.389  1.00  0.00    -0.308 OA 
HETATM    2  N   UNL     1     -10.120  16.477  68.548  1.00  0.00    -0.243 N  
HETATM    3  C   UNL     1     -11.109  15.889  69.400  1.00  0.00    -0.322 A  
HETATM    4  O   UNL     1      -8.982  16.616  69.006  1.00  0.00    -0.256 OA 
HETATM    5  N   UNL     1     -11.268  16.216  70.666  1.00  0.00    -0.371 NA 
HETATM    6  C   UNL     1     -12.270  15.394  71.114  1.00  0.00    -0.371 A  
HETATM    7  C   UNL     1     -12.704  14.558  70.110  1.00  0.00    -0.214 A  
HETATM    8  N   UNL     1     -11.965  14.898  69.002  1.00  0.00    -0.296 NA 
ENDROOT
BRANCH   8   9
HETATM    9  C   UNL     1     -12.028  14.220  67.719  1.00  0.00    -0.349 C  
BRANCH   9  10
HETATM   10  C   UNL     1     -11.651  12.757  67.829  1.00  0.00    -0.353 C  
HETATM   11  N   UNL     1     -10.740  12.458  68.814  1.00  0.00    -0.291 N  
HETATM   12  O   UNL     1     -12.144  11.912  67.084  1.00  0.00    -0.590 OA 
HETATM   13  H   UNL     1     -10.379  13.214  69.395  1.00  0.00     0.000 HD 
BRANCH  11  14
HETATM   14  C   UNL     1     -10.275  11.108  69.055  1.00  0.00    -0.176 C  
BRANCH  14  15
HETATM   15  C   UNL     1     -11.134  10.416  70.081  1.00  0.00    -0.383 A  
HETATM   16  C   UNL     1     -10.826   9.112  70.499  1.00  0.00    -0.306 A  
HETATM   17  C   UNL     1     -11.614   8.467  71.456  1.00  0.00    -0.352 A  
HETATM   18  C   UNL     1     -12.723   9.113  71.996  1.00  0.00    -0.473 A  
HETATM   19  C   UNL     1     -13.046  10.405  71.582  1.00  0.00    -0.553 A  
HETATM   20  C   UNL     1     -12.258  11.052  70.625  1.00  0.00    -0.481 A  
ENDBRANCH  14  15
ENDBRANCH  11  14
ENDBRANCH   9  10
ENDBRANCH   8   9
TORSDOF 4
ENDMDL
MODEL       80
REMARK 921   NORMALIZED FREE ENERGY PREDICTED BY IDOCK:   -5.00 KCAL/MOL
REMARK 922        TOTAL FREE ENERGY PREDICTED BY IDOCK:   -6.79 KCAL/MOL
REMARK 923 INTER-LIGAND FREE ENERGY PREDICTED BY IDOCK:   -6.48 KCAL/MOL
REMARK 924 INTRA-LIGAND FREE ENERGY PREDICTED BY IDOCK:   -0.31 KCAL/MOL
REMARK 927      BINDING AFFINITY PREDICTED BY RF-SCORE:    0.00 PKD
ROOT
HETATM    1  O   UNL     1     -12.783  11.914  63.225  1.00  0.00    -0.654 OA 
HETATM    2  N   UNL     1     -12.497  12.972  63.811  1.00  0.00    -0.347 N  
HETATM    3  C   UNL     1     -12.040  12.850  65.162  1.00  0.00    -0.445 A  
HETATM    4  O   UNL     1     -12.516  14.102  63.314  1.00  0.00    -0.758 OA 
HETATM    5  N   UNL     1     -12.406  13.664  66.132  1.00  0.00    -0.436 NA 
HETATM    6  C   UNL     1     -11.711  13.228  67.231  1.00  0.00    -0.377 A  
HETATM    7  C   UNL     1     -10.910  12.155  66.912  1.00  0.00    -0.250 A  
HETATM    8  N   UNL     1     -11.145  11.904  65.581  1.00  0.00    -0.313 NA 
ENDROOT
BRANCH   8   9
HETATM    9  C   UNL     1     -10.454  10.901  64.789  1.00  0.00    -0.303 C  
BRANCH   9  10
HETATM   10  C   UNL     1      -9.511  10.063  65.627  1.00  0.00    -0.220 C  
HETATM   11  N   UNL     1     -10.043   8.892  66.114  1.00  0.00    -0.408 N  
HETATM   12  O   UNL     1      -8.353  10.419  65.837  1.00  0.00    -0.140 OA 
HETATM   13  H   UNL     1     -11.012   8.663  65.893  1.00  0.00     0.000 HD 
BRANCH  11  14
HETATM   14  C   UNL     1      -9.276   7.973  66.929  1.00  0.00    -0.154 C  
BRANCH  14  15
HETATM   15  C   UNL     1      -9.983   7.682  68.226  1.00  0.00    -0.198 A  
HETATM   16  C   UNL     1     -10.852   6.585  68.328  1.00  0.00    -0.359 A  
HETATM   17  C   UNL     1     -11.506   6.305  69.531  1.00  0.00    -0.387 A  
HETATM   18  C   UNL     1     -11.306   7.124  70.639  1.00  0.00    -0.327 A  
HETATM   19  C   UNL     1     -10.453   8.223  70.549  1.00  0.00    -0.225 A  
HETATM   20  C   UNL     1      -9.797   8.504  69.346  1.00  0.00    -0.185 A  
ENDBRANCH  14  15
ENDBRANCH  11  14
ENDBRANCH   9  10
ENDBRANCH   8   9
TORSDOF 4
ENDMDL
MODEL       81
REMARK 921   NORMALIZED FREE ENERGY PREDICTED BY IDOCK:   -5.00 KCAL/MOL
REMARK 922        TOTAL FREE ENERGY PREDICTED BY IDOCK:   -6.79 KCAL/MOL
REMARK 923 INTER-LIGAND FREE ENERGY PREDICTED BY IDOCK:   -6.03 KCAL/MOL
REMARK 924 INTRA-LIGAND FREE ENERGY PREDICTED BY IDOCK:   -0.76 KCAL/MOL
REMARK 927      BINDING AFFINITY PREDICTED BY RF-SCORE:    0.00 PKD
ROOT
HETATM    1  O   UNL     1     -10.833  17.779  66.166  1.00  0.00    -0.174 OA 
HETATM    2  N   UNL     1     -10.205  18.834  66.357  1.00  0.00    -0.398 N  
HETATM    3  C   UNL     1      -9.106  18.768  67.271  1.00  0.00    -0.277 A  
HETATM    4  O   UNL     1     -10.409  19.910  65.786  1.00  0.00    -0.489 OA 
HETATM    5  N   UNL     1      -8.840  19.702  68.161  1.00  0.00    -0.322 NA 
HETATM    6  C   UNL     1      -7.697  19.272  68.785  1.00  0.00    -0.362 A  
HETATM    7  C   UNL     1      -7.267  18.078  68.253  1.00  0.00    -0.248 A  
HETATM    8  N   UNL     1      -8.194  17.748  67.292  1.00  0.00    -0.213 NA 
ENDROOT
BRANCH   8   9
HETATM    9  C   UNL     1      -8.105  16.598  66.410  1.00  0.00    -0.324 C  
BRANCH   9  10
HETATM   10  C   UNL     1      -8.435  15.304  67.124  1.00  0.00    -0.209 C  
HETATM   11  N   UNL     1      -9.647  15.284  67.771  1.00  0.00    -0.206 N  
HETATM   12  O   UNL     1      -7.662  14.348  67.106  1.00  0.00    -0.171 OA 
HETATM   13  H   UNL     1     -10.236  16.117  67.738  1.00  0.00     0.000 HD 
BRANCH  11  14
HETATM   14  C   UNL     1     -10.119  14.124  68.500  1.00  0.00    -0.243 C  
BRANCH  14  15
HETATM   15  C   UNL     1     -11.092  14.522  69.577  1.00  0.00    -0.285 A  
HETATM   16  C   UNL     1     -12.124  13.648  69.957  1.00  0.00    -0.417 A  
HETATM   17  C   UNL     1     -13.026  14.008  70.961  1.00  0.00    -0.378 A  
HETATM   18  C   UNL     1     -12.914  15.245  71.589  1.00  0.00    -0.486 A  
HETATM   19  C   UNL     1     -11.900  16.127  71.214  1.00  0.00    -0.458 A  
HETATM   20  C   UNL     1     -10.996  15.769  70.210  1.00  0.00    -0.368 A  
ENDBRANCH  14  15
ENDBRANCH  11  14
ENDBRANCH   9  10
ENDBRANCH   8   9
TORSDOF 4
ENDMDL
MODEL       82
REMARK 921   NORMALIZED FREE ENERGY PREDICTED BY IDOCK:   -4.97 KCAL/MOL
REMARK 922        TOTAL FREE ENERGY PREDICTED BY IDOCK:   -6.75 KCAL/MOL
REMARK 923 INTER-LIGAND FREE ENERGY PREDICTED BY IDOCK:   -5.94 KCAL/MOL
REMARK 924 INTRA-LIGAND FREE ENERGY PREDICTED BY IDOCK:   -0.81 KCAL/MOL
REMARK 927      BINDING AFFINITY PREDICTED BY RF-SCORE:    0.00 PKD
ROOT
HETATM    1  O   UNL     1     -10.399  15.198  65.070  1.00  0.00    -0.383 OA 
HETATM    2  N   UNL     1     -10.711  16.401  65.089  1.00  0.00    -0.360 N  
HETATM    3  C   UNL     1     -10.283  17.154  66.228  1.00  0.00    -0.334 A  
HETATM    4  O   UNL     1     -11.301  17.009  64.191  1.00  0.00    -1.164 OA 
HETATM    5  N   UNL     1     -11.035  18.050  66.834  1.00  0.00    -0.044 NA 
HETATM    6  C   UNL     1     -10.236  18.560  67.826  1.00  0.00    -0.382 A  
HETATM    7  C   UNL     1      -8.990  17.975  67.802  1.00  0.00    -0.255 A  
HETATM    8  N   UNL     1      -9.035  17.053  66.782  1.00  0.00    -0.233 NA 
ENDROOT
BRANCH   8   9
HETATM    9  C   UNL     1      -7.911  16.249  66.337  1.00  0.00    -0.264 C  
BRANCH   9  10
HETATM   10  C   UNL     1      -7.727  15.008  67.183  1.00  0.00    -0.167 C  
HETATM   11  N   UNL     1      -8.436  13.905  66.770  1.00  0.00    -0.439 N  
HETATM   12  O   UNL     1      -6.984  15.006  68.163  1.00  0.00    -0.104 OA 
HETATM   13  H   UNL     1      -9.029  13.984  65.944  1.00  0.00     0.000 HD 
BRANCH  11  14
HETATM   14  C   UNL     1      -8.370  12.636  67.465  1.00  0.00    -0.177 C  
BRANCH  14  15
HETATM   15  C   UNL     1      -9.655  12.354  68.198  1.00  0.00    -0.218 A  
HETATM   16  C   UNL     1      -9.834  11.134  68.869  1.00  0.00    -0.176 A  
HETATM   17  C   UNL     1     -11.021  10.869  69.557  1.00  0.00    -0.306 A  
HETATM   18  C   UNL     1     -12.043  11.813  69.572  1.00  0.00    -0.314 A  
HETATM   19  C   UNL     1     -11.883  13.025  68.901  1.00  0.00    -0.358 A  
HETATM   20  C   UNL     1     -10.695  13.293  68.213  1.00  0.00    -0.267 A  
ENDBRANCH  14  15
ENDBRANCH  11  14
ENDBRANCH   9  10
ENDBRANCH   8   9
TORSDOF 4
ENDMDL
MODEL       83
REMARK 921   NORMALIZED FREE ENERGY PREDICTED BY IDOCK:   -4.93 KCAL/MOL
REMARK 922        TOTAL FREE ENERGY PREDICTED BY IDOCK:   -6.70 KCAL/MOL
REMARK 923 INTER-LIGAND FREE ENERGY PREDICTED BY IDOCK:   -6.61 KCAL/MOL
REMARK 924 INTRA-LIGAND FREE ENERGY PREDICTED BY IDOCK:   -0.10 KCAL/MOL
REMARK 927      BINDING AFFINITY PREDICTED BY RF-SCORE:    0.00 PKD
ROOT
HETATM    1  O   UNL     1     -11.414  16.592  63.838  1.00  0.00    -1.186 OA 
HETATM    2  N   UNL     1     -11.778  15.480  64.254  1.00  0.00    -0.303 N  
HETATM    3  C   UNL     1     -10.822  14.740  65.022  1.00  0.00    -0.425 A  
HETATM    4  O   UNL     1     -12.901  14.987  64.114  1.00  0.00    -0.644 OA 
HETATM    5  N   UNL     1     -10.633  13.442  64.896  1.00  0.00    -0.362 NA 
HETATM    6  C   UNL     1      -9.682  13.138  65.835  1.00  0.00    -0.178 A  
HETATM    7  C   UNL     1      -9.309  14.261  66.540  1.00  0.00    -0.271 A  
HETATM    8  N   UNL     1     -10.033  15.294  65.993  1.00  0.00    -0.295 NA 
ENDROOT
BRANCH   8   9
HETATM    9  C   UNL     1     -10.024  16.664  66.477  1.00  0.00    -0.285 C  
BRANCH   9  10
HETATM   10  C   UNL     1      -9.305  16.796  67.803  1.00  0.00    -0.233 C  
HETATM   11  N   UNL     1      -7.932  16.807  67.727  1.00  0.00    -0.175 N  
HETATM   12  O   UNL     1      -9.924  16.892  68.860  1.00  0.00    -0.255 OA 
HETATM   13  H   UNL     1      -7.490  16.726  66.811  1.00  0.00     0.000 HD 
BRANCH  11  14
HETATM   14  C   UNL     1      -7.092  16.930  68.900  1.00  0.00    -0.220 C  
BRANCH  14  15
HETATM   15  C   UNL     1      -6.542  18.326  69.027  1.00  0.00    -0.263 A  
HETATM   16  C   UNL     1      -6.843  19.296  68.058  1.00  0.00    -0.267 A  
HETATM   17  C   UNL     1      -6.341  20.595  68.173  1.00  0.00    -0.353 A  
HETATM   18  C   UNL     1      -5.527  20.935  69.250  1.00  0.00    -0.407 A  
HETATM   19  C   UNL     1      -5.212  19.979  70.214  1.00  0.00    -0.256 A  
HETATM   20  C   UNL     1      -5.713  18.678  70.101  1.00  0.00    -0.229 A  
ENDBRANCH  14  15
ENDBRANCH  11  14
ENDBRANCH   9  10
ENDBRANCH   8   9
TORSDOF 4
ENDMDL
MODEL       84
REMARK 921   NORMALIZED FREE ENERGY PREDICTED BY IDOCK:   -4.93 KCAL/MOL
REMARK 922        TOTAL FREE ENERGY PREDICTED BY IDOCK:   -6.70 KCAL/MOL
REMARK 923 INTER-LIGAND FREE ENERGY PREDICTED BY IDOCK:   -6.51 KCAL/MOL
REMARK 924 INTRA-LIGAND FREE ENERGY PREDICTED BY IDOCK:   -0.20 KCAL/MOL
REMARK 927      BINDING AFFINITY PREDICTED BY RF-SCORE:    0.00 PKD
ROOT
HETATM    1  O   UNL     1      -6.185  18.511  70.199  1.00  0.00    -0.162 OA 
HETATM    2  N   UNL     1      -6.224  19.724  69.935  1.00  0.00    -0.324 N  
HETATM    3  C   UNL     1      -6.633  20.077  68.610  1.00  0.00    -0.306 A  
HETATM    4  O   UNL     1      -6.000  20.644  70.727  1.00  0.00    -0.555 OA 
HETATM    5  N   UNL     1      -6.064  21.032  67.901  1.00  0.00    -0.334 NA 
HETATM    6  C   UNL     1      -6.781  21.070  66.733  1.00  0.00    -0.290 A  
HETATM    7  C   UNL     1      -7.797  20.141  66.749  1.00  0.00    -0.303 A  
HETATM    8  N   UNL     1      -7.680  19.489  67.954  1.00  0.00    -0.281 NA 
ENDROOT
BRANCH   8   9
HETATM    9  C   UNL     1      -8.596  18.474  68.442  1.00  0.00    -0.331 C  
BRANCH   9  10
HETATM   10  C   UNL     1      -9.700  18.176  67.450  1.00  0.00    -0.296 C  
HETATM   11  N   UNL     1      -9.552  17.009  66.740  1.00  0.00    -0.254 N  
HETATM   12  O   UNL     1     -10.657  18.935  67.312  1.00  0.00    -0.417 OA 
HETATM   13  H   UNL     1      -8.731  16.429  66.914  1.00  0.00     0.000 HD 
BRANCH  11  14
HETATM   14  C   UNL     1     -10.519  16.573  65.754  1.00  0.00    -0.329 C  
BRANCH  14  15
HETATM   15  C   UNL     1     -10.809  15.102  65.894  1.00  0.00    -0.342 A  
HETATM   16  C   UNL     1     -11.456  14.614  67.041  1.00  0.00    -0.379 A  
HETATM   17  C   UNL     1     -11.734  13.252  67.174  1.00  0.00    -0.425 A  
HETATM   18  C   UNL     1     -11.361  12.363  66.170  1.00  0.00    -0.398 A  
HETATM   19  C   UNL     1     -10.710  12.832  65.031  1.00  0.00    -0.321 A  
HETATM   20  C   UNL     1     -10.431  14.196  64.895  1.00  0.00    -0.461 A  
ENDBRANCH  14  15
ENDBRANCH  11  14
ENDBRANCH   9  10
ENDBRANCH   8   9
TORSDOF 4
ENDMDL
MODEL       85
REMARK 921   NORMALIZED FREE ENERGY PREDICTED BY IDOCK:   -4.92 KCAL/MOL
REMARK 922        TOTAL FREE ENERGY PREDICTED BY IDOCK:   -6.69 KCAL/MOL
REMARK 923 INTER-LIGAND FREE ENERGY PREDICTED BY IDOCK:   -6.07 KCAL/MOL
REMARK 924 INTRA-LIGAND FREE ENERGY PREDICTED BY IDOCK:   -0.62 KCAL/MOL
REMARK 927      BINDING AFFINITY PREDICTED BY RF-SCORE:    0.00 PKD
ROOT
HETATM    1  O   UNL     1     -13.164   7.259  70.894  1.00  0.00    -0.201 OA 
HETATM    2  N   UNL     1     -12.793   7.896  71.894  1.00  0.00    -0.319 N  
HETATM    3  C   UNL     1     -11.436   7.705  72.307  1.00  0.00    -0.317 A  
HETATM    4  O   UNL     1     -13.471   8.716  72.521  1.00  0.00    -0.351 OA 
HETATM    5  N   UNL     1     -11.067   7.589  73.567  1.00  0.00    -0.245 NA 
HETATM    6  C   UNL     1      -9.702   7.472  73.519  1.00  0.00    -0.303 A  
HETATM    7  C   UNL     1      -9.249   7.534  72.220  1.00  0.00    -0.138 A  
HETATM    8  N   UNL     1     -10.376   7.662  71.443  1.00  0.00    -0.197 NA 
ENDROOT
BRANCH   8   9
HETATM    9  C   UNL     1     -10.378   7.844  70.003  1.00  0.00    -0.221 C  
BRANCH   9  10
HETATM   10  C   UNL     1     -10.291   9.305  69.612  1.00  0.00    -0.217 C  
HETATM   11  N   UNL     1     -11.460   9.857  69.147  1.00  0.00    -0.462 N  
HETATM   12  O   UNL     1      -9.241   9.935  69.719  1.00  0.00    -0.213 OA 
HETATM   13  H   UNL     1     -12.293   9.271  69.090  1.00  0.00     0.000 HD 
BRANCH  11  14
HETATM   14  C   UNL     1     -11.553  11.243  68.734  1.00  0.00    -0.316 C  
BRANCH  14  15
HETATM   15  C   UNL     1     -12.110  12.100  69.839  1.00  0.00    -0.324 A  
HETATM   16  C   UNL     1     -12.088  13.499  69.730  1.00  0.00    -0.381 A  
HETATM   17  C   UNL     1     -12.610  14.300  70.749  1.00  0.00    -0.427 A  
HETATM   18  C   UNL     1     -13.150  13.713  71.890  1.00  0.00    -0.476 A  
HETATM   19  C   UNL     1     -13.170  12.324  72.016  1.00  0.00    -0.508 A  
HETATM   20  C   UNL     1     -12.649  11.521  70.997  1.00  0.00    -0.457 A  
ENDBRANCH  14  15
ENDBRANCH  11  14
ENDBRANCH   9  10
ENDBRANCH   8   9
TORSDOF 4
ENDMDL
MODEL       86
REMARK 921   NORMALIZED FREE ENERGY PREDICTED BY IDOCK:   -4.91 KCAL/MOL
REMARK 922        TOTAL FREE ENERGY PREDICTED BY IDOCK:   -6.68 KCAL/MOL
REMARK 923 INTER-LIGAND FREE ENERGY PREDICTED BY IDOCK:   -5.91 KCAL/MOL
REMARK 924 INTRA-LIGAND FREE ENERGY PREDICTED BY IDOCK:   -0.77 KCAL/MOL
REMARK 927      BINDING AFFINITY PREDICTED BY RF-SCORE:    0.00 PKD
ROOT
HETATM    1  O   UNL     1     -10.935   7.215  68.836  1.00  0.00    -0.170 OA 
HETATM    2  N   UNL     1     -10.615   6.086  69.243  1.00  0.00    -0.264 N  
HETATM    3  C   UNL     1     -10.574   5.905  70.662  1.00  0.00    -0.268 A  
HETATM    4  O   UNL     1     -10.389   5.100  68.535  1.00  0.00    -0.148 OA 
HETATM    5  N   UNL     1      -9.632   5.225  71.284  1.00  0.00    -0.154 NA 
HETATM    6  C   UNL     1      -9.994   5.259  72.606  1.00  0.00    -0.163 A  
HETATM    7  C   UNL     1     -11.172   5.953  72.775  1.00  0.00    -0.276 A  
HETATM    8  N   UNL     1     -11.527   6.386  71.519  1.00  0.00    -0.296 NA 
ENDROOT
BRANCH   8   9
HETATM    9  C   UNL     1     -12.752   7.097  71.199  1.00  0.00    -0.315 C  
BRANCH   9  10
HETATM   10  C   UNL     1     -12.684   8.557  71.595  1.00  0.00    -0.332 C  
HETATM   11  N   UNL     1     -12.126   9.393  70.657  1.00  0.00    -0.456 N  
HETATM   12  O   UNL     1     -13.110   8.947  72.680  1.00  0.00    -0.418 OA 
HETATM   13  H   UNL     1     -11.798   8.995  69.777  1.00  0.00     0.000 HD 
BRANCH  11  14
HETATM   14  C   UNL     1     -11.988  10.819  70.873  1.00  0.00    -0.333 C  
BRANCH  14  15
HETATM   15  C   UNL     1     -11.839  11.552  69.567  1.00  0.00    -0.419 A  
HETATM   16  C   UNL     1     -11.511  10.851  68.395  1.00  0.00    -0.374 A  
HETATM   17  C   UNL     1     -11.378  11.525  67.178  1.00  0.00    -0.354 A  
HETATM   18  C   UNL     1     -11.561  12.903  67.121  1.00  0.00    -0.421 A  
HETATM   19  C   UNL     1     -11.876  13.613  68.279  1.00  0.00    -0.404 A  
HETATM   20  C   UNL     1     -12.010  12.941  69.498  1.00  0.00    -0.346 A  
ENDBRANCH  14  15
ENDBRANCH  11  14
ENDBRANCH   9  10
ENDBRANCH   8   9
TORSDOF 4
ENDMDL
MODEL       87
REMARK 921   NORMALIZED FREE ENERGY PREDICTED BY IDOCK:   -4.90 KCAL/MOL
REMARK 922        TOTAL FREE ENERGY PREDICTED BY IDOCK:   -6.66 KCAL/MOL
REMARK 923 INTER-LIGAND FREE ENERGY PREDICTED BY IDOCK:   -5.90 KCAL/MOL
REMARK 924 INTRA-LIGAND FREE ENERGY PREDICTED BY IDOCK:   -0.76 KCAL/MOL
REMARK 927      BINDING AFFINITY PREDICTED BY RF-SCORE:    0.00 PKD
ROOT
HETATM    1  O   UNL     1      -8.871   9.121  72.235  1.00  0.00    -0.277 OA 
HETATM    2  N   UNL     1      -9.235   8.036  72.719  1.00  0.00    -0.224 N  
HETATM    3  C   UNL     1     -10.384   7.424  72.124  1.00  0.00    -0.199 A  
HETATM    4  O   UNL     1      -8.661   7.418  73.620  1.00  0.00    -0.149 OA 
HETATM    5  N   UNL     1     -11.336   6.832  72.817  1.00  0.00    -0.230 NA 
HETATM    6  C   UNL     1     -12.204   6.349  71.873  1.00  0.00    -0.279 A  
HETATM    7  C   UNL     1     -11.759   6.640  70.602  1.00  0.00    -0.394 A  
HETATM    8  N   UNL     1     -10.596   7.353  70.774  1.00  0.00    -0.221 NA 
ENDROOT
BRANCH   8   9
HETATM    9  C   UNL     1      -9.731   7.806  69.699  1.00  0.00    -0.172 C  
BRANCH   9  10
HETATM   10  C   UNL     1     -10.324   8.977  68.945  1.00  0.00    -0.215 C  
HETATM   11  N   UNL     1     -10.658  10.064  69.717  1.00  0.00    -0.248 N  
HETATM   12  O   UNL     1     -10.480   8.941  67.726  1.00  0.00    -0.237 OA 
HETATM   13  H   UNL     1     -10.494  10.021  70.723  1.00  0.00     0.000 HD 
BRANCH  11  14
HETATM   14  C   UNL     1     -11.232  11.269  69.154  1.00  0.00    -0.273 C  
BRANCH  14  15
HETATM   15  C   UNL     1     -12.016  12.030  70.190  1.00  0.00    -0.401 A  
HETATM   16  C   UNL     1     -12.669  11.345  71.227  1.00  0.00    -0.498 A  
HETATM   17  C   UNL     1     -13.392  12.046  72.196  1.00  0.00    -0.396 A  
HETATM   18  C   UNL     1     -13.478  13.434  72.133  1.00  0.00    -0.646 A  
HETATM   19  C   UNL     1     -12.843  14.125  71.103  1.00  0.00    -0.431 A  
HETATM   20  C   UNL     1     -12.118  13.426  70.133  1.00  0.00    -0.415 A  
ENDBRANCH  14  15
ENDBRANCH  11  14
ENDBRANCH   9  10
ENDBRANCH   8   9
TORSDOF 4
ENDMDL
MODEL       88
REMARK 921   NORMALIZED FREE ENERGY PREDICTED BY IDOCK:   -4.88 KCAL/MOL
REMARK 922        TOTAL FREE ENERGY PREDICTED BY IDOCK:   -6.64 KCAL/MOL
REMARK 923 INTER-LIGAND FREE ENERGY PREDICTED BY IDOCK:   -6.09 KCAL/MOL
REMARK 924 INTRA-LIGAND FREE ENERGY PREDICTED BY IDOCK:   -0.54 KCAL/MOL
REMARK 927      BINDING AFFINITY PREDICTED BY RF-SCORE:    0.00 PKD
ROOT
HETATM    1  O   UNL     1     -10.071  17.912  66.313  1.00  0.00    -0.341 OA 
HETATM    2  N   UNL     1      -9.469  18.983  66.497  1.00  0.00    -0.334 N  
HETATM    3  C   UNL     1      -8.340  18.939  67.376  1.00  0.00    -0.275 A  
HETATM    4  O   UNL     1      -9.722  20.058  65.946  1.00  0.00    -0.411 OA 
HETATM    5  N   UNL     1      -8.074  19.872  68.267  1.00  0.00    -0.279 NA 
HETATM    6  C   UNL     1      -6.900  19.470  68.850  1.00  0.00    -0.341 A  
HETATM    7  C   UNL     1      -6.451  18.295  68.291  1.00  0.00    -0.200 A  
HETATM    8  N   UNL     1      -7.398  17.947  67.356  1.00  0.00    -0.191 NA 
ENDROOT
BRANCH   8   9
HETATM    9  C   UNL     1      -7.302  16.810  66.458  1.00  0.00    -0.271 C  
BRANCH   9  10
HETATM   10  C   UNL     1      -7.946  15.569  67.039  1.00  0.00    -0.233 C  
HETATM   11  N   UNL     1      -8.990  15.053  66.309  1.00  0.00    -0.455 N  
HETATM   12  O   UNL     1      -7.542  15.069  68.088  1.00  0.00    -0.101 OA 
HETATM   13  H   UNL     1      -9.265  15.521  65.446  1.00  0.00     0.000 HD 
BRANCH  11  14
HETATM   14  C   UNL     1      -9.713  13.867  66.721  1.00  0.00    -0.279 C  
BRANCH  14  15
HETATM   15  C   UNL     1     -10.515  13.300  65.580  1.00  0.00    -0.286 A  
HETATM   16  C   UNL     1     -10.140  12.084  64.986  1.00  0.00    -0.293 A  
HETATM   17  C   UNL     1     -10.884  11.549  63.932  1.00  0.00    -0.469 A  
HETATM   18  C   UNL     1     -12.003  12.226  63.454  1.00  0.00    -0.588 A  
HETATM   19  C   UNL     1     -12.381  13.439  64.029  1.00  0.00    -0.402 A  
HETATM   20  C   UNL     1     -11.638  13.976  65.084  1.00  0.00    -0.344 A  
ENDBRANCH  14  15
ENDBRANCH  11  14
ENDBRANCH   9  10
ENDBRANCH   8   9
TORSDOF 4
ENDMDL
MODEL       89
REMARK 921   NORMALIZED FREE ENERGY PREDICTED BY IDOCK:   -4.88 KCAL/MOL
REMARK 922        TOTAL FREE ENERGY PREDICTED BY IDOCK:   -6.63 KCAL/MOL
REMARK 923 INTER-LIGAND FREE ENERGY PREDICTED BY IDOCK:   -6.22 KCAL/MOL
REMARK 924 INTRA-LIGAND FREE ENERGY PREDICTED BY IDOCK:   -0.41 KCAL/MOL
REMARK 927      BINDING AFFINITY PREDICTED BY RF-SCORE:    0.00 PKD
ROOT
HETATM    1  O   UNL     1     -12.019  14.052  64.470  1.00  0.00    -0.404 OA 
HETATM    2  N   UNL     1     -11.328  14.765  65.218  1.00  0.00    -0.352 N  
HETATM    3  C   UNL     1     -11.454  14.526  66.624  1.00  0.00    -0.366 A  
HETATM    4  O   UNL     1     -10.506  15.611  64.854  1.00  0.00    -0.444 OA 
HETATM    5  N   UNL     1     -11.504  15.487  67.524  1.00  0.00    -0.249 NA 
HETATM    6  C   UNL     1     -11.575  14.831  68.727  1.00  0.00    -0.320 A  
HETATM    7  C   UNL     1     -11.551  13.467  68.544  1.00  0.00    -0.333 A  
HETATM    8  N   UNL     1     -11.496  13.278  67.184  1.00  0.00    -0.323 NA 
ENDROOT
BRANCH   8   9
HETATM    9  C   UNL     1     -11.374  11.989  66.526  1.00  0.00    -0.354 C  
BRANCH   9  10
HETATM   10  C   UNL     1     -10.509  11.027  67.313  1.00  0.00    -0.231 C  
HETATM   11  N   UNL     1     -11.176   9.967  67.879  1.00  0.00    -0.509 N  
HETATM   12  O   UNL     1      -9.296  11.197  67.418  1.00  0.00    -0.162 OA 
HETATM   13  H   UNL     1     -12.185   9.892  67.744  1.00  0.00     0.000 HD 
BRANCH  11  14
HETATM   14  C   UNL     1     -10.499   8.952  68.660  1.00  0.00    -0.193 C  
BRANCH  14  15
HETATM   15  C   UNL     1     -11.141   8.793  70.013  1.00  0.00    -0.169 A  
HETATM   16  C   UNL     1     -11.807   9.874  70.612  1.00  0.00    -0.386 A  
HETATM   17  C   UNL     1     -12.411   9.730  71.864  1.00  0.00    -0.451 A  
HETATM   18  C   UNL     1     -12.349   8.511  72.532  1.00  0.00    -0.372 A  
HETATM   19  C   UNL     1     -11.682   7.432  71.953  1.00  0.00    -0.323 A  
HETATM   20  C   UNL     1     -11.077   7.573  70.700  1.00  0.00    -0.280 A  
ENDBRANCH  14  15
ENDBRANCH  11  14
ENDBRANCH   9  10
ENDBRANCH   8   9
TORSDOF 4
ENDMDL
MODEL       90
REMARK 921   NORMALIZED FREE ENERGY PREDICTED BY IDOCK:   -4.87 KCAL/MOL
REMARK 922        TOTAL FREE ENERGY PREDICTED BY IDOCK:   -6.63 KCAL/MOL
REMARK 923 INTER-LIGAND FREE ENERGY PREDICTED BY IDOCK:   -6.09 KCAL/MOL
REMARK 924 INTRA-LIGAND FREE ENERGY PREDICTED BY IDOCK:   -0.54 KCAL/MOL
REMARK 927      BINDING AFFINITY PREDICTED BY RF-SCORE:    0.00 PKD
ROOT
HETATM    1  O   UNL     1     -10.386   7.181  72.990  1.00  0.00    -0.218 OA 
HETATM    2  N   UNL     1     -11.518   7.197  72.478  1.00  0.00    -0.275 N  
HETATM    3  C   UNL     1     -12.049   8.482  72.140  1.00  0.00    -0.383 A  
HETATM    4  O   UNL     1     -12.192   6.205  72.183  1.00  0.00    -0.319 OA 
HETATM    5  N   UNL     1     -13.305   8.828  72.340  1.00  0.00    -0.407 NA 
HETATM    6  C   UNL     1     -13.399  10.101  71.839  1.00  0.00    -0.402 A  
HETATM    7  C   UNL     1     -12.193  10.514  71.319  1.00  0.00    -0.368 A  
HETATM    8  N   UNL     1     -11.322   9.473  71.538  1.00  0.00    -0.390 NA 
ENDROOT
BRANCH   8   9
HETATM    9  C   UNL     1      -9.944   9.431  71.081  1.00  0.00    -0.241 C  
BRANCH   9  10
HETATM   10  C   UNL     1      -9.832   9.627  69.584  1.00  0.00    -0.215 C  
HETATM   11  N   UNL     1      -9.302  10.832  69.189  1.00  0.00    -0.348 N  
HETATM   12  O   UNL     1     -10.190   8.755  68.796  1.00  0.00    -0.197 OA 
HETATM   13  H   UNL     1      -9.025  11.506  69.903  1.00  0.00     0.000 HD 
BRANCH  11  14
HETATM   14  C   UNL     1      -9.123  11.180  67.794  1.00  0.00    -0.149 C  
BRANCH  14  15
HETATM   15  C   UNL     1     -10.251  12.048  67.304  1.00  0.00    -0.221 A  
HETATM   16  C   UNL     1     -10.623  13.198  68.020  1.00  0.00    -0.246 A  
HETATM   17  C   UNL     1     -11.664  14.011  67.567  1.00  0.00    -0.421 A  
HETATM   18  C   UNL     1     -12.351  13.681  66.402  1.00  0.00    -0.441 A  
HETATM   19  C   UNL     1     -11.999  12.537  65.687  1.00  0.00    -0.492 A  
HETATM   20  C   UNL     1     -10.956  11.721  66.138  1.00  0.00    -0.355 A  
ENDBRANCH  14  15
ENDBRANCH  11  14
ENDBRANCH   9  10
ENDBRANCH   8   9
TORSDOF 4
ENDMDL
MODEL       91
REMARK 921   NORMALIZED FREE ENERGY PREDICTED BY IDOCK:   -4.86 KCAL/MOL
REMARK 922        TOTAL FREE ENERGY PREDICTED BY IDOCK:   -6.61 KCAL/MOL
REMARK 923 INTER-LIGAND FREE ENERGY PREDICTED BY IDOCK:   -6.17 KCAL/MOL
REMARK 924 INTRA-LIGAND FREE ENERGY PREDICTED BY IDOCK:   -0.44 KCAL/MOL
REMARK 927      BINDING AFFINITY PREDICTED BY RF-SCORE:    0.00 PKD
ROOT
HETATM    1  O   UNL     1      -9.814  14.766  68.039  1.00  0.00    -0.212 OA 
HETATM    2  N   UNL     1     -10.599  15.340  67.266  1.00  0.00    -0.284 N  
HETATM    3  C   UNL     1     -11.253  14.518  66.294  1.00  0.00    -0.342 A  
HETATM    4  O   UNL     1     -10.905  16.535  67.302  1.00  0.00    -0.280 OA 
HETATM    5  N   UNL     1     -11.440  14.880  65.041  1.00  0.00    -0.373 NA 
HETATM    6  C   UNL     1     -12.135  13.840  64.479  1.00  0.00    -0.428 A  
HETATM    7  C   UNL     1     -12.380  12.854  65.409  1.00  0.00    -0.485 A  
HETATM    8  N   UNL     1     -11.788  13.289  66.571  1.00  0.00    -0.380 NA 
ENDROOT
BRANCH   8   9
HETATM    9  C   UNL     1     -11.859  12.603  67.848  1.00  0.00    -0.332 C  
BRANCH   9  10
HETATM   10  C   UNL     1     -10.879  11.452  67.933  1.00  0.00    -0.225 C  
HETATM   11  N   UNL     1     -11.398  10.273  68.414  1.00  0.00    -0.494 N  
HETATM   12  O   UNL     1      -9.707  11.582  67.584  1.00  0.00    -0.170 OA 
HETATM   13  H   UNL     1     -12.383  10.243  68.680  1.00  0.00     0.000 HD 
BRANCH  11  14
HETATM   14  C   UNL     1     -10.598   9.074  68.555  1.00  0.00    -0.155 C  
BRANCH  14  15
HETATM   15  C   UNL     1     -10.906   8.368  69.849  1.00  0.00    -0.207 A  
HETATM   16  C   UNL     1     -11.142   9.106  71.020  1.00  0.00    -0.374 A  
HETATM   17  C   UNL     1     -11.435   8.458  72.222  1.00  0.00    -0.454 A  
HETATM   18  C   UNL     1     -11.486   7.068  72.269  1.00  0.00    -0.308 A  
HETATM   19  C   UNL     1     -11.245   6.322  71.116  1.00  0.00    -0.365 A  
HETATM   20  C   UNL     1     -10.952   6.969  69.912  1.00  0.00    -0.296 A  
ENDBRANCH  14  15
ENDBRANCH  11  14
ENDBRANCH   9  10
ENDBRANCH   8   9
TORSDOF 4
ENDMDL
MODEL       92
REMARK 921   NORMALIZED FREE ENERGY PREDICTED BY IDOCK:   -4.85 KCAL/MOL
REMARK 922        TOTAL FREE ENERGY PREDICTED BY IDOCK:   -6.60 KCAL/MOL
REMARK 923 INTER-LIGAND FREE ENERGY PREDICTED BY IDOCK:   -5.84 KCAL/MOL
REMARK 924 INTRA-LIGAND FREE ENERGY PREDICTED BY IDOCK:   -0.76 KCAL/MOL
REMARK 927      BINDING AFFINITY PREDICTED BY RF-SCORE:    0.00 PKD
ROOT
HETATM    1  O   UNL     1      -9.537   8.659  70.021  1.00  0.00    -0.166 OA 
HETATM    2  N   UNL     1      -8.761   7.688  70.011  1.00  0.00    -0.141 N  
HETATM    3  C   UNL     1      -9.120   6.574  70.835  1.00  0.00    -0.154 A  
HETATM    4  O   UNL     1      -7.749   7.579  69.313  1.00  0.00    -0.107 OA 
HETATM    5  N   UNL     1      -8.255   5.895  71.560  1.00  0.00    -0.118 NA 
HETATM    6  C   UNL     1      -8.997   4.901  72.145  1.00  0.00    -0.131 A  
HETATM    7  C   UNL     1     -10.314   4.977  71.754  1.00  0.00    -0.200 A  
HETATM    8  N   UNL     1     -10.390   6.073  70.927  1.00  0.00    -0.212 NA 
ENDROOT
BRANCH   8   9
HETATM    9  C   UNL     1     -11.581   6.494  70.211  1.00  0.00    -0.409 C  
BRANCH   9  10
HETATM   10  C   UNL     1     -12.518   7.300  71.086  1.00  0.00    -0.336 C  
HETATM   11  N   UNL     1     -12.374   8.664  70.998  1.00  0.00    -0.466 N  
HETATM   12  O   UNL     1     -13.346   6.753  71.811  1.00  0.00    -0.296 OA 
HETATM   13  H   UNL     1     -11.665   9.045  70.371  1.00  0.00     0.000 HD 
BRANCH  11  14
HETATM   14  C   UNL     1     -13.192   9.582  71.765  1.00  0.00    -0.422 C  
BRANCH  14  15
HETATM   15  C   UNL     1     -12.907  11.010  71.382  1.00  0.00    -0.548 A  
HETATM   16  C   UNL     1     -12.152  11.298  70.234  1.00  0.00    -0.459 A  
HETATM   17  C   UNL     1     -11.890  12.621  69.870  1.00  0.00    -0.364 A  
HETATM   18  C   UNL     1     -12.370  13.667  70.652  1.00  0.00    -0.440 A  
HETATM   19  C   UNL     1     -13.113  13.396  71.800  1.00  0.00    -0.479 A  
HETATM   20  C   UNL     1     -13.377  12.072  72.166  1.00  0.00    -0.396 A  
ENDBRANCH  14  15
ENDBRANCH  11  14
ENDBRANCH   9  10
ENDBRANCH   8   9
TORSDOF 4
ENDMDL
MODEL       93
REMARK 921   NORMALIZED FREE ENERGY PREDICTED BY IDOCK:   -4.85 KCAL/MOL
REMARK 922        TOTAL FREE ENERGY PREDICTED BY IDOCK:   -6.60 KCAL/MOL
REMARK 923 INTER-LIGAND FREE ENERGY PREDICTED BY IDOCK:   -6.12 KCAL/MOL
REMARK 924 INTRA-LIGAND FREE ENERGY PREDICTED BY IDOCK:   -0.47 KCAL/MOL
REMARK 927      BINDING AFFINITY PREDICTED BY RF-SCORE:    0.00 PKD
ROOT
HETATM    1  O   UNL     1      -9.089  17.586  66.171  1.00  0.00    -0.445 OA 
HETATM    2  N   UNL     1      -9.010  16.346  66.150  1.00  0.00    -0.334 N  
HETATM    3  C   UNL     1      -8.421  15.723  67.296  1.00  0.00    -0.189 A  
HETATM    4  O   UNL     1      -9.447  15.609  65.260  1.00  0.00    -0.256 OA 
HETATM    5  N   UNL     1      -7.582  14.710  67.224  1.00  0.00    -0.187 NA 
HETATM    6  C   UNL     1      -7.305  14.396  68.530  1.00  0.00    -0.122 A  
HETATM    7  C   UNL     1      -7.997  15.219  69.390  1.00  0.00    -0.223 A  
HETATM    8  N   UNL     1      -8.697  16.086  68.586  1.00  0.00    -0.195 NA 
ENDROOT
BRANCH   8   9
HETATM    9  C   UNL     1      -9.635  17.089  69.061  1.00  0.00    -0.197 C  
BRANCH   9  10
HETATM   10  C   UNL     1     -11.039  16.538  69.197  1.00  0.00    -0.270 C  
HETATM   11  N   UNL     1     -11.406  16.175  70.471  1.00  0.00    -0.407 N  
HETATM   12  O   UNL     1     -11.784  16.438  68.224  1.00  0.00    -0.176 OA 
HETATM   13  H   UNL     1     -10.732  16.292  71.228  1.00  0.00     0.000 HD 
BRANCH  11  14
HETATM   14  C   UNL     1     -12.714  15.634  70.776  1.00  0.00    -0.431 C  
BRANCH  14  15
HETATM   15  C   UNL     1     -12.678  14.130  70.833  1.00  0.00    -0.432 A  
HETATM   16  C   UNL     1     -12.022  13.399  69.830  1.00  0.00    -0.396 A  
HETATM   17  C   UNL     1     -11.979  12.004  69.880  1.00  0.00    -0.391 A  
HETATM   18  C   UNL     1     -12.596  11.325  70.927  1.00  0.00    -0.467 A  
HETATM   19  C   UNL     1     -13.259  12.037  71.925  1.00  0.00    -0.469 A  
HETATM   20  C   UNL     1     -13.304  13.434  71.876  1.00  0.00    -0.539 A  
ENDBRANCH  14  15
ENDBRANCH  11  14
ENDBRANCH   9  10
ENDBRANCH   8   9
TORSDOF 4
ENDMDL
MODEL       94
REMARK 921   NORMALIZED FREE ENERGY PREDICTED BY IDOCK:   -4.85 KCAL/MOL
REMARK 922        TOTAL FREE ENERGY PREDICTED BY IDOCK:   -6.60 KCAL/MOL
REMARK 923 INTER-LIGAND FREE ENERGY PREDICTED BY IDOCK:   -6.24 KCAL/MOL
REMARK 924 INTRA-LIGAND FREE ENERGY PREDICTED BY IDOCK:   -0.36 KCAL/MOL
REMARK 927      BINDING AFFINITY PREDICTED BY RF-SCORE:    0.00 PKD
ROOT
HETATM    1  O   UNL     1     -13.732  15.797  71.370  1.00  0.00    -0.531 OA 
HETATM    2  N   UNL     1     -13.415  14.990  72.260  1.00  0.00    -0.380 N  
HETATM    3  C   UNL     1     -13.180  13.640  71.845  1.00  0.00    -0.411 A  
HETATM    4  O   UNL     1     -13.229  15.261  73.449  1.00  0.00    -0.481 OA 
HETATM    5  N   UNL     1     -13.589  12.587  72.523  1.00  0.00    -0.318 NA 
HETATM    6  C   UNL     1     -13.119  11.513  71.811  1.00  0.00    -0.398 A  
HETATM    7  C   UNL     1     -12.410  11.927  70.707  1.00  0.00    -0.320 A  
HETATM    8  N   UNL     1     -12.473  13.300  70.723  1.00  0.00    -0.349 NA 
ENDROOT
BRANCH   8   9
HETATM    9  C   UNL     1     -11.793  14.176  69.784  1.00  0.00    -0.322 C  
BRANCH   9  10
HETATM   10  C   UNL     1     -11.293  13.428  68.567  1.00  0.00    -0.289 C  
HETATM   11  N   UNL     1     -10.027  12.904  68.679  1.00  0.00    -0.391 N  
HETATM   12  O   UNL     1     -11.989  13.304  67.561  1.00  0.00    -0.356 OA 
HETATM   13  H   UNL     1      -9.512  13.046  69.548  1.00  0.00     0.000 HD 
BRANCH  11  14
HETATM   14  C   UNL     1      -9.399  12.157  67.609  1.00  0.00    -0.187 C  
BRANCH  14  15
HETATM   15  C   UNL     1      -9.716  10.689  67.716  1.00  0.00    -0.179 A  
HETATM   16  C   UNL     1      -9.749  10.061  68.971  1.00  0.00    -0.204 A  
HETATM   17  C   UNL     1     -10.049   8.701  69.077  1.00  0.00    -0.207 A  
HETATM   18  C   UNL     1     -10.309   7.953  67.933  1.00  0.00    -0.281 A  
HETATM   19  C   UNL     1     -10.269   8.561  66.679  1.00  0.00    -0.345 A  
HETATM   20  C   UNL     1      -9.970   9.923  66.570  1.00  0.00    -0.291 A  
ENDBRANCH  14  15
ENDBRANCH  11  14
ENDBRANCH   9  10
ENDBRANCH   8   9
TORSDOF 4
ENDMDL
MODEL       95
REMARK 921   NORMALIZED FREE ENERGY PREDICTED BY IDOCK:   -4.83 KCAL/MOL
REMARK 922        TOTAL FREE ENERGY PREDICTED BY IDOCK:   -6.58 KCAL/MOL
REMARK 923 INTER-LIGAND FREE ENERGY PREDICTED BY IDOCK:   -6.27 KCAL/MOL
REMARK 924 INTRA-LIGAND FREE ENERGY PREDICTED BY IDOCK:   -0.31 KCAL/MOL
REMARK 927      BINDING AFFINITY PREDICTED BY RF-SCORE:    0.00 PKD
ROOT
HETATM    1  O   UNL     1     -11.076  17.986  65.009  1.00  0.00    -0.678 OA 
HETATM    2  N   UNL     1     -10.375  18.379  65.956  1.00  0.00    -0.409 N  
HETATM    3  C   UNL     1     -10.377  17.566  67.134  1.00  0.00    -0.330 A  
HETATM    4  O   UNL     1      -9.639  19.370  65.948  1.00  0.00    -0.410 OA 
HETATM    5  N   UNL     1     -10.416  18.053  68.357  1.00  0.00    -0.350 NA 
HETATM    6  C   UNL     1     -10.353  16.952  69.172  1.00  0.00    -0.319 A  
HETATM    7  C   UNL     1     -10.259  15.797  68.430  1.00  0.00    -0.223 A  
HETATM    8  N   UNL     1     -10.298  16.199  67.116  1.00  0.00    -0.287 NA 
ENDROOT
BRANCH   8   9
HETATM    9  C   UNL     1     -10.147  15.319  65.971  1.00  0.00    -0.318 C  
BRANCH   9  10
HETATM   10  C   UNL     1      -9.987  13.870  66.382  1.00  0.00    -0.297 C  
HETATM   11  N   UNL     1     -11.136  13.117  66.334  1.00  0.00    -0.285 N  
HETATM   12  O   UNL     1      -8.896  13.419  66.723  1.00  0.00    -0.213 OA 
HETATM   13  H   UNL     1     -12.004  13.562  66.036  1.00  0.00     0.000 HD 
BRANCH  11  14
HETATM   14  C   UNL     1     -11.157  11.713  66.691  1.00  0.00    -0.307 C  
BRANCH  14  15
HETATM   15  C   UNL     1     -11.429  11.533  68.161  1.00  0.00    -0.385 A  
HETATM   16  C   UNL     1     -11.030  10.358  68.817  1.00  0.00    -0.287 A  
HETATM   17  C   UNL     1     -11.272  10.188  70.182  1.00  0.00    -0.377 A  
HETATM   18  C   UNL     1     -11.923  11.184  70.904  1.00  0.00    -0.362 A  
HETATM   19  C   UNL     1     -12.334  12.353  70.263  1.00  0.00    -0.264 A  
HETATM   20  C   UNL     1     -12.092  12.525  68.897  1.00  0.00    -0.167 A  
ENDBRANCH  14  15
ENDBRANCH  11  14
ENDBRANCH   9  10
ENDBRANCH   8   9
TORSDOF 4
ENDMDL
MODEL       96
REMARK 921   NORMALIZED FREE ENERGY PREDICTED BY IDOCK:   -4.83 KCAL/MOL
REMARK 922        TOTAL FREE ENERGY PREDICTED BY IDOCK:   -6.58 KCAL/MOL
REMARK 923 INTER-LIGAND FREE ENERGY PREDICTED BY IDOCK:   -6.07 KCAL/MOL
REMARK 924 INTRA-LIGAND FREE ENERGY PREDICTED BY IDOCK:   -0.51 KCAL/MOL
REMARK 927      BINDING AFFINITY PREDICTED BY RF-SCORE:    0.00 PKD
ROOT
HETATM    1  O   UNL     1     -10.973  11.456  65.901  1.00  0.00    -0.274 OA 
HETATM    2  N   UNL     1     -11.723  12.376  66.270  1.00  0.00    -0.402 N  
HETATM    3  C   UNL     1     -11.388  13.018  67.505  1.00  0.00    -0.305 A  
HETATM    4  O   UNL     1     -12.687  12.819  65.639  1.00  0.00    -0.549 OA 
HETATM    5  N   UNL     1     -12.279  13.367  68.410  1.00  0.00    -0.215 NA 
HETATM    6  C   UNL     1     -11.551  13.983  69.394  1.00  0.00    -0.297 A  
HETATM    7  C   UNL     1     -10.214  14.017  69.068  1.00  0.00    -0.089 A  
HETATM    8  N   UNL     1     -10.114  13.372  67.858  1.00  0.00    -0.232 NA 
ENDROOT
BRANCH   8   9
HETATM    9  C   UNL     1      -8.892  13.236  67.085  1.00  0.00    -0.222 C  
BRANCH   9  10
HETATM   10  C   UNL     1      -8.073  14.510  67.085  1.00  0.00    -0.168 C  
HETATM   11  N   UNL     1      -8.585  15.537  66.329  1.00  0.00    -0.408 N  
HETATM   12  O   UNL     1      -7.030  14.600  67.730  1.00  0.00    -0.145 OA 
HETATM   13  H   UNL     1      -9.459  15.387  65.824  1.00  0.00     0.000 HD 
BRANCH  11  14
HETATM   14  C   UNL     1      -7.928  16.824  66.222  1.00  0.00    -0.316 C  
BRANCH  14  15
HETATM   15  C   UNL     1      -8.756  17.907  66.862  1.00  0.00    -0.258 A  
HETATM   16  C   UNL     1      -9.927  18.366  66.238  1.00  0.00    -0.378 A  
HETATM   17  C   UNL     1     -10.702  19.365  66.830  1.00  0.00    -0.570 A  
HETATM   18  C   UNL     1     -10.312  19.923  68.044  1.00  0.00    -0.547 A  
HETATM   19  C   UNL     1      -9.146  19.484  68.670  1.00  0.00    -0.396 A  
HETATM   20  C   UNL     1      -8.369  18.483  68.080  1.00  0.00    -0.295 A  
ENDBRANCH  14  15
ENDBRANCH  11  14
ENDBRANCH   9  10
ENDBRANCH   8   9
TORSDOF 4
ENDMDL
MODEL       97
REMARK 921   NORMALIZED FREE ENERGY PREDICTED BY IDOCK:   -4.82 KCAL/MOL
REMARK 922        TOTAL FREE ENERGY PREDICTED BY IDOCK:   -6.56 KCAL/MOL
REMARK 923 INTER-LIGAND FREE ENERGY PREDICTED BY IDOCK:   -6.21 KCAL/MOL
REMARK 924 INTRA-LIGAND FREE ENERGY PREDICTED BY IDOCK:   -0.35 KCAL/MOL
REMARK 927      BINDING AFFINITY PREDICTED BY RF-SCORE:    0.00 PKD
ROOT
HETATM    1  O   UNL     1     -13.005  12.530  64.942  1.00  0.00    -0.821 OA 
HETATM    2  N   UNL     1     -11.987  13.048  64.455  1.00  0.00    -0.374 N  
HETATM    3  C   UNL     1     -11.477  14.208  65.122  1.00  0.00    -0.336 A  
HETATM    4  O   UNL     1     -11.349  12.619  63.489  1.00  0.00    -0.458 OA 
HETATM    5  N   UNL     1     -11.021  15.270  64.491  1.00  0.00    -0.281 NA 
HETATM    6  C   UNL     1     -10.595  16.109  65.488  1.00  0.00    -0.377 A  
HETATM    7  C   UNL     1     -10.783  15.537  66.726  1.00  0.00    -0.305 A  
HETATM    8  N   UNL     1     -11.374  14.319  66.482  1.00  0.00    -0.336 NA 
ENDROOT
BRANCH   8   9
HETATM    9  C   UNL     1     -11.685  13.327  67.496  1.00  0.00    -0.366 C  
BRANCH   9  10
HETATM   10  C   UNL     1     -10.488  12.465  67.838  1.00  0.00    -0.215 C  
HETATM   11  N   UNL     1     -10.714  11.110  67.810  1.00  0.00    -0.207 N  
HETATM   12  O   UNL     1      -9.398  12.964  68.112  1.00  0.00    -0.206 OA 
HETATM   13  H   UNL     1     -11.647  10.772  67.569  1.00  0.00     0.000 HD 
BRANCH  11  14
HETATM   14  C   UNL     1      -9.677  10.144  68.108  1.00  0.00    -0.139 C  
BRANCH  14  15
HETATM   15  C   UNL     1     -10.267   8.794  68.414  1.00  0.00    -0.228 A  
HETATM   16  C   UNL     1     -10.619   8.456  69.731  1.00  0.00    -0.221 A  
HETATM   17  C   UNL     1     -11.174   7.207  70.020  1.00  0.00    -0.271 A  
HETATM   18  C   UNL     1     -11.373   6.280  69.002  1.00  0.00    -0.319 A  
HETATM   19  C   UNL     1     -11.018   6.597  67.691  1.00  0.00    -0.392 A  
HETATM   20  C   UNL     1     -10.464   7.848  67.399  1.00  0.00    -0.360 A  
ENDBRANCH  14  15
ENDBRANCH  11  14
ENDBRANCH   9  10
ENDBRANCH   8   9
TORSDOF 4
ENDMDL
MODEL       98
REMARK 921   NORMALIZED FREE ENERGY PREDICTED BY IDOCK:   -4.80 KCAL/MOL
REMARK 922        TOTAL FREE ENERGY PREDICTED BY IDOCK:   -6.54 KCAL/MOL
REMARK 923 INTER-LIGAND FREE ENERGY PREDICTED BY IDOCK:   -6.48 KCAL/MOL
REMARK 924 INTRA-LIGAND FREE ENERGY PREDICTED BY IDOCK:   -0.05 KCAL/MOL
REMARK 927      BINDING AFFINITY PREDICTED BY RF-SCORE:    0.00 PKD
ROOT
HETATM    1  O   UNL     1     -10.649   8.569  67.001  1.00  0.00    -0.306 OA 
HETATM    2  N   UNL     1     -10.018   9.386  66.310  1.00  0.00    -0.280 N  
HETATM    3  C   UNL     1      -9.936  10.723  66.816  1.00  0.00    -0.206 A  
HETATM    4  O   UNL     1      -9.411   9.133  65.265  1.00  0.00    -0.221 OA 
HETATM    5  N   UNL     1     -10.055  11.797  66.061  1.00  0.00    -0.223 NA 
HETATM    6  C   UNL     1      -9.866  12.847  66.922  1.00  0.00    -0.235 A  
HETATM    7  C   UNL     1      -9.617  12.398  68.199  1.00  0.00    -0.218 A  
HETATM    8  N   UNL     1      -9.686  11.027  68.126  1.00  0.00    -0.168 NA 
ENDROOT
BRANCH   8   9
HETATM    9  C   UNL     1      -9.409  10.120  69.227  1.00  0.00    -0.215 C  
BRANCH   9  10
HETATM   10  C   UNL     1     -10.482  10.173  70.293  1.00  0.00    -0.224 C  
HETATM   11  N   UNL     1     -11.404  11.182  70.149  1.00  0.00    -0.456 N  
HETATM   12  O   UNL     1     -10.513   9.356  71.212  1.00  0.00    -0.318 OA 
HETATM   13  H   UNL     1     -11.314  11.820  69.357  1.00  0.00     0.000 HD 
BRANCH  11  14
HETATM   14  C   UNL     1     -12.498  11.373  71.079  1.00  0.00    -0.383 C  
BRANCH  14  15
HETATM   15  C   UNL     1     -12.837  12.833  71.223  1.00  0.00    -0.355 A  
HETATM   16  C   UNL     1     -13.746  13.255  72.205  1.00  0.00    -0.686 A  
HETATM   17  C   UNL     1     -14.060  14.609  72.348  1.00  0.00    -0.542 A  
HETATM   18  C   UNL     1     -13.478  15.552  71.506  1.00  0.00    -0.582 A  
HETATM   19  C   UNL     1     -12.581  15.146  70.519  1.00  0.00    -0.429 A  
HETATM   20  C   UNL     1     -12.265  13.791  70.375  1.00  0.00    -0.433 A  
ENDBRANCH  14  15
ENDBRANCH  11  14
ENDBRANCH   9  10
ENDBRANCH   8   9
TORSDOF 4
ENDMDL
MODEL       99
REMARK 921   NORMALIZED FREE ENERGY PREDICTED BY IDOCK:   -4.78 KCAL/MOL
REMARK 922        TOTAL FREE ENERGY PREDICTED BY IDOCK:   -6.52 KCAL/MOL
REMARK 923 INTER-LIGAND FREE ENERGY PREDICTED BY IDOCK:   -5.73 KCAL/MOL
REMARK 924 INTRA-LIGAND FREE ENERGY PREDICTED BY IDOCK:   -0.79 KCAL/MOL
REMARK 927      BINDING AFFINITY PREDICTED BY RF-SCORE:    0.00 PKD
ROOT
HETATM    1  O   UNL     1     -11.603  15.555  67.705  1.00  0.00    -0.302 OA 
HETATM    2  N   UNL     1     -10.822  16.018  66.858  1.00  0.00    -0.258 N  
HETATM    3  C   UNL     1      -9.687  16.733  67.358  1.00  0.00    -0.245 A  
HETATM    4  O   UNL     1     -10.907  15.866  65.636  1.00  0.00    -0.329 OA 
HETATM    5  N   UNL     1      -9.236  17.850  66.824  1.00  0.00    -0.264 NA 
HETATM    6  C   UNL     1      -8.127  18.166  67.566  1.00  0.00    -0.238 A  
HETATM    7  C   UNL     1      -7.905  17.222  68.543  1.00  0.00    -0.266 A  
HETATM    8  N   UNL     1      -8.928  16.313  68.416  1.00  0.00    -0.196 NA 
ENDROOT
BRANCH   8   9
HETATM    9  C   UNL     1      -9.059  15.093  69.193  1.00  0.00    -0.215 C  
BRANCH   9  10
HETATM   10  C   UNL     1      -8.917  13.853  68.336  1.00  0.00    -0.178 C  
HETATM   11  N   UNL     1      -9.993  12.999  68.357  1.00  0.00    -0.267 N  
HETATM   12  O   UNL     1      -7.904  13.648  67.669  1.00  0.00    -0.145 OA 
HETATM   13  H   UNL     1     -10.800  13.239  68.933  1.00  0.00     0.000 HD 
BRANCH  11  14
HETATM   14  C   UNL     1     -10.023  11.769  67.592  1.00  0.00    -0.194 C  
BRANCH  14  15
HETATM   15  C   UNL     1     -10.670  11.984  66.249  1.00  0.00    -0.302 A  
HETATM   16  C   UNL     1     -11.956  12.541  66.164  1.00  0.00    -0.432 A  
HETATM   17  C   UNL     1     -12.559  12.749  64.921  1.00  0.00    -0.541 A  
HETATM   18  C   UNL     1     -11.889  12.396  63.753  1.00  0.00    -0.587 A  
HETATM   19  C   UNL     1     -10.616  11.833  63.823  1.00  0.00    -0.470 A  
HETATM   20  C   UNL     1     -10.010  11.624  65.066  1.00  0.00    -0.297 A  
ENDBRANCH  14  15
ENDBRANCH  11  14
ENDBRANCH   9  10
ENDBRANCH   8   9
TORSDOF 4
ENDMDL
MODEL      100
REMARK 921   NORMALIZED FREE ENERGY PREDICTED BY IDOCK:   -4.78 KCAL/MOL
REMARK 922        TOTAL FREE ENERGY PREDICTED BY IDOCK:   -6.51 KCAL/MOL
REMARK 923 INTER-LIGAND FREE ENERGY PREDICTED BY IDOCK:   -6.85 KCAL/MOL
REMARK 924 INTRA-LIGAND FREE ENERGY PREDICTED BY IDOCK:    0.34 KCAL/MOL
REMARK 927      BINDING AFFINITY PREDICTED BY RF-SCORE:    0.00 PKD
ROOT
HETATM    1  O   UNL     1     -13.941  14.547  70.969  1.00  0.00    -0.274 OA 
HETATM    2  N   UNL     1     -13.604  13.796  71.899  1.00  0.00    -0.409 N  
HETATM    3  C   UNL     1     -13.154  12.487  71.533  1.00  0.00    -0.277 A  
HETATM    4  O   UNL     1     -13.567  14.098  73.096  1.00  0.00    -0.579 OA 
HETATM    5  N   UNL     1     -13.480  11.393  72.191  1.00  0.00    -0.290 NA 
HETATM    6  C   UNL     1     -12.808  10.387  71.546  1.00  0.00    -0.464 A  
HETATM    7  C   UNL     1     -12.060  10.885  70.503  1.00  0.00    -0.371 A  
HETATM    8  N   UNL     1     -12.306  12.238  70.488  1.00  0.00    -0.306 NA 
ENDROOT
BRANCH   8   9
HETATM    9  C   UNL     1     -11.665  13.191  69.599  1.00  0.00    -0.303 C  
BRANCH   9  10
HETATM   10  C   UNL     1     -11.294  12.569  68.268  1.00  0.00    -0.286 C  
HETATM   11  N   UNL     1     -10.064  12.933  67.774  1.00  0.00    -0.223 N  
HETATM   12  O   UNL     1     -12.051  11.790  67.692  1.00  0.00    -0.598 OA 
HETATM   13  H   UNL     1      -9.490  13.583  68.312  1.00  0.00     0.000 HD 
BRANCH  11  14
HETATM   14  C   UNL     1      -9.554  12.428  66.516  1.00  0.00    -0.240 C  
BRANCH  14  15
HETATM   15  C   UNL     1     -10.481  12.772  65.379  1.00  0.00    -0.305 A  
HETATM   16  C   UNL     1     -10.883  14.100  65.171  1.00  0.00    -0.380 A  
HETATM   17  C   UNL     1     -11.737  14.427  64.115  1.00  0.00    -0.249 A  
HETATM   18  C   UNL     1     -12.204  13.430  63.263  1.00  0.00    -0.314 A  
HETATM   19  C   UNL     1     -11.821  12.105  63.464  1.00  0.00    -0.597 A  
HETATM   20  C   UNL     1     -10.966  11.776  64.521  1.00  0.00    -0.382 A  
ENDBRANCH  14  15
ENDBRANCH  11  14
ENDBRANCH   9  10
ENDBRANCH   8   9
TORSDOF 4
ENDMDL
MODEL      101
REMARK 921   NORMALIZED FREE ENERGY PREDICTED BY IDOCK:   -4.77 KCAL/MOL
REMARK 922        TOTAL FREE ENERGY PREDICTED BY IDOCK:   -6.51 KCAL/MOL
REMARK 923 INTER-LIGAND FREE ENERGY PREDICTED BY IDOCK:   -6.00 KCAL/MOL
REMARK 924 INTRA-LIGAND FREE ENERGY PREDICTED BY IDOCK:   -0.51 KCAL/MOL
REMARK 927      BINDING AFFINITY PREDICTED BY RF-SCORE:    0.00 PKD
ROOT
HETATM    1  O   UNL     1     -10.239  12.869  67.513  1.00  0.00    -0.211 OA 
HETATM    2  N   UNL     1     -11.344  12.407  67.182  1.00  0.00    -0.308 N  
HETATM    3  C   UNL     1     -11.571  12.236  65.779  1.00  0.00    -0.388 A  
HETATM    4  O   UNL     1     -12.231  12.031  67.953  1.00  0.00    -0.470 OA 
HETATM    5  N   UNL     1     -12.711  12.524  65.184  1.00  0.00    -0.670 NA 
HETATM    6  C   UNL     1     -12.517  12.172  63.873  1.00  0.00    -0.478 A  
HETATM    7  C   UNL     1     -11.255  11.653  63.685  1.00  0.00    -0.411 A  
HETATM    8  N   UNL     1     -10.644  11.719  64.915  1.00  0.00    -0.282 NA 
ENDROOT
BRANCH   8   9
HETATM    9  C   UNL     1      -9.318  11.206  65.214  1.00  0.00    -0.219 C  
BRANCH   9  10
HETATM   10  C   UNL     1      -9.317   9.703  65.397  1.00  0.00    -0.259 C  
HETATM   11  N   UNL     1     -10.185   9.227  66.350  1.00  0.00    -0.260 N  
HETATM   12  O   UNL     1      -8.587   8.977  64.724  1.00  0.00    -0.173 OA 
HETATM   13  H   UNL     1     -10.761   9.892  66.866  1.00  0.00     0.000 HD 
BRANCH  11  14
HETATM   14  C   UNL     1     -10.311   7.815  66.648  1.00  0.00    -0.192 C  
BRANCH  14  15
HETATM   15  C   UNL     1     -10.487   7.588  68.126  1.00  0.00    -0.233 A  
HETATM   16  C   UNL     1     -11.218   6.483  68.591  1.00  0.00    -0.302 A  
HETATM   17  C   UNL     1     -11.379   6.264  69.962  1.00  0.00    -0.486 A  
HETATM   18  C   UNL     1     -10.821   7.149  70.880  1.00  0.00    -0.266 A  
HETATM   19  C   UNL     1     -10.102   8.256  70.432  1.00  0.00    -0.199 A  
HETATM   20  C   UNL     1      -9.939   8.477  69.061  1.00  0.00    -0.197 A  
ENDBRANCH  14  15
ENDBRANCH  11  14
ENDBRANCH   9  10
ENDBRANCH   8   9
TORSDOF 4
ENDMDL
MODEL      102
REMARK 921   NORMALIZED FREE ENERGY PREDICTED BY IDOCK:   -4.76 KCAL/MOL
REMARK 922        TOTAL FREE ENERGY PREDICTED BY IDOCK:   -6.49 KCAL/MOL
REMARK 923 INTER-LIGAND FREE ENERGY PREDICTED BY IDOCK:   -5.86 KCAL/MOL
REMARK 924 INTRA-LIGAND FREE ENERGY PREDICTED BY IDOCK:   -0.63 KCAL/MOL
REMARK 927      BINDING AFFINITY PREDICTED BY RF-SCORE:    0.00 PKD
ROOT
HETATM    1  O   UNL     1     -13.732   7.539  71.263  1.00  0.00    -0.339 OA 
HETATM    2  N   UNL     1     -12.845   8.161  71.871  1.00  0.00    -0.329 N  
HETATM    3  C   UNL     1     -11.647   7.437  72.172  1.00  0.00    -0.293 A  
HETATM    4  O   UNL     1     -12.883   9.355  72.182  1.00  0.00    -0.386 OA 
HETATM    5  N   UNL     1     -11.008   7.530  73.320  1.00  0.00    -0.375 NA 
HETATM    6  C   UNL     1      -9.909   6.723  73.172  1.00  0.00    -0.179 A  
HETATM    7  C   UNL     1      -9.882   6.155  71.918  1.00  0.00    -0.156 A  
HETATM    8  N   UNL     1     -11.019   6.603  71.287  1.00  0.00    -0.244 NA 
ENDROOT
BRANCH   8   9
HETATM    9  C   UNL     1     -11.371   6.321  69.907  1.00  0.00    -0.434 C  
BRANCH   9  10
HETATM   10  C   UNL     1     -10.589   7.178  68.933  1.00  0.00    -0.201 C  
HETATM   11  N   UNL     1     -11.067   8.456  68.762  1.00  0.00    -0.379 N  
HETATM   12  O   UNL     1      -9.596   6.745  68.353  1.00  0.00    -0.127 OA 
HETATM   13  H   UNL     1     -11.896   8.744  69.282  1.00  0.00     0.000 HD 
BRANCH  11  14
HETATM   14  C   UNL     1     -10.436   9.407  67.870  1.00  0.00    -0.243 C  
BRANCH  14  15
HETATM   15  C   UNL     1     -10.954  10.800  68.110  1.00  0.00    -0.308 A  
HETATM   16  C   UNL     1     -11.051  11.713  67.048  1.00  0.00    -0.359 A  
HETATM   17  C   UNL     1     -11.538  13.004  67.263  1.00  0.00    -0.409 A  
HETATM   18  C   UNL     1     -11.923  13.400  68.540  1.00  0.00    -0.363 A  
HETATM   19  C   UNL     1     -11.822  12.507  69.607  1.00  0.00    -0.382 A  
HETATM   20  C   UNL     1     -11.336  11.214  69.393  1.00  0.00    -0.352 A  
ENDBRANCH  14  15
ENDBRANCH  11  14
ENDBRANCH   9  10
ENDBRANCH   8   9
TORSDOF 4
ENDMDL
MODEL      103
REMARK 921   NORMALIZED FREE ENERGY PREDICTED BY IDOCK:   -4.75 KCAL/MOL
REMARK 922        TOTAL FREE ENERGY PREDICTED BY IDOCK:   -6.48 KCAL/MOL
REMARK 923 INTER-LIGAND FREE ENERGY PREDICTED BY IDOCK:   -6.25 KCAL/MOL
REMARK 924 INTRA-LIGAND FREE ENERGY PREDICTED BY IDOCK:   -0.22 KCAL/MOL
REMARK 927      BINDING AFFINITY PREDICTED BY RF-SCORE:    0.00 PKD
ROOT
HETATM    1  O   UNL     1     -10.448   9.125  71.015  1.00  0.00    -0.246 OA 
HETATM    2  N   UNL     1     -10.164   7.971  70.653  1.00  0.00    -0.195 N  
HETATM    3  C   UNL     1     -10.493   7.624  69.304  1.00  0.00    -0.218 A  
HETATM    4  O   UNL     1      -9.575   7.124  71.333  1.00  0.00    -0.162 OA 
HETATM    5  N   UNL     1     -11.005   6.461  68.954  1.00  0.00    -0.327 NA 
HETATM    6  C   UNL     1     -11.118   6.529  67.589  1.00  0.00    -0.287 A  
HETATM    7  C   UNL     1     -10.655   7.737  67.117  1.00  0.00    -0.331 A  
HETATM    8  N   UNL     1     -10.274   8.446  68.232  1.00  0.00    -0.200 NA 
ENDROOT
BRANCH   8   9
HETATM    9  C   UNL     1      -9.647   9.755  68.211  1.00  0.00    -0.143 C  
BRANCH   9  10
HETATM   10  C   UNL     1     -10.665  10.875  68.155  1.00  0.00    -0.214 C  
HETATM   11  N   UNL     1     -10.330  12.008  68.857  1.00  0.00    -0.391 N  
HETATM   12  O   UNL     1     -11.708  10.760  67.514  1.00  0.00    -0.510 OA 
HETATM   13  H   UNL     1      -9.443  12.029  69.362  1.00  0.00     0.000 HD 
BRANCH  11  14
HETATM   14  C   UNL     1     -11.189  13.173  68.904  1.00  0.00    -0.277 C  
BRANCH  14  15
HETATM   15  C   UNL     1     -12.047  13.162  70.142  1.00  0.00    -0.392 A  
HETATM   16  C   UNL     1     -12.495  11.946  70.682  1.00  0.00    -0.347 A  
HETATM   17  C   UNL     1     -13.285  11.928  71.834  1.00  0.00    -0.467 A  
HETATM   18  C   UNL     1     -13.643  13.123  72.452  1.00  0.00    -0.667 A  
HETATM   19  C   UNL     1     -13.214  14.338  71.920  1.00  0.00    -0.456 A  
HETATM   20  C   UNL     1     -12.422  14.358  70.768  1.00  0.00    -0.423 A  
ENDBRANCH  14  15
ENDBRANCH  11  14
ENDBRANCH   9  10
ENDBRANCH   8   9
TORSDOF 4
ENDMDL
MODEL      104
REMARK 921   NORMALIZED FREE ENERGY PREDICTED BY IDOCK:   -4.74 KCAL/MOL
REMARK 922        TOTAL FREE ENERGY PREDICTED BY IDOCK:   -6.46 KCAL/MOL
REMARK 923 INTER-LIGAND FREE ENERGY PREDICTED BY IDOCK:   -5.79 KCAL/MOL
REMARK 924 INTRA-LIGAND FREE ENERGY PREDICTED BY IDOCK:   -0.67 KCAL/MOL
REMARK 927      BINDING AFFINITY PREDICTED BY RF-SCORE:    0.00 PKD
ROOT
HETATM    1  O   UNL     1     -12.189  15.666  69.200  1.00  0.00    -0.298 OA 
HETATM    2  N   UNL     1     -11.450  15.726  70.197  1.00  0.00    -0.330 N  
HETATM    3  C   UNL     1     -12.096  15.715  71.474  1.00  0.00    -0.425 A  
HETATM    4  O   UNL     1     -10.216  15.735  70.182  1.00  0.00    -0.288 OA 
HETATM    5  N   UNL     1     -11.729  16.478  72.484  1.00  0.00    -0.431 NA 
HETATM    6  C   UNL     1     -12.566  16.122  73.510  1.00  0.00    -0.569 A  
HETATM    7  C   UNL     1     -13.430  15.125  73.116  1.00  0.00    -0.373 A  
HETATM    8  N   UNL     1     -13.136  14.885  71.795  1.00  0.00    -0.317 NA 
ENDROOT
BRANCH   8   9
HETATM    9  C   UNL     1     -13.748  13.849  70.981  1.00  0.00     0.080 C  
BRANCH   9  10
HETATM   10  C   UNL     1     -12.880  12.613  70.883  1.00  0.00    -0.095 C  
HETATM   11  N   UNL     1     -12.155  12.496  69.721  1.00  0.00    -0.264 N  
HETATM   12  O   UNL     1     -12.835  11.788  71.793  1.00  0.00    -0.369 OA 
HETATM   13  H   UNL     1     -12.242  13.224  69.012  1.00  0.00     0.000 HD 
BRANCH  11  14
HETATM   14  C   UNL     1     -11.272  11.376  69.467  1.00  0.00    -0.256 C  
BRANCH  14  15
HETATM   15  C   UNL     1     -10.913  11.290  68.007  1.00  0.00    -0.302 A  
HETATM   16  C   UNL     1     -10.366  10.109  67.480  1.00  0.00    -0.279 A  
HETATM   17  C   UNL     1     -10.038  10.021  66.125  1.00  0.00    -0.317 A  
HETATM   18  C   UNL     1     -10.243  11.112  65.286  1.00  0.00    -0.337 A  
HETATM   19  C   UNL     1     -10.776  12.295  65.798  1.00  0.00    -0.298 A  
HETATM   20  C   UNL     1     -11.106  12.385  67.154  1.00  0.00    -0.328 A  
ENDBRANCH  14  15
ENDBRANCH  11  14
ENDBRANCH   9  10
ENDBRANCH   8   9
TORSDOF 4
ENDMDL
MODEL      105
REMARK 921   NORMALIZED FREE ENERGY PREDICTED BY IDOCK:   -4.73 KCAL/MOL
REMARK 922        TOTAL FREE ENERGY PREDICTED BY IDOCK:   -6.45 KCAL/MOL
REMARK 923 INTER-LIGAND FREE ENERGY PREDICTED BY IDOCK:   -6.11 KCAL/MOL
REMARK 924 INTRA-LIGAND FREE ENERGY PREDICTED BY IDOCK:   -0.34 KCAL/MOL
REMARK 927      BINDING AFFINITY PREDICTED BY RF-SCORE:    0.00 PKD
ROOT
HETATM    1  O   UNL     1      -9.864  15.005  65.298  1.00  0.00    -0.323 OA 
HETATM    2  N   UNL     1      -9.419  15.909  66.026  1.00  0.00    -0.336 N  
HETATM    3  C   UNL     1      -9.993  16.019  67.333  1.00  0.00    -0.241 A  
HETATM    4  O   UNL     1      -8.493  16.675  65.743  1.00  0.00    -0.433 OA 
HETATM    5  N   UNL     1     -10.289  17.168  67.905  1.00  0.00    -0.335 NA 
HETATM    6  C   UNL     1     -10.762  16.826  69.145  1.00  0.00    -0.329 A  
HETATM    7  C   UNL     1     -10.734  15.462  69.323  1.00  0.00    -0.251 A  
HETATM    8  N   UNL     1     -10.258  14.946  68.140  1.00  0.00    -0.223 NA 
ENDROOT
BRANCH   8   9
HETATM    9  C   UNL     1      -9.984  13.542  67.895  1.00  0.00    -0.245 C  
BRANCH   9  10
HETATM   10  C   UNL     1     -11.118  12.650  68.355  1.00  0.00    -0.265 C  
HETATM   11  N   UNL     1     -10.958  12.093  69.602  1.00  0.00    -0.466 N  
HETATM   12  O   UNL     1     -12.107  12.457  67.650  1.00  0.00    -0.470 OA 
HETATM   13  H   UNL     1     -10.110  12.304  70.129  1.00  0.00     0.000 HD 
BRANCH  11  14
HETATM   14  C   UNL     1     -11.950  11.220  70.194  1.00  0.00    -0.369 C  
BRANCH  14  15
HETATM   15  C   UNL     1     -11.370   9.860  70.481  1.00  0.00    -0.399 A  
HETATM   16  C   UNL     1     -11.415   9.331  71.781  1.00  0.00    -0.448 A  
HETATM   17  C   UNL     1     -10.885   8.068  72.053  1.00  0.00    -0.333 A  
HETATM   18  C   UNL     1     -10.297   7.324  71.033  1.00  0.00    -0.208 A  
HETATM   19  C   UNL     1     -10.237   7.841  69.740  1.00  0.00    -0.211 A  
HETATM   20  C   UNL     1     -10.768   9.106  69.465  1.00  0.00    -0.226 A  
ENDBRANCH  14  15
ENDBRANCH  11  14
ENDBRANCH   9  10
ENDBRANCH   8   9
TORSDOF 4
ENDMDL
MODEL      106
REMARK 921   NORMALIZED FREE ENERGY PREDICTED BY IDOCK:   -4.73 KCAL/MOL
REMARK 922        TOTAL FREE ENERGY PREDICTED BY IDOCK:   -6.45 KCAL/MOL
REMARK 923 INTER-LIGAND FREE ENERGY PREDICTED BY IDOCK:   -6.24 KCAL/MOL
REMARK 924 INTRA-LIGAND FREE ENERGY PREDICTED BY IDOCK:   -0.20 KCAL/MOL
REMARK 927      BINDING AFFINITY PREDICTED BY RF-SCORE:    0.00 PKD
ROOT
HETATM    1  O   UNL     1     -12.271  15.972  63.734  1.00  0.00    -0.895 OA 
HETATM    2  N   UNL     1     -12.023  15.140  64.623  1.00  0.00    -0.352 N  
HETATM    3  C   UNL     1     -10.730  15.222  65.233  1.00  0.00    -0.415 A  
HETATM    4  O   UNL     1     -12.808  14.295  65.062  1.00  0.00    -0.674 OA 
HETATM    5  N   UNL     1      -9.997  14.169  65.531  1.00  0.00    -0.319 NA 
HETATM    6  C   UNL     1      -8.878  14.685  66.132  1.00  0.00     0.163 A  
HETATM    7  C   UNL     1      -8.950  16.058  66.209  1.00  0.00    -0.345 A  
HETATM    8  N   UNL     1     -10.138  16.398  65.606  1.00  0.00    -0.523 NA 
ENDROOT
BRANCH   8   9
HETATM    9  C   UNL     1     -10.675  17.745  65.525  1.00  0.00    -0.009 C  
BRANCH   9  10
HETATM   10  C   UNL     1      -9.787  18.756  66.220  1.00  0.00    -0.353 C  
HETATM   11  N   UNL     1      -9.863  18.758  67.592  1.00  0.00    -0.312 N  
HETATM   12  O   UNL     1      -9.052  19.507  65.582  1.00  0.00    -0.313 OA 
HETATM   13  H   UNL     1     -10.494  18.101  68.051  1.00  0.00     0.000 HD 
BRANCH  11  14
HETATM   14  C   UNL     1      -9.077  19.659  68.411  1.00  0.00    -0.328 C  
BRANCH  14  15
HETATM   15  C   UNL     1      -7.702  19.100  68.663  1.00  0.00    -0.387 A  
HETATM   16  C   UNL     1      -6.581  19.945  68.651  1.00  0.00    -0.334 A  
HETATM   17  C   UNL     1      -5.303  19.433  68.892  1.00  0.00    -0.207 A  
HETATM   18  C   UNL     1      -5.131  18.074  69.137  1.00  0.00    -0.181 A  
HETATM   19  C   UNL     1      -6.235  17.222  69.142  1.00  0.00    -0.225 A  
HETATM   20  C   UNL     1      -7.515  17.732  68.902  1.00  0.00    -0.235 A  
ENDBRANCH  14  15
ENDBRANCH  11  14
ENDBRANCH   9  10
ENDBRANCH   8   9
TORSDOF 4
ENDMDL
MODEL      107
REMARK 921   NORMALIZED FREE ENERGY PREDICTED BY IDOCK:   -4.72 KCAL/MOL
REMARK 922        TOTAL FREE ENERGY PREDICTED BY IDOCK:   -6.44 KCAL/MOL
REMARK 923 INTER-LIGAND FREE ENERGY PREDICTED BY IDOCK:   -5.69 KCAL/MOL
REMARK 924 INTRA-LIGAND FREE ENERGY PREDICTED BY IDOCK:   -0.75 KCAL/MOL
REMARK 927      BINDING AFFINITY PREDICTED BY RF-SCORE:    0.00 PKD
ROOT
HETATM    1  O   UNL     1      -9.605  10.423  69.460  1.00  0.00    -0.215 OA 
HETATM    2  N   UNL     1      -9.039   9.380  69.831  1.00  0.00    -0.187 N  
HETATM    3  C   UNL     1      -9.446   8.847  71.095  1.00  0.00    -0.265 A  
HETATM    4  O   UNL     1      -8.208   8.739  69.181  1.00  0.00    -0.115 OA 
HETATM    5  N   UNL     1      -8.607   8.347  71.979  1.00  0.00    -0.177 NA 
HETATM    6  C   UNL     1      -9.404   7.913  73.007  1.00  0.00    -0.265 A  
HETATM    7  C   UNL     1     -10.733   8.140  72.728  1.00  0.00    -0.321 A  
HETATM    8  N   UNL     1     -10.750   8.764  71.503  1.00  0.00    -0.274 NA 
ENDROOT
BRANCH   8   9
HETATM    9  C   UNL     1     -11.950   9.124  70.769  1.00  0.00    -0.191 C  
BRANCH   9  10
HETATM   10  C   UNL     1     -12.580  10.397  71.294  1.00  0.00    -0.419 C  
HETATM   11  N   UNL     1     -12.122  11.558  70.719  1.00  0.00    -0.378 N  
HETATM   12  O   UNL     1     -13.444  10.370  72.168  1.00  0.00    -0.396 OA 
HETATM   13  H   UNL     1     -11.405  11.500  69.996  1.00  0.00     0.000 HD 
BRANCH  11  14
HETATM   14  C   UNL     1     -12.621  12.863  71.103  1.00  0.00    -0.281 C  
BRANCH  14  15
HETATM   15  C   UNL     1     -12.087  13.936  70.192  1.00  0.00    -0.418 A  
HETATM   16  C   UNL     1     -11.971  13.700  68.813  1.00  0.00    -0.394 A  
HETATM   17  C   UNL     1     -11.483  14.694  67.961  1.00  0.00    -0.346 A  
HETATM   18  C   UNL     1     -11.097  15.927  68.477  1.00  0.00    -0.340 A  
HETATM   19  C   UNL     1     -11.198  16.172  69.846  1.00  0.00    -0.349 A  
HETATM   20  C   UNL     1     -11.687  15.179  70.701  1.00  0.00    -0.356 A  
ENDBRANCH  14  15
ENDBRANCH  11  14
ENDBRANCH   9  10
ENDBRANCH   8   9
TORSDOF 4
ENDMDL
MODEL      108
REMARK 921   NORMALIZED FREE ENERGY PREDICTED BY IDOCK:   -4.70 KCAL/MOL
REMARK 922        TOTAL FREE ENERGY PREDICTED BY IDOCK:   -6.42 KCAL/MOL
REMARK 923 INTER-LIGAND FREE ENERGY PREDICTED BY IDOCK:   -6.01 KCAL/MOL
REMARK 924 INTRA-LIGAND FREE ENERGY PREDICTED BY IDOCK:   -0.41 KCAL/MOL
REMARK 927      BINDING AFFINITY PREDICTED BY RF-SCORE:    0.00 PKD
ROOT
HETATM    1  O   UNL     1     -11.781   6.540  69.566  1.00  0.00    -0.329 OA 
HETATM    2  N   UNL     1     -12.075   6.881  70.724  1.00  0.00    -0.377 N  
HETATM    3  C   UNL     1     -11.015   7.417  71.522  1.00  0.00    -0.230 A  
HETATM    4  O   UNL     1     -13.205   6.854  71.220  1.00  0.00    -0.311 OA 
HETATM    5  N   UNL     1     -10.841   7.125  72.795  1.00  0.00    -0.276 NA 
HETATM    6  C   UNL     1      -9.761   7.876  73.180  1.00  0.00    -0.286 A  
HETATM    7  C   UNL     1      -9.293   8.637  72.132  1.00  0.00    -0.273 A  
HETATM    8  N   UNL     1     -10.094   8.318  71.060  1.00  0.00    -0.187 NA 
ENDROOT
BRANCH   8   9
HETATM    9  C   UNL     1     -10.019   8.941  69.750  1.00  0.00    -0.191 C  
BRANCH   9  10
HETATM   10  C   UNL     1     -10.724  10.280  69.715  1.00  0.00    -0.285 C  
HETATM   11  N   UNL     1     -10.334  11.121  68.700  1.00  0.00    -0.195 N  
HETATM   12  O   UNL     1     -11.587  10.571  70.540  1.00  0.00    -0.306 OA 
HETATM   13  H   UNL     1      -9.613  10.806  68.050  1.00  0.00     0.000 HD 
BRANCH  11  14
HETATM   14  C   UNL     1     -10.911  12.438  68.519  1.00  0.00    -0.245 C  
BRANCH  14  15
HETATM   15  C   UNL     1     -11.370  12.636  67.099  1.00  0.00    -0.373 A  
HETATM   16  C   UNL     1     -12.225  13.701  66.773  1.00  0.00    -0.416 A  
HETATM   17  C   UNL     1     -12.649  13.895  65.456  1.00  0.00    -0.560 A  
HETATM   18  C   UNL     1     -12.232  13.024  64.454  1.00  0.00    -0.471 A  
HETATM   19  C   UNL     1     -11.390  11.957  64.765  1.00  0.00    -0.344 A  
HETATM   20  C   UNL     1     -10.964  11.761  66.082  1.00  0.00    -0.355 A  
ENDBRANCH  14  15
ENDBRANCH  11  14
ENDBRANCH   9  10
ENDBRANCH   8   9
TORSDOF 4
ENDMDL
MODEL      109
REMARK 921   NORMALIZED FREE ENERGY PREDICTED BY IDOCK:   -4.69 KCAL/MOL
REMARK 922        TOTAL FREE ENERGY PREDICTED BY IDOCK:   -6.41 KCAL/MOL
REMARK 923 INTER-LIGAND FREE ENERGY PREDICTED BY IDOCK:   -6.09 KCAL/MOL
REMARK 924 INTRA-LIGAND FREE ENERGY PREDICTED BY IDOCK:   -0.32 KCAL/MOL
REMARK 927      BINDING AFFINITY PREDICTED BY RF-SCORE:    0.00 PKD
ROOT
HETATM    1  O   UNL     1      -6.630  17.783  68.667  1.00  0.00    -0.200 OA 
HETATM    2  N   UNL     1      -7.349  18.783  68.824  1.00  0.00    -0.307 N  
HETATM    3  C   UNL     1      -8.643  18.743  68.213  1.00  0.00    -0.327 A  
HETATM    4  O   UNL     1      -7.071  19.774  69.506  1.00  0.00    -0.339 OA 
HETATM    5  N   UNL     1      -9.189  19.770  67.594  1.00  0.00    -0.328 NA 
HETATM    6  C   UNL     1     -10.427  19.323  67.207  1.00  0.00    -0.462 A  
HETATM    7  C   UNL     1     -10.628  18.023  67.611  1.00  0.00    -0.399 A  
HETATM    8  N   UNL     1      -9.464  17.648  68.239  1.00  0.00    -0.285 NA 
ENDROOT
BRANCH   8   9
HETATM    9  C   UNL     1      -9.248  16.374  68.901  1.00  0.00    -0.259 C  
BRANCH   9  10
HETATM   10  C   UNL     1     -10.548  15.649  69.182  1.00  0.00    -0.237 C  
HETATM   11  N   UNL     1     -10.912  14.712  68.245  1.00  0.00    -0.245 N  
HETATM   12  O   UNL     1     -11.212  15.893  70.188  1.00  0.00    -0.306 OA 
HETATM   13  H   UNL     1     -10.306  14.563  67.438  1.00  0.00     0.000 HD 
BRANCH  11  14
HETATM   14  C   UNL     1     -12.124  13.927  68.363  1.00  0.00    -0.291 C  
BRANCH  14  15
HETATM   15  C   UNL     1     -11.827  12.551  68.898  1.00  0.00    -0.346 A  
HETATM   16  C   UNL     1     -11.264  11.573  68.063  1.00  0.00    -0.335 A  
HETATM   17  C   UNL     1     -10.979  10.297  68.555  1.00  0.00    -0.294 A  
HETATM   18  C   UNL     1     -11.263   9.982  69.880  1.00  0.00    -0.327 A  
HETATM   19  C   UNL     1     -11.831  10.940  70.718  1.00  0.00    -0.424 A  
HETATM   20  C   UNL     1     -12.116  12.218  70.228  1.00  0.00    -0.376 A  
ENDBRANCH  14  15
ENDBRANCH  11  14
ENDBRANCH   9  10
ENDBRANCH   8   9
TORSDOF 4
ENDMDL
MODEL      110
REMARK 921   NORMALIZED FREE ENERGY PREDICTED BY IDOCK:   -4.69 KCAL/MOL
REMARK 922        TOTAL FREE ENERGY PREDICTED BY IDOCK:   -6.40 KCAL/MOL
REMARK 923 INTER-LIGAND FREE ENERGY PREDICTED BY IDOCK:   -6.29 KCAL/MOL
REMARK 924 INTRA-LIGAND FREE ENERGY PREDICTED BY IDOCK:   -0.11 KCAL/MOL
REMARK 927      BINDING AFFINITY PREDICTED BY RF-SCORE:    0.00 PKD
ROOT
HETATM    1  O   UNL     1     -10.900  19.598  65.804  1.00  0.00    -0.468 OA 
HETATM    2  N   UNL     1     -10.106  19.406  66.740  1.00  0.00    -0.362 N  
HETATM    3  C   UNL     1     -10.248  18.175  67.457  1.00  0.00    -0.371 A  
HETATM    4  O   UNL     1      -9.177  20.151  67.065  1.00  0.00    -0.345 OA 
HETATM    5  N   UNL     1     -10.150  18.079  68.767  1.00  0.00    -0.385 NA 
HETATM    6  C   UNL     1     -10.300  16.741  69.028  1.00  0.00    -0.326 A  
HETATM    7  C   UNL     1     -10.473  16.029  67.863  1.00  0.00    -0.292 A  
HETATM    8  N   UNL     1     -10.461  16.964  66.855  1.00  0.00    -0.300 NA 
ENDROOT
BRANCH   8   9
HETATM    9  C   UNL     1     -10.531  16.661  65.437  1.00  0.00    -0.233 C  
BRANCH   9  10
HETATM   10  C   UNL     1     -10.748  15.184  65.179  1.00  0.00    -0.422 C  
HETATM   11  N   UNL     1     -11.952  14.684  65.614  1.00  0.00    -0.292 N  
HETATM   12  O   UNL     1      -9.897  14.502  64.613  1.00  0.00    -0.102 OA 
HETATM   13  H   UNL     1     -12.610  15.315  66.073  1.00  0.00     0.000 HD 
BRANCH  11  14
HETATM   14  C   UNL     1     -12.321  13.294  65.444  1.00  0.00    -0.479 C  
BRANCH  14  15
HETATM   15  C   UNL     1     -11.705  12.435  66.517  1.00  0.00    -0.443 A  
HETATM   16  C   UNL     1     -11.935  12.722  67.872  1.00  0.00    -0.320 A  
HETATM   17  C   UNL     1     -11.372  11.925  68.872  1.00  0.00    -0.335 A  
HETATM   18  C   UNL     1     -10.567  10.843  68.530  1.00  0.00    -0.219 A  
HETATM   19  C   UNL     1     -10.322  10.553  67.189  1.00  0.00    -0.285 A  
HETATM   20  C   UNL     1     -10.885  11.348  66.186  1.00  0.00    -0.310 A  
ENDBRANCH  14  15
ENDBRANCH  11  14
ENDBRANCH   9  10
ENDBRANCH   8   9
TORSDOF 4
ENDMDL
MODEL      111
REMARK 921   NORMALIZED FREE ENERGY PREDICTED BY IDOCK:   -4.68 KCAL/MOL
REMARK 922        TOTAL FREE ENERGY PREDICTED BY IDOCK:   -6.40 KCAL/MOL
REMARK 923 INTER-LIGAND FREE ENERGY PREDICTED BY IDOCK:   -5.68 KCAL/MOL
REMARK 924 INTRA-LIGAND FREE ENERGY PREDICTED BY IDOCK:   -0.71 KCAL/MOL
REMARK 927      BINDING AFFINITY PREDICTED BY RF-SCORE:    0.00 PKD
ROOT
HETATM    1  O   UNL     1      -8.905   9.917  68.019  1.00  0.00    -0.125 OA 
HETATM    2  N   UNL     1      -9.834   9.217  67.582  1.00  0.00    -0.163 N  
HETATM    3  C   UNL     1     -10.344   8.210  68.463  1.00  0.00    -0.198 A  
HETATM    4  O   UNL     1     -10.389   9.352  66.488  1.00  0.00    -0.251 OA 
HETATM    5  N   UNL     1     -10.668   6.995  68.070  1.00  0.00    -0.208 NA 
HETATM    6  C   UNL     1     -11.149   6.383  69.199  1.00  0.00    -0.365 A  
HETATM    7  C   UNL     1     -11.128   7.245  70.272  1.00  0.00    -0.266 A  
HETATM    8  N   UNL     1     -10.586   8.414  69.794  1.00  0.00    -0.222 NA 
ENDROOT
BRANCH   8   9
HETATM    9  C   UNL     1     -10.442   9.640  70.560  1.00  0.00    -0.303 C  
BRANCH   9  10
HETATM   10  C   UNL     1     -11.504  10.660  70.208  1.00  0.00    -0.337 C  
HETATM   11  N   UNL     1     -11.029  11.893  69.829  1.00  0.00    -0.462 N  
HETATM   12  O   UNL     1     -12.701  10.382  70.258  1.00  0.00    -0.283 OA 
HETATM   13  H   UNL     1     -10.021  12.047  69.810  1.00  0.00     0.000 HD 
BRANCH  11  14
HETATM   14  C   UNL     1     -11.909  12.982  69.457  1.00  0.00    -0.323 C  
BRANCH  14  15
HETATM   15  C   UNL     1     -11.687  13.391  68.025  1.00  0.00    -0.391 A  
HETATM   16  C   UNL     1     -11.305  14.706  67.715  1.00  0.00    -0.338 A  
HETATM   17  C   UNL     1     -11.090  15.090  66.389  1.00  0.00    -0.329 A  
HETATM   18  C   UNL     1     -11.265  14.169  65.360  1.00  0.00    -0.325 A  
HETATM   19  C   UNL     1     -11.654  12.863  65.652  1.00  0.00    -0.401 A  
HETATM   20  C   UNL     1     -11.869  12.476  66.979  1.00  0.00    -0.394 A  
ENDBRANCH  14  15
ENDBRANCH  11  14
ENDBRANCH   9  10
ENDBRANCH   8   9
TORSDOF 4
ENDMDL
MODEL      112
REMARK 921   NORMALIZED FREE ENERGY PREDICTED BY IDOCK:   -4.68 KCAL/MOL
REMARK 922        TOTAL FREE ENERGY PREDICTED BY IDOCK:   -6.39 KCAL/MOL
REMARK 923 INTER-LIGAND FREE ENERGY PREDICTED BY IDOCK:   -5.90 KCAL/MOL
REMARK 924 INTRA-LIGAND FREE ENERGY PREDICTED BY IDOCK:   -0.50 KCAL/MOL
REMARK 927      BINDING AFFINITY PREDICTED BY RF-SCORE:    0.00 PKD
ROOT
HETATM    1  O   UNL     1     -12.468  12.820  65.873  1.00  0.00    -0.560 OA 
HETATM    2  N   UNL     1     -11.870  13.908  65.813  1.00  0.00    -0.360 N  
HETATM    3  C   UNL     1     -11.258  14.369  67.022  1.00  0.00    -0.328 A  
HETATM    4  O   UNL     1     -11.710  14.590  64.796  1.00  0.00    -0.382 OA 
HETATM    5  N   UNL     1     -11.288  15.623  67.422  1.00  0.00    -0.230 NA 
HETATM    6  C   UNL     1     -10.553  15.636  68.580  1.00  0.00    -0.256 A  
HETATM    7  C   UNL     1     -10.066  14.381  68.866  1.00  0.00    -0.200 A  
HETATM    8  N   UNL     1     -10.544  13.564  67.869  1.00  0.00    -0.244 NA 
ENDROOT
BRANCH   8   9
HETATM    9  C   UNL     1     -10.218  12.157  67.716  1.00  0.00    -0.201 C  
BRANCH   9  10
HETATM   10  C   UNL     1     -10.994  11.284  68.680  1.00  0.00    -0.218 C  
HETATM   11  N   UNL     1     -10.251  10.725  69.693  1.00  0.00    -0.436 N  
HETATM   12  O   UNL     1     -12.203  11.107  68.551  1.00  0.00    -0.600 OA 
HETATM   13  H   UNL     1      -9.251  10.922  69.735  1.00  0.00     0.000 HD 
BRANCH  11  14
HETATM   14  C   UNL     1     -10.838   9.867  70.701  1.00  0.00    -0.330 C  
BRANCH  14  15
HETATM   15  C   UNL     1     -10.612   8.415  70.374  1.00  0.00    -0.236 A  
HETATM   16  C   UNL     1     -11.602   7.462  70.661  1.00  0.00    -0.295 A  
HETATM   17  C   UNL     1     -11.401   6.114  70.354  1.00  0.00    -0.399 A  
HETATM   18  C   UNL     1     -10.208   5.703  69.766  1.00  0.00    -0.321 A  
HETATM   19  C   UNL     1      -9.212   6.637  69.484  1.00  0.00    -0.143 A  
HETATM   20  C   UNL     1      -9.412   7.987  69.791  1.00  0.00    -0.159 A  
ENDBRANCH  14  15
ENDBRANCH  11  14
ENDBRANCH   9  10
ENDBRANCH   8   9
TORSDOF 4
ENDMDL
MODEL      113
REMARK 921   NORMALIZED FREE ENERGY PREDICTED BY IDOCK:   -4.67 KCAL/MOL
REMARK 922        TOTAL FREE ENERGY PREDICTED BY IDOCK:   -6.38 KCAL/MOL
REMARK 923 INTER-LIGAND FREE ENERGY PREDICTED BY IDOCK:   -5.88 KCAL/MOL
REMARK 924 INTRA-LIGAND FREE ENERGY PREDICTED BY IDOCK:   -0.51 KCAL/MOL
REMARK 927      BINDING AFFINITY PREDICTED BY RF-SCORE:    0.00 PKD
ROOT
HETATM    1  O   UNL     1     -11.592   9.983  71.475  1.00  0.00    -0.353 OA 
HETATM    2  N   UNL     1     -11.164   8.820  71.556  1.00  0.00    -0.282 N  
HETATM    3  C   UNL     1     -11.088   8.080  70.332  1.00  0.00    -0.238 A  
HETATM    4  O   UNL     1     -10.748   8.272  72.581  1.00  0.00    -0.343 OA 
HETATM    5  N   UNL     1     -11.426   6.811  70.225  1.00  0.00    -0.350 NA 
HETATM    6  C   UNL     1     -11.158   6.490  68.919  1.00  0.00    -0.301 A  
HETATM    7  C   UNL     1     -10.640   7.572  68.243  1.00  0.00    -0.136 A  
HETATM    8  N   UNL     1     -10.619   8.600  69.156  1.00  0.00    -0.210 NA 
ENDROOT
BRANCH   8   9
HETATM    9  C   UNL     1     -10.073   9.923  68.908  1.00  0.00    -0.184 C  
BRANCH   9  10
HETATM   10  C   UNL     1     -10.987  10.763  68.041  1.00  0.00    -0.283 C  
HETATM   11  N   UNL     1     -10.426  11.224  66.873  1.00  0.00    -0.234 N  
HETATM   12  O   UNL     1     -12.147  10.998  68.373  1.00  0.00    -0.594 OA 
HETATM   13  H   UNL     1      -9.457  10.984  66.665  1.00  0.00     0.000 HD 
BRANCH  11  14
HETATM   14  C   UNL     1     -11.163  12.039  65.929  1.00  0.00    -0.337 C  
BRANCH  14  15
HETATM   15  C   UNL     1     -10.660  13.458  65.931  1.00  0.00    -0.286 A  
HETATM   16  C   UNL     1      -9.483  13.791  66.619  1.00  0.00    -0.289 A  
HETATM   17  C   UNL     1      -9.007  15.105  66.620  1.00  0.00    -0.319 A  
HETATM   18  C   UNL     1      -9.707  16.099  65.943  1.00  0.00    -0.374 A  
HETATM   19  C   UNL     1     -10.883  15.785  65.264  1.00  0.00    -0.409 A  
HETATM   20  C   UNL     1     -11.361  14.470  65.261  1.00  0.00    -0.353 A  
ENDBRANCH  14  15
ENDBRANCH  11  14
ENDBRANCH   9  10
ENDBRANCH   8   9
TORSDOF 4
ENDMDL
MODEL      114
REMARK 921   NORMALIZED FREE ENERGY PREDICTED BY IDOCK:   -4.67 KCAL/MOL
REMARK 922        TOTAL FREE ENERGY PREDICTED BY IDOCK:   -6.38 KCAL/MOL
REMARK 923 INTER-LIGAND FREE ENERGY PREDICTED BY IDOCK:   -6.00 KCAL/MOL
REMARK 924 INTRA-LIGAND FREE ENERGY PREDICTED BY IDOCK:   -0.38 KCAL/MOL
REMARK 927      BINDING AFFINITY PREDICTED BY RF-SCORE:    0.00 PKD
ROOT
HETATM    1  O   UNL     1     -10.479   8.445  67.041  1.00  0.00    -0.307 OA 
HETATM    2  N   UNL     1      -9.242   8.523  67.129  1.00  0.00    -0.139 N  
HETATM    3  C   UNL     1      -8.677   9.837  67.059  1.00  0.00    -0.135 A  
HETATM    4  O   UNL     1      -8.470   7.580  67.328  1.00  0.00    -0.117 OA 
HETATM    5  N   UNL     1      -7.579  10.123  66.391  1.00  0.00    -0.104 NA 
HETATM    6  C   UNL     1      -7.370  11.458  66.624  1.00  0.00    -0.107 A  
HETATM    7  C   UNL     1      -8.343  11.971  67.451  1.00  0.00    -0.171 A  
HETATM    8  N   UNL     1      -9.196  10.924  67.709  1.00  0.00    -0.151 NA 
ENDROOT
BRANCH   8   9
HETATM    9  C   UNL     1     -10.335  10.980  68.608  1.00  0.00    -0.193 C  
BRANCH   9  10
HETATM   10  C   UNL     1     -11.234  12.163  68.317  1.00  0.00    -0.268 C  
HETATM   11  N   UNL     1     -11.211  13.163  69.260  1.00  0.00    -0.395 N  
HETATM   12  O   UNL     1     -11.921  12.210  67.299  1.00  0.00    -0.573 OA 
HETATM   13  H   UNL     1     -10.611  13.054  70.078  1.00  0.00     0.000 HD 
BRANCH  11  14
HETATM   14  C   UNL     1     -12.008  14.366  69.134  1.00  0.00    -0.322 C  
BRANCH  14  15
HETATM   15  C   UNL     1     -12.482  14.844  70.481  1.00  0.00    -0.419 A  
HETATM   16  C   UNL     1     -11.676  15.694  71.255  1.00  0.00    -0.478 A  
HETATM   17  C   UNL     1     -12.113  16.146  72.502  1.00  0.00    -0.644 A  
HETATM   18  C   UNL     1     -13.353  15.747  72.993  1.00  0.00    -0.679 A  
HETATM   19  C   UNL     1     -14.159  14.894  72.240  1.00  0.00    -0.600 A  
HETATM   20  C   UNL     1     -13.724  14.441  70.991  1.00  0.00    -0.201 A  
ENDBRANCH  14  15
ENDBRANCH  11  14
ENDBRANCH   9  10
ENDBRANCH   8   9
TORSDOF 4
ENDMDL
MODEL      115
REMARK 921   NORMALIZED FREE ENERGY PREDICTED BY IDOCK:   -4.67 KCAL/MOL
REMARK 922        TOTAL FREE ENERGY PREDICTED BY IDOCK:   -6.38 KCAL/MOL
REMARK 923 INTER-LIGAND FREE ENERGY PREDICTED BY IDOCK:   -6.09 KCAL/MOL
REMARK 924 INTRA-LIGAND FREE ENERGY PREDICTED BY IDOCK:   -0.29 KCAL/MOL
REMARK 927      BINDING AFFINITY PREDICTED BY RF-SCORE:    0.00 PKD
ROOT
HETATM    1  O   UNL     1     -12.773  14.995  70.271  1.00  0.00    -0.329 OA 
HETATM    2  N   UNL     1     -12.525  14.344  71.301  1.00  0.00    -0.331 N  
HETATM    3  C   UNL     1     -12.630  12.920  71.198  1.00  0.00    -0.281 A  
HETATM    4  O   UNL     1     -12.143  14.812  72.377  1.00  0.00    -0.323 OA 
HETATM    5  N   UNL     1     -13.164  12.159  72.131  1.00  0.00    -0.453 NA 
HETATM    6  C   UNL     1     -13.020  10.880  71.660  1.00  0.00    -0.464 A  
HETATM    7  C   UNL     1     -12.379  10.874  70.442  1.00  0.00    -0.351 A  
HETATM    8  N   UNL     1     -12.151  12.196  70.140  1.00  0.00    -0.319 NA 
ENDROOT
BRANCH   8   9
HETATM    9  C   UNL     1     -11.424  12.671  68.976  1.00  0.00    -0.303 C  
BRANCH   9  10
HETATM   10  C   UNL     1     -10.509  11.609  68.403  1.00  0.00    -0.213 C  
HETATM   11  N   UNL     1     -11.028  10.891  67.353  1.00  0.00    -0.278 N  
HETATM   12  O   UNL     1      -9.381  11.424  68.857  1.00  0.00    -0.142 OA 
HETATM   13  H   UNL     1     -11.972  11.106  67.030  1.00  0.00     0.000 HD 
BRANCH  11  14
HETATM   14  C   UNL     1     -10.284   9.841  66.687  1.00  0.00    -0.226 C  
BRANCH  14  15
HETATM   15  C   UNL     1      -9.920  10.244  65.283  1.00  0.00    -0.387 A  
HETATM   16  C   UNL     1     -10.540  11.350  64.680  1.00  0.00    -0.380 A  
HETATM   17  C   UNL     1     -10.201  11.733  63.380  1.00  0.00    -0.482 A  
HETATM   18  C   UNL     1      -9.249  11.011  62.666  1.00  0.00    -0.363 A  
HETATM   19  C   UNL     1      -8.633   9.904  63.249  1.00  0.00    -0.204 A  
HETATM   20  C   UNL     1      -8.970   9.520  64.550  1.00  0.00    -0.256 A  
ENDBRANCH  14  15
ENDBRANCH  11  14
ENDBRANCH   9  10
ENDBRANCH   8   9
TORSDOF 4
ENDMDL
MODEL      116
REMARK 921   NORMALIZED FREE ENERGY PREDICTED BY IDOCK:   -4.66 KCAL/MOL
REMARK 922        TOTAL FREE ENERGY PREDICTED BY IDOCK:   -6.36 KCAL/MOL
REMARK 923 INTER-LIGAND FREE ENERGY PREDICTED BY IDOCK:   -6.18 KCAL/MOL
REMARK 924 INTRA-LIGAND FREE ENERGY PREDICTED BY IDOCK:   -0.18 KCAL/MOL
REMARK 927      BINDING AFFINITY PREDICTED BY RF-SCORE:    0.00 PKD
ROOT
HETATM    1  O   UNL     1     -11.881   6.345  70.131  1.00  0.00    -0.409 OA 
HETATM    2  N   UNL     1     -10.760   5.944  70.487  1.00  0.00    -0.275 N  
HETATM    3  C   UNL     1      -9.881   6.923  71.051  1.00  0.00    -0.178 A  
HETATM    4  O   UNL     1     -10.365   4.775  70.452  1.00  0.00    -0.223 OA 
HETATM    5  N   UNL     1      -8.593   6.987  70.782  1.00  0.00    -0.142 NA 
HETATM    6  C   UNL     1      -8.128   8.019  71.555  1.00  0.00    -0.110 A  
HETATM    7  C   UNL     1      -9.144   8.568  72.305  1.00  0.00    -0.248 A  
HETATM    8  N   UNL     1     -10.276   7.870  71.957  1.00  0.00    -0.199 NA 
ENDROOT
BRANCH   8   9
HETATM    9  C   UNL     1     -11.584   8.053  72.559  1.00  0.00    -0.403 C  
BRANCH   9  10
HETATM   10  C   UNL     1     -12.494   8.905  71.699  1.00  0.00    -0.344 C  
HETATM   11  N   UNL     1     -11.887   9.970  71.079  1.00  0.00    -0.355 N  
HETATM   12  O   UNL     1     -13.688   8.640  71.572  1.00  0.00    -0.361 OA 
HETATM   13  H   UNL     1     -10.889  10.123  71.229  1.00  0.00     0.000 HD 
BRANCH  11  14
HETATM   14  C   UNL     1     -12.611  10.882  70.218  1.00  0.00    -0.265 C  
BRANCH  14  15
HETATM   15  C   UNL     1     -12.658  12.265  70.813  1.00  0.00    -0.302 A  
HETATM   16  C   UNL     1     -12.039  13.340  70.157  1.00  0.00    -0.403 A  
HETATM   17  C   UNL     1     -12.085  14.626  70.701  1.00  0.00    -0.385 A  
HETATM   18  C   UNL     1     -12.741  14.849  71.908  1.00  0.00    -0.395 A  
HETATM   19  C   UNL     1     -13.351  13.789  72.576  1.00  0.00    -0.656 A  
HETATM   20  C   UNL     1     -13.307  12.501  72.033  1.00  0.00    -0.528 A  
ENDBRANCH  14  15
ENDBRANCH  11  14
ENDBRANCH   9  10
ENDBRANCH   8   9
TORSDOF 4
ENDMDL
MODEL      117
REMARK 921   NORMALIZED FREE ENERGY PREDICTED BY IDOCK:   -4.61 KCAL/MOL
REMARK 922        TOTAL FREE ENERGY PREDICTED BY IDOCK:   -6.30 KCAL/MOL
REMARK 923 INTER-LIGAND FREE ENERGY PREDICTED BY IDOCK:   -6.05 KCAL/MOL
REMARK 924 INTRA-LIGAND FREE ENERGY PREDICTED BY IDOCK:   -0.26 KCAL/MOL
REMARK 927      BINDING AFFINITY PREDICTED BY RF-SCORE:    0.00 PKD
ROOT
HETATM    1  O   UNL     1     -11.386  11.251  64.229  1.00  0.00    -0.250 OA 
HETATM    2  N   UNL     1     -10.887  12.363  64.470  1.00  0.00    -0.302 N  
HETATM    3  C   UNL     1     -11.286  12.991  65.693  1.00  0.00    -0.301 A  
HETATM    4  O   UNL     1     -10.040  12.940  63.782  1.00  0.00    -0.368 OA 
HETATM    5  N   UNL     1     -11.552  14.277  65.799  1.00  0.00    -0.339 NA 
HETATM    6  C   UNL     1     -11.841  14.463  67.126  1.00  0.00    -0.410 A  
HETATM    7  C   UNL     1     -11.732  13.281  67.823  1.00  0.00    -0.358 A  
HETATM    8  N   UNL     1     -11.396  12.332  66.887  1.00  0.00    -0.312 NA 
ENDROOT
BRANCH   8   9
HETATM    9  C   UNL     1     -11.097  10.942  67.182  1.00  0.00    -0.240 C  
BRANCH   9  10
HETATM   10  C   UNL     1     -10.678  10.741  68.623  1.00  0.00    -0.208 C  
HETATM   11  N   UNL     1     -11.640  10.203  69.444  1.00  0.00    -0.450 N  
HETATM   12  O   UNL     1      -9.549  11.039  69.008  1.00  0.00    -0.190 OA 
HETATM   13  H   UNL     1     -12.553   9.978  69.049  1.00  0.00     0.000 HD 
BRANCH  11  14
HETATM   14  C   UNL     1     -11.402   9.942  70.849  1.00  0.00    -0.370 C  
BRANCH  14  15
HETATM   15  C   UNL     1     -11.270   8.466  71.111  1.00  0.00    -0.307 A  
HETATM   16  C   UNL     1     -11.345   7.969  72.422  1.00  0.00    -0.443 A  
HETATM   17  C   UNL     1     -11.230   6.599  72.670  1.00  0.00    -0.285 A  
HETATM   18  C   UNL     1     -11.028   5.714  71.615  1.00  0.00    -0.277 A  
HETATM   19  C   UNL     1     -10.941   6.194  70.309  1.00  0.00    -0.417 A  
HETATM   20  C   UNL     1     -11.057   7.565  70.058  1.00  0.00    -0.219 A  
ENDBRANCH  14  15
ENDBRANCH  11  14
ENDBRANCH   9  10
ENDBRANCH   8   9
TORSDOF 4
ENDMDL
MODEL      118
REMARK 921   NORMALIZED FREE ENERGY PREDICTED BY IDOCK:   -4.60 KCAL/MOL
REMARK 922        TOTAL FREE ENERGY PREDICTED BY IDOCK:   -6.29 KCAL/MOL
REMARK 923 INTER-LIGAND FREE ENERGY PREDICTED BY IDOCK:   -5.79 KCAL/MOL
REMARK 924 INTRA-LIGAND FREE ENERGY PREDICTED BY IDOCK:   -0.50 KCAL/MOL
REMARK 927      BINDING AFFINITY PREDICTED BY RF-SCORE:    0.00 PKD
ROOT
HETATM    1  O   UNL     1      -8.676   4.848  67.227  1.00  0.00    -0.105 OA 
HETATM    2  N   UNL     1      -9.356   4.238  68.070  1.00  0.00    -0.142 N  
HETATM    3  C   UNL     1     -10.047   5.038  69.034  1.00  0.00    -0.168 A  
HETATM    4  O   UNL     1      -9.531   3.017  68.110  1.00  0.00    -0.201 OA 
HETATM    5  N   UNL     1     -10.132   4.729  70.312  1.00  0.00    -0.247 NA 
HETATM    6  C   UNL     1     -10.908   5.719  70.858  1.00  0.00    -0.256 A  
HETATM    7  C   UNL     1     -11.304   6.620  69.895  1.00  0.00    -0.364 A  
HETATM    8  N   UNL     1     -10.726   6.186  68.725  1.00  0.00    -0.275 NA 
ENDROOT
BRANCH   8   9
HETATM    9  C   UNL     1     -10.933   6.789  67.421  1.00  0.00    -0.337 C  
BRANCH   9  10
HETATM   10  C   UNL     1     -10.183   8.096  67.270  1.00  0.00    -0.278 C  
HETATM   11  N   UNL     1     -10.958   9.228  67.337  1.00  0.00    -0.404 N  
HETATM   12  O   UNL     1      -8.964   8.119  67.108  1.00  0.00    -0.134 OA 
HETATM   13  H   UNL     1     -11.963   9.128  67.477  1.00  0.00     0.000 HD 
BRANCH  11  14
HETATM   14  C   UNL     1     -10.399  10.559  67.215  1.00  0.00    -0.228 C  
BRANCH  14  15
HETATM   15  C   UNL     1     -10.910  11.250  65.979  1.00  0.00    -0.273 A  
HETATM   16  C   UNL     1     -10.469  10.847  64.709  1.00  0.00    -0.373 A  
HETATM   17  C   UNL     1     -10.945  11.478  63.557  1.00  0.00    -0.453 A  
HETATM   18  C   UNL     1     -11.857  12.524  63.663  1.00  0.00    -0.610 A  
HETATM   19  C   UNL     1     -12.297  12.942  64.918  1.00  0.00    -0.532 A  
HETATM   20  C   UNL     1     -11.822  12.310  66.072  1.00  0.00    -0.409 A  
ENDBRANCH  14  15
ENDBRANCH  11  14
ENDBRANCH   9  10
ENDBRANCH   8   9
TORSDOF 4
ENDMDL
MODEL      119
REMARK 921   NORMALIZED FREE ENERGY PREDICTED BY IDOCK:   -4.60 KCAL/MOL
REMARK 922        TOTAL FREE ENERGY PREDICTED BY IDOCK:   -6.29 KCAL/MOL
REMARK 923 INTER-LIGAND FREE ENERGY PREDICTED BY IDOCK:   -6.16 KCAL/MOL
REMARK 924 INTRA-LIGAND FREE ENERGY PREDICTED BY IDOCK:   -0.13 KCAL/MOL
REMARK 927      BINDING AFFINITY PREDICTED BY RF-SCORE:    0.00 PKD
ROOT
HETATM    1  O   UNL     1     -11.282   6.538  67.311  1.00  0.00    -0.376 OA 
HETATM    2  N   UNL     1     -10.297   7.164  66.885  1.00  0.00    -0.277 N  
HETATM    3  C   UNL     1     -10.136   8.504  67.363  1.00  0.00    -0.234 A  
HETATM    4  O   UNL     1      -9.421   6.715  66.140  1.00  0.00    -0.121 OA 
HETATM    5  N   UNL     1      -9.763   9.510  66.599  1.00  0.00    -0.195 NA 
HETATM    6  C   UNL     1      -9.688  10.583  67.450  1.00  0.00    -0.164 A  
HETATM    7  C   UNL     1     -10.004  10.211  68.738  1.00  0.00    -0.179 A  
HETATM    8  N   UNL     1     -10.314   8.873  68.669  1.00  0.00    -0.204 NA 
ENDROOT
BRANCH   8   9
HETATM    9  C   UNL     1     -10.634   8.033  69.809  1.00  0.00    -0.238 C  
BRANCH   9  10
HETATM   10  C   UNL     1     -11.215   8.829  70.959  1.00  0.00    -0.273 C  
HETATM   11  N   UNL     1     -12.427   9.425  70.705  1.00  0.00    -0.488 N  
HETATM   12  O   UNL     1     -10.631   8.916  72.037  1.00  0.00    -0.341 OA 
HETATM   13  H   UNL     1     -12.852   9.304  69.786  1.00  0.00     0.000 HD 
BRANCH  11  14
HETATM   14  C   UNL     1     -13.124  10.219  71.697  1.00  0.00    -0.449 C  
BRANCH  14  15
HETATM   15  C   UNL     1     -12.910  11.690  71.459  1.00  0.00    -0.469 A  
HETATM   16  C   UNL     1     -12.197  12.129  70.332  1.00  0.00    -0.378 A  
HETATM   17  C   UNL     1     -12.002  13.493  70.101  1.00  0.00    -0.399 A  
HETATM   18  C   UNL     1     -12.506  14.431  70.998  1.00  0.00    -0.425 A  
HETATM   19  C   UNL     1     -13.207  14.009  72.127  1.00  0.00    -0.526 A  
HETATM   20  C   UNL     1     -13.405  12.644  72.359  1.00  0.00    -0.424 A  
ENDBRANCH  14  15
ENDBRANCH  11  14
ENDBRANCH   9  10
ENDBRANCH   8   9
TORSDOF 4
ENDMDL
MODEL      120
REMARK 921   NORMALIZED FREE ENERGY PREDICTED BY IDOCK:   -4.59 KCAL/MOL
REMARK 922        TOTAL FREE ENERGY PREDICTED BY IDOCK:   -6.29 KCAL/MOL
REMARK 923 INTER-LIGAND FREE ENERGY PREDICTED BY IDOCK:   -5.63 KCAL/MOL
REMARK 924 INTRA-LIGAND FREE ENERGY PREDICTED BY IDOCK:   -0.65 KCAL/MOL
REMARK 927      BINDING AFFINITY PREDICTED BY RF-SCORE:    0.00 PKD
ROOT
HETATM    1  O   UNL     1      -9.608  15.496  68.564  1.00  0.00    -0.194 OA 
HETATM    2  N   UNL     1     -10.193  16.134  67.672  1.00  0.00    -0.259 N  
HETATM    3  C   UNL     1     -10.903  15.364  66.696  1.00  0.00    -0.302 A  
HETATM    4  O   UNL     1     -10.262  17.364  67.590  1.00  0.00    -0.314 OA 
HETATM    5  N   UNL     1     -10.901  15.639  65.408  1.00  0.00    -0.377 NA 
HETATM    6  C   UNL     1     -11.731  14.700  64.851  1.00  0.00    -0.403 A  
HETATM    7  C   UNL     1     -12.247  13.866  65.817  1.00  0.00    -0.460 A  
HETATM    8  N   UNL     1     -11.690  14.287  67.002  1.00  0.00    -0.386 NA 
ENDROOT
BRANCH   8   9
HETATM    9  C   UNL     1     -12.010  13.745  68.311  1.00  0.00    -0.357 C  
BRANCH   9  10
HETATM   10  C   UNL     1     -11.505  12.328  68.480  1.00  0.00    -0.303 C  
HETATM   11  N   UNL     1     -10.172  12.214  68.798  1.00  0.00    -0.381 N  
HETATM   12  O   UNL     1     -12.253  11.361  68.347  1.00  0.00    -0.571 OA 
HETATM   13  H   UNL     1      -9.616  13.064  68.895  1.00  0.00     0.000 HD 
BRANCH  11  14
HETATM   14  C   UNL     1      -9.529  10.932  68.999  1.00  0.00    -0.146 C  
BRANCH  14  15
HETATM   15  C   UNL     1      -9.294  10.234  67.685  1.00  0.00    -0.158 A  
HETATM   16  C   UNL     1      -9.751   8.921  67.490  1.00  0.00    -0.216 A  
HETATM   17  C   UNL     1      -9.542   8.270  66.271  1.00  0.00    -0.266 A  
HETATM   18  C   UNL     1      -8.868   8.918  65.241  1.00  0.00    -0.227 A  
HETATM   19  C   UNL     1      -8.399  10.219  65.425  1.00  0.00    -0.164 A  
HETATM   20  C   UNL     1      -8.608  10.872  66.644  1.00  0.00    -0.148 A  
ENDBRANCH  14  15
ENDBRANCH  11  14
ENDBRANCH   9  10
ENDBRANCH   8   9
TORSDOF 4
ENDMDL
MODEL      121
REMARK 921   NORMALIZED FREE ENERGY PREDICTED BY IDOCK:   -4.59 KCAL/MOL
REMARK 922        TOTAL FREE ENERGY PREDICTED BY IDOCK:   -6.28 KCAL/MOL
REMARK 923 INTER-LIGAND FREE ENERGY PREDICTED BY IDOCK:   -5.89 KCAL/MOL
REMARK 924 INTRA-LIGAND FREE ENERGY PREDICTED BY IDOCK:   -0.38 KCAL/MOL
REMARK 927      BINDING AFFINITY PREDICTED BY RF-SCORE:    0.00 PKD
ROOT
HETATM    1  O   UNL     1     -11.082  12.151  64.560  1.00  0.00    -0.300 OA 
HETATM    2  N   UNL     1     -10.242  11.291  64.872  1.00  0.00    -0.267 N  
HETATM    3  C   UNL     1      -9.557  11.487  66.113  1.00  0.00    -0.225 A  
HETATM    4  O   UNL     1      -9.993  10.260  64.239  1.00  0.00    -0.328 OA 
HETATM    5  N   UNL     1      -8.268  11.267  66.278  1.00  0.00    -0.157 NA 
HETATM    6  C   UNL     1      -8.038  11.529  67.604  1.00  0.00    -0.130 A  
HETATM    7  C   UNL     1      -9.202  11.893  68.242  1.00  0.00    -0.187 A  
HETATM    8  N   UNL     1     -10.173  11.885  67.269  1.00  0.00    -0.199 NA 
ENDROOT
BRANCH   8   9
HETATM    9  C   UNL     1     -11.585  12.132  67.500  1.00  0.00    -0.343 C  
BRANCH   9  10
HETATM   10  C   UNL     1     -11.960  11.979  68.960  1.00  0.00    -0.264 C  
HETATM   11  N   UNL     1     -12.239  10.695  69.362  1.00  0.00    -0.541 N  
HETATM   12  O   UNL     1     -11.997  12.948  69.715  1.00  0.00    -0.313 OA 
HETATM   13  H   UNL     1     -12.182   9.941  68.677  1.00  0.00     0.000 HD 
BRANCH  11  14
HETATM   14  C   UNL     1     -12.610  10.373  70.725  1.00  0.00    -0.371 C  
BRANCH  14  15
HETATM   15  C   UNL     1     -11.605   9.444  71.354  1.00  0.00    -0.451 A  
HETATM   16  C   UNL     1     -10.252   9.511  70.986  1.00  0.00    -0.332 A  
HETATM   17  C   UNL     1      -9.314   8.656  71.571  1.00  0.00    -0.319 A  
HETATM   18  C   UNL     1      -9.719   7.721  72.519  1.00  0.00    -0.262 A  
HETATM   19  C   UNL     1     -11.061   7.637  72.886  1.00  0.00    -0.448 A  
HETATM   20  C   UNL     1     -12.002   8.492  72.303  1.00  0.00    -0.454 A  
ENDBRANCH  14  15
ENDBRANCH  11  14
ENDBRANCH   9  10
ENDBRANCH   8   9
TORSDOF 4
ENDMDL
MODEL      122
REMARK 921   NORMALIZED FREE ENERGY PREDICTED BY IDOCK:   -4.58 KCAL/MOL
REMARK 922        TOTAL FREE ENERGY PREDICTED BY IDOCK:   -6.27 KCAL/MOL
REMARK 923 INTER-LIGAND FREE ENERGY PREDICTED BY IDOCK:   -5.80 KCAL/MOL
REMARK 924 INTRA-LIGAND FREE ENERGY PREDICTED BY IDOCK:   -0.47 KCAL/MOL
REMARK 927      BINDING AFFINITY PREDICTED BY RF-SCORE:    0.00 PKD
ROOT
HETATM    1  O   UNL     1     -12.414  13.844  63.888  1.00  0.00    -0.698 OA 
HETATM    2  N   UNL     1     -12.372  12.615  63.706  1.00  0.00    -0.473 N  
HETATM    3  C   UNL     1     -11.179  11.947  64.129  1.00  0.00    -0.376 A  
HETATM    4  O   UNL     1     -13.286  11.920  63.252  1.00  0.00    -0.602 OA 
HETATM    5  N   UNL     1     -10.594  10.992  63.435  1.00  0.00    -0.283 NA 
HETATM    6  C   UNL     1      -9.531  10.602  64.209  1.00  0.00    -0.274 A  
HETATM    7  C   UNL     1      -9.490  11.318  65.384  1.00  0.00    -0.225 A  
HETATM    8  N   UNL     1     -10.543  12.200  65.314  1.00  0.00    -0.271 NA 
ENDROOT
BRANCH   8   9
HETATM    9  C   UNL     1     -10.939  13.109  66.375  1.00  0.00    -0.288 C  
BRANCH   9  10
HETATM   10  C   UNL     1     -10.720  12.512  67.750  1.00  0.00    -0.219 C  
HETATM   11  N   UNL     1     -11.652  11.580  68.140  1.00  0.00    -0.308 N  
HETATM   12  O   UNL     1      -9.765  12.846  68.447  1.00  0.00    -0.223 OA 
HETATM   13  H   UNL     1     -12.416  11.352  67.503  1.00  0.00     0.000 HD 
BRANCH  11  14
HETATM   14  C   UNL     1     -11.589  10.910  69.423  1.00  0.00    -0.316 C  
BRANCH  14  15
HETATM   15  C   UNL     1     -10.620   9.758  69.383  1.00  0.00    -0.248 A  
HETATM   16  C   UNL     1     -10.610   8.878  68.289  1.00  0.00    -0.203 A  
HETATM   17  C   UNL     1      -9.708   7.812  68.243  1.00  0.00    -0.169 A  
HETATM   18  C   UNL     1      -8.816   7.608  69.292  1.00  0.00    -0.136 A  
HETATM   19  C   UNL     1      -8.822   8.468  70.390  1.00  0.00    -0.157 A  
HETATM   20  C   UNL     1      -9.723   9.536  70.437  1.00  0.00    -0.328 A  
ENDBRANCH  14  15
ENDBRANCH  11  14
ENDBRANCH   9  10
ENDBRANCH   8   9
TORSDOF 4
ENDMDL
MODEL      123
REMARK 921   NORMALIZED FREE ENERGY PREDICTED BY IDOCK:   -4.57 KCAL/MOL
REMARK 922        TOTAL FREE ENERGY PREDICTED BY IDOCK:   -6.25 KCAL/MOL
REMARK 923 INTER-LIGAND FREE ENERGY PREDICTED BY IDOCK:   -5.86 KCAL/MOL
REMARK 924 INTRA-LIGAND FREE ENERGY PREDICTED BY IDOCK:   -0.39 KCAL/MOL
REMARK 927      BINDING AFFINITY PREDICTED BY RF-SCORE:    0.00 PKD
ROOT
HETATM    1  O   UNL     1      -9.838   6.328  70.951  1.00  0.00    -0.178 OA 
HETATM    2  N   UNL     1     -10.898   6.859  71.323  1.00  0.00    -0.231 N  
HETATM    3  C   UNL     1     -11.111   8.214  70.915  1.00  0.00    -0.258 A  
HETATM    4  O   UNL     1     -11.800   6.305  71.958  1.00  0.00    -0.320 OA 
HETATM    5  N   UNL     1     -11.618   9.141  71.702  1.00  0.00    -0.355 NA 
HETATM    6  C   UNL     1     -11.695  10.261  70.914  1.00  0.00    -0.379 A  
HETATM    7  C   UNL     1     -11.244   9.997  69.641  1.00  0.00    -0.239 A  
HETATM    8  N   UNL     1     -10.848   8.681  69.656  1.00  0.00    -0.201 NA 
ENDROOT
BRANCH   8   9
HETATM    9  C   UNL     1     -10.374   7.941  68.500  1.00  0.00    -0.200 C  
BRANCH   9  10
HETATM   10  C   UNL     1      -9.609   8.821  67.533  1.00  0.00    -0.152 C  
HETATM   11  N   UNL     1     -10.223   9.033  66.322  1.00  0.00    -0.311 N  
HETATM   12  O   UNL     1      -8.521   9.307  67.835  1.00  0.00    -0.116 OA 
HETATM   13  H   UNL     1     -11.129   8.598  66.147  1.00  0.00     0.000 HD 
BRANCH  11  14
HETATM   14  C   UNL     1      -9.630   9.853  65.286  1.00  0.00    -0.295 C  
BRANCH  14  15
HETATM   15  C   UNL     1     -10.456  11.086  65.033  1.00  0.00    -0.344 A  
HETATM   16  C   UNL     1     -10.955  11.837  66.109  1.00  0.00    -0.355 A  
HETATM   17  C   UNL     1     -11.716  12.987  65.881  1.00  0.00    -0.442 A  
HETATM   18  C   UNL     1     -11.994  13.391  64.579  1.00  0.00    -0.452 A  
HETATM   19  C   UNL     1     -11.513  12.650  63.501  1.00  0.00    -0.557 A  
HETATM   20  C   UNL     1     -10.751  11.499  63.726  1.00  0.00    -0.474 A  
ENDBRANCH  14  15
ENDBRANCH  11  14
ENDBRANCH   9  10
ENDBRANCH   8   9
TORSDOF 4
ENDMDL
MODEL      124
REMARK 921   NORMALIZED FREE ENERGY PREDICTED BY IDOCK:   -4.56 KCAL/MOL
REMARK 922        TOTAL FREE ENERGY PREDICTED BY IDOCK:   -6.25 KCAL/MOL
REMARK 923 INTER-LIGAND FREE ENERGY PREDICTED BY IDOCK:   -5.87 KCAL/MOL
REMARK 924 INTRA-LIGAND FREE ENERGY PREDICTED BY IDOCK:   -0.38 KCAL/MOL
REMARK 927      BINDING AFFINITY PREDICTED BY RF-SCORE:    0.00 PKD
ROOT
HETATM    1  O   UNL     1      -7.306  16.933  66.762  1.00  0.00    -0.186 OA 
HETATM    2  N   UNL     1      -7.735  17.290  67.872  1.00  0.00    -0.189 N  
HETATM    3  C   UNL     1      -8.840  18.201  67.868  1.00  0.00    -0.268 A  
HETATM    4  O   UNL     1      -7.333  16.886  68.967  1.00  0.00    -0.232 OA 
HETATM    5  N   UNL     1      -8.943  19.225  68.690  1.00  0.00    -0.370 NA 
HETATM    6  C   UNL     1     -10.153  19.794  68.385  1.00  0.00    -0.454 A  
HETATM    7  C   UNL     1     -10.785  19.095  67.382  1.00  0.00    -0.481 A  
HETATM    8  N   UNL     1      -9.921  18.082  67.038  1.00  0.00    -0.314 NA 
ENDROOT
BRANCH   8   9
HETATM    9  C   UNL     1     -10.206  17.038  66.070  1.00  0.00    -0.325 C  
BRANCH   9  10
HETATM   10  C   UNL     1     -10.758  15.788  66.724  1.00  0.00    -0.293 C  
HETATM   11  N   UNL     1     -10.577  14.626  66.013  1.00  0.00    -0.298 N  
HETATM   12  O   UNL     1     -11.318  15.832  67.817  1.00  0.00    -0.322 OA 
HETATM   13  H   UNL     1     -10.099  14.670  65.113  1.00  0.00     0.000 HD 
BRANCH  11  14
HETATM   14  C   UNL     1     -11.041  13.342  66.496  1.00  0.00    -0.294 C  
BRANCH  14  15
HETATM   15  C   UNL     1     -10.464  12.216  65.679  1.00  0.00    -0.290 A  
HETATM   16  C   UNL     1     -10.874  12.023  64.350  1.00  0.00    -0.378 A  
HETATM   17  C   UNL     1     -10.338  10.985  63.585  1.00  0.00    -0.415 A  
HETATM   18  C   UNL     1      -9.395  10.125  64.140  1.00  0.00    -0.340 A  
HETATM   19  C   UNL     1      -8.985  10.299  65.461  1.00  0.00    -0.200 A  
HETATM   20  C   UNL     1      -9.521  11.338  66.229  1.00  0.00    -0.227 A  
ENDBRANCH  14  15
ENDBRANCH  11  14
ENDBRANCH   9  10
ENDBRANCH   8   9
TORSDOF 4
ENDMDL
MODEL      125
REMARK 921   NORMALIZED FREE ENERGY PREDICTED BY IDOCK:   -4.55 KCAL/MOL
REMARK 922        TOTAL FREE ENERGY PREDICTED BY IDOCK:   -6.23 KCAL/MOL
REMARK 923 INTER-LIGAND FREE ENERGY PREDICTED BY IDOCK:   -5.54 KCAL/MOL
REMARK 924 INTRA-LIGAND FREE ENERGY PREDICTED BY IDOCK:   -0.69 KCAL/MOL
REMARK 927      BINDING AFFINITY PREDICTED BY RF-SCORE:    0.00 PKD
ROOT
HETATM    1  O   UNL     1      -9.018   7.829  70.988  1.00  0.00    -0.140 OA 
HETATM    2  N   UNL     1      -9.724   7.703  72.002  1.00  0.00    -0.162 N  
HETATM    3  C   UNL     1     -11.141   7.693  71.798  1.00  0.00    -0.242 A  
HETATM    4  O   UNL     1      -9.313   7.529  73.153  1.00  0.00    -0.165 OA 
HETATM    5  N   UNL     1     -11.996   8.315  72.584  1.00  0.00    -0.368 NA 
HETATM    6  C   UNL     1     -13.228   8.012  72.066  1.00  0.00    -0.253 A  
HETATM    7  C   UNL     1     -13.111   7.187  70.970  1.00  0.00    -0.121 A  
HETATM    8  N   UNL     1     -11.760   7.005  70.790  1.00  0.00    -0.336 NA 
ENDROOT
BRANCH   8   9
HETATM    9  C   UNL     1     -11.163   6.136  69.791  1.00  0.00    -0.423 C  
BRANCH   9  10
HETATM   10  C   UNL     1     -11.025   6.821  68.448  1.00  0.00    -0.187 C  
HETATM   11  N   UNL     1     -10.665   8.147  68.500  1.00  0.00    -0.409 N  
HETATM   12  O   UNL     1     -11.218   6.214  67.396  1.00  0.00    -0.288 OA 
HETATM   13  H   UNL     1     -10.518   8.581  69.412  1.00  0.00     0.000 HD 
BRANCH  11  14
HETATM   14  C   UNL     1     -10.486   8.949  67.307  1.00  0.00    -0.277 C  
BRANCH  14  15
HETATM   15  C   UNL     1     -10.966  10.359  67.528  1.00  0.00    -0.358 A  
HETATM   16  C   UNL     1     -11.359  10.782  68.808  1.00  0.00    -0.352 A  
HETATM   17  C   UNL     1     -11.798  12.091  69.020  1.00  0.00    -0.372 A  
HETATM   18  C   UNL     1     -11.860  12.987  67.956  1.00  0.00    -0.391 A  
HETATM   19  C   UNL     1     -11.482  12.578  66.678  1.00  0.00    -0.417 A  
HETATM   20  C   UNL     1     -11.041  11.268  66.463  1.00  0.00    -0.280 A  
ENDBRANCH  14  15
ENDBRANCH  11  14
ENDBRANCH   9  10
ENDBRANCH   8   9
TORSDOF 4
ENDMDL
MODEL      126
REMARK 921   NORMALIZED FREE ENERGY PREDICTED BY IDOCK:   -4.55 KCAL/MOL
REMARK 922        TOTAL FREE ENERGY PREDICTED BY IDOCK:   -6.23 KCAL/MOL
REMARK 923 INTER-LIGAND FREE ENERGY PREDICTED BY IDOCK:   -5.77 KCAL/MOL
REMARK 924 INTRA-LIGAND FREE ENERGY PREDICTED BY IDOCK:   -0.46 KCAL/MOL
REMARK 927      BINDING AFFINITY PREDICTED BY RF-SCORE:    0.00 PKD
ROOT
HETATM    1  O   UNL     1      -6.923  10.687  65.962  1.00  0.00    -0.127 OA 
HETATM    2  N   UNL     1      -7.933  10.252  65.382  1.00  0.00    -0.145 N  
HETATM    3  C   UNL     1      -8.998   9.786  66.217  1.00  0.00    -0.153 A  
HETATM    4  O   UNL     1      -8.118  10.244  64.162  1.00  0.00    -0.157 OA 
HETATM    5  N   UNL     1      -9.697   8.698  65.967  1.00  0.00    -0.217 NA 
HETATM    6  C   UNL     1     -10.631   8.647  66.970  1.00  0.00    -0.223 A  
HETATM    7  C   UNL     1     -10.499   9.723  67.819  1.00  0.00    -0.246 A  
HETATM    8  N   UNL     1      -9.429  10.441  67.339  1.00  0.00    -0.149 NA 
ENDROOT
BRANCH   8   9
HETATM    9  C   UNL     1      -8.970  11.710  67.876  1.00  0.00    -0.170 C  
BRANCH   9  10
HETATM   10  C   UNL     1     -10.026  12.790  67.770  1.00  0.00    -0.219 C  
HETATM   11  N   UNL     1     -10.244  13.512  68.919  1.00  0.00    -0.420 N  
HETATM   12  O   UNL     1     -10.628  12.996  66.718  1.00  0.00    -0.259 OA 
HETATM   13  H   UNL     1      -9.701  13.284  69.753  1.00  0.00     0.000 HD 
BRANCH  11  14
HETATM   14  C   UNL     1     -11.216  14.583  68.990  1.00  0.00    -0.268 C  
BRANCH  14  15
HETATM   15  C   UNL     1     -12.171  14.373  70.134  1.00  0.00    -0.401 A  
HETATM   16  C   UNL     1     -12.308  13.103  70.718  1.00  0.00    -0.404 A  
HETATM   17  C   UNL     1     -13.187  12.903  71.785  1.00  0.00    -0.479 A  
HETATM   18  C   UNL     1     -13.945  13.964  72.273  1.00  0.00    -0.663 A  
HETATM   19  C   UNL     1     -13.826  15.228  71.696  1.00  0.00    -0.615 A  
HETATM   20  C   UNL     1     -12.946  15.431  70.629  1.00  0.00    -0.450 A  
ENDBRANCH  14  15
ENDBRANCH  11  14
ENDBRANCH   9  10
ENDBRANCH   8   9
TORSDOF 4
ENDMDL
MODEL      127
REMARK 921   NORMALIZED FREE ENERGY PREDICTED BY IDOCK:   -4.54 KCAL/MOL
REMARK 922        TOTAL FREE ENERGY PREDICTED BY IDOCK:   -6.22 KCAL/MOL
REMARK 923 INTER-LIGAND FREE ENERGY PREDICTED BY IDOCK:   -5.58 KCAL/MOL
REMARK 924 INTRA-LIGAND FREE ENERGY PREDICTED BY IDOCK:   -0.64 KCAL/MOL
REMARK 927      BINDING AFFINITY PREDICTED BY RF-SCORE:    0.00 PKD
ROOT
HETATM    1  O   UNL     1      -7.771  17.731  65.461  1.00  0.00    -0.486 OA 
HETATM    2  N   UNL     1      -7.024  17.728  66.454  1.00  0.00    -0.227 N  
HETATM    3  C   UNL     1      -6.700  19.006  67.013  1.00  0.00    -0.197 A  
HETATM    4  O   UNL     1      -6.590  16.726  67.030  1.00  0.00    -0.167 OA 
HETATM    5  N   UNL     1      -5.497  19.330  67.442  1.00  0.00    -0.163 NA 
HETATM    6  C   UNL     1      -5.636  20.602  67.935  1.00  0.00    -0.246 A  
HETATM    7  C   UNL     1      -6.936  21.036  67.815  1.00  0.00    -0.217 A  
HETATM    8  N   UNL     1      -7.612  20.009  67.199  1.00  0.00    -0.274 NA 
ENDROOT
BRANCH   8   9
HETATM    9  C   UNL     1      -9.040  19.991  66.938  1.00  0.00    -0.361 C  
BRANCH   9  10
HETATM   10  C   UNL     1      -9.785  19.093  67.904  1.00  0.00    -0.333 C  
HETATM   11  N   UNL     1     -10.174  17.878  67.393  1.00  0.00    -0.344 N  
HETATM   12  O   UNL     1     -10.009  19.443  69.061  1.00  0.00    -0.437 OA 
HETATM   13  H   UNL     1      -9.949  17.657  66.423  1.00  0.00     0.000 HD 
BRANCH  11  14
HETATM   14  C   UNL     1     -10.893  16.899  68.184  1.00  0.00    -0.351 C  
BRANCH  14  15
HETATM   15  C   UNL     1     -10.962  15.574  67.471  1.00  0.00    -0.316 A  
HETATM   16  C   UNL     1     -10.953  15.524  66.068  1.00  0.00    -0.251 A  
HETATM   17  C   UNL     1     -11.010  14.297  65.401  1.00  0.00    -0.335 A  
HETATM   18  C   UNL     1     -11.086  13.112  66.126  1.00  0.00    -0.301 A  
HETATM   19  C   UNL     1     -11.106  13.148  67.520  1.00  0.00    -0.296 A  
HETATM   20  C   UNL     1     -11.049  14.374  68.190  1.00  0.00    -0.279 A  
ENDBRANCH  14  15
ENDBRANCH  11  14
ENDBRANCH   9  10
ENDBRANCH   8   9
TORSDOF 4
ENDMDL
MODEL      128
REMARK 921   NORMALIZED FREE ENERGY PREDICTED BY IDOCK:   -4.54 KCAL/MOL
REMARK 922        TOTAL FREE ENERGY PREDICTED BY IDOCK:   -6.22 KCAL/MOL
REMARK 923 INTER-LIGAND FREE ENERGY PREDICTED BY IDOCK:   -6.05 KCAL/MOL
REMARK 924 INTRA-LIGAND FREE ENERGY PREDICTED BY IDOCK:   -0.16 KCAL/MOL
REMARK 927      BINDING AFFINITY PREDICTED BY RF-SCORE:    0.00 PKD
ROOT
HETATM    1  O   UNL     1      -9.257   8.921  72.110  1.00  0.00    -0.364 OA 
HETATM    2  N   UNL     1     -10.319   8.277  72.101  1.00  0.00    -0.273 N  
HETATM    3  C   UNL     1     -11.520   9.027  71.890  1.00  0.00    -0.370 A  
HETATM    4  O   UNL     1     -10.422   7.051  72.198  1.00  0.00    -0.205 OA 
HETATM    5  N   UNL     1     -12.640   8.811  72.549  1.00  0.00    -0.366 NA 
HETATM    6  C   UNL     1     -13.536   9.701  72.014  1.00  0.00    -0.428 A  
HETATM    7  C   UNL     1     -12.950  10.445  71.014  1.00  0.00    -0.399 A  
HETATM    8  N   UNL     1     -11.644  10.020  70.956  1.00  0.00    -0.372 NA 
ENDROOT
BRANCH   8   9
HETATM    9  C   UNL     1     -10.663  10.474  69.986  1.00  0.00    -0.224 C  
BRANCH   9  10
HETATM   10  C   UNL     1     -11.265  11.418  68.966  1.00  0.00    -0.256 C  
HETATM   11  N   UNL     1     -10.880  12.732  69.084  1.00  0.00    -0.427 N  
HETATM   12  O   UNL     1     -12.035  11.014  68.097  1.00  0.00    -0.610 OA 
HETATM   13  H   UNL     1     -10.233  12.990  69.830  1.00  0.00     0.000 HD 
BRANCH  11  14
HETATM   14  C   UNL     1     -11.358  13.764  68.187  1.00  0.00    -0.284 C  
BRANCH  14  15
HETATM   15  C   UNL     1     -10.456  14.969  68.218  1.00  0.00    -0.237 A  
HETATM   16  C   UNL     1      -9.364  15.013  69.099  1.00  0.00    -0.189 A  
HETATM   17  C   UNL     1      -8.519  16.125  69.128  1.00  0.00    -0.239 A  
HETATM   18  C   UNL     1      -8.761  17.207  68.287  1.00  0.00    -0.241 A  
HETATM   19  C   UNL     1      -9.848  17.181  67.414  1.00  0.00    -0.264 A  
HETATM   20  C   UNL     1     -10.695  16.068  67.383  1.00  0.00    -0.306 A  
ENDBRANCH  14  15
ENDBRANCH  11  14
ENDBRANCH   9  10
ENDBRANCH   8   9
TORSDOF 4
ENDMDL
MODEL      129
REMARK 921   NORMALIZED FREE ENERGY PREDICTED BY IDOCK:   -4.54 KCAL/MOL
REMARK 922        TOTAL FREE ENERGY PREDICTED BY IDOCK:   -6.22 KCAL/MOL
REMARK 923 INTER-LIGAND FREE ENERGY PREDICTED BY IDOCK:   -5.72 KCAL/MOL
REMARK 924 INTRA-LIGAND FREE ENERGY PREDICTED BY IDOCK:   -0.50 KCAL/MOL
REMARK 927      BINDING AFFINITY PREDICTED BY RF-SCORE:    0.00 PKD
ROOT
HETATM    1  O   UNL     1     -11.037   5.608  71.360  1.00  0.00    -0.239 OA 
HETATM    2  N   UNL     1     -10.450   5.229  70.333  1.00  0.00    -0.272 N  
HETATM    3  C   UNL     1     -10.576   6.065  69.178  1.00  0.00    -0.295 A  
HETATM    4  O   UNL     1      -9.725   4.234  70.240  1.00  0.00    -0.184 OA 
HETATM    5  N   UNL     1     -10.755   5.602  67.958  1.00  0.00    -0.195 NA 
HETATM    6  C   UNL     1     -10.774   6.718  67.162  1.00  0.00    -0.371 A  
HETATM    7  C   UNL     1     -10.588   7.859  67.911  1.00  0.00    -0.149 A  
HETATM    8  N   UNL     1     -10.484   7.430  69.213  1.00  0.00    -0.217 NA 
ENDROOT
BRANCH   8   9
HETATM    9  C   UNL     1     -10.200   8.287  70.351  1.00  0.00    -0.201 C  
BRANCH   9  10
HETATM   10  C   UNL     1     -11.325   9.262  70.626  1.00  0.00    -0.275 C  
HETATM   11  N   UNL     1     -11.054  10.574  70.316  1.00  0.00    -0.381 N  
HETATM   12  O   UNL     1     -12.401   8.885  71.087  1.00  0.00    -0.294 OA 
HETATM   13  H   UNL     1     -10.139  10.809  69.932  1.00  0.00     0.000 HD 
BRANCH  11  14
HETATM   14  C   UNL     1     -12.022  11.633  70.513  1.00  0.00    -0.319 C  
BRANCH  14  15
HETATM   15  C   UNL     1     -11.911  12.675  69.432  1.00  0.00    -0.356 A  
HETATM   16  C   UNL     1     -11.840  12.292  68.083  1.00  0.00    -0.372 A  
HETATM   17  C   UNL     1     -11.743  13.255  67.075  1.00  0.00    -0.439 A  
HETATM   18  C   UNL     1     -11.707  14.607  67.404  1.00  0.00    -0.413 A  
HETATM   19  C   UNL     1     -11.767  15.001  68.739  1.00  0.00    -0.360 A  
HETATM   20  C   UNL     1     -11.864  14.039  69.750  1.00  0.00    -0.385 A  
ENDBRANCH  14  15
ENDBRANCH  11  14
ENDBRANCH   9  10
ENDBRANCH   8   9
TORSDOF 4
ENDMDL
MODEL      130
REMARK 921   NORMALIZED FREE ENERGY PREDICTED BY IDOCK:   -4.52 KCAL/MOL
REMARK 922        TOTAL FREE ENERGY PREDICTED BY IDOCK:   -6.19 KCAL/MOL
REMARK 923 INTER-LIGAND FREE ENERGY PREDICTED BY IDOCK:   -5.65 KCAL/MOL
REMARK 924 INTRA-LIGAND FREE ENERGY PREDICTED BY IDOCK:   -0.54 KCAL/MOL
REMARK 927      BINDING AFFINITY PREDICTED BY RF-SCORE:    0.00 PKD
ROOT
HETATM    1  O   UNL     1     -10.922   6.385  68.781  1.00  0.00    -0.291 OA 
HETATM    2  N   UNL     1     -11.291   6.874  69.862  1.00  0.00    -0.289 N  
HETATM    3  C   UNL     1     -10.281   7.501  70.659  1.00  0.00    -0.202 A  
HETATM    4  O   UNL     1     -12.453   6.917  70.277  1.00  0.00    -0.126 OA 
HETATM    5  N   UNL     1     -10.201   7.374  71.968  1.00  0.00    -0.189 NA 
HETATM    6  C   UNL     1      -9.139   8.163  72.329  1.00  0.00    -0.199 A  
HETATM    7  C   UNL     1      -8.589   8.780  71.228  1.00  0.00    -0.203 A  
HETATM    8  N   UNL     1      -9.317   8.330  70.152  1.00  0.00    -0.158 NA 
ENDROOT
BRANCH   8   9
HETATM    9  C   UNL     1      -9.142   8.779  68.782  1.00  0.00    -0.138 C  
BRANCH   9  10
HETATM   10  C   UNL     1     -10.163   9.827  68.390  1.00  0.00    -0.185 C  
HETATM   11  N   UNL     1     -10.081  11.013  69.080  1.00  0.00    -0.350 N  
HETATM   12  O   UNL     1     -10.992   9.614  67.508  1.00  0.00    -0.260 OA 
HETATM   13  H   UNL     1      -9.361  11.116  69.796  1.00  0.00     0.000 HD 
BRANCH  11  14
HETATM   14  C   UNL     1     -10.978  12.121  68.827  1.00  0.00    -0.232 C  
BRANCH  14  15
HETATM   15  C   UNL     1     -11.854  12.391  70.022  1.00  0.00    -0.363 A  
HETATM   16  C   UNL     1     -12.403  11.326  70.753  1.00  0.00    -0.495 A  
HETATM   17  C   UNL     1     -13.210  11.570  71.867  1.00  0.00    -0.479 A  
HETATM   18  C   UNL     1     -13.485  12.878  72.256  1.00  0.00    -0.631 A  
HETATM   19  C   UNL     1     -12.954  13.946  71.533  1.00  0.00    -0.436 A  
HETATM   20  C   UNL     1     -12.145  13.704  70.418  1.00  0.00    -0.421 A  
ENDBRANCH  14  15
ENDBRANCH  11  14
ENDBRANCH   9  10
ENDBRANCH   8   9
TORSDOF 4
ENDMDL
MODEL      131
REMARK 921   NORMALIZED FREE ENERGY PREDICTED BY IDOCK:   -4.51 KCAL/MOL
REMARK 922        TOTAL FREE ENERGY PREDICTED BY IDOCK:   -6.19 KCAL/MOL
REMARK 923 INTER-LIGAND FREE ENERGY PREDICTED BY IDOCK:   -5.89 KCAL/MOL
REMARK 924 INTRA-LIGAND FREE ENERGY PREDICTED BY IDOCK:   -0.30 KCAL/MOL
REMARK 927      BINDING AFFINITY PREDICTED BY RF-SCORE:    0.00 PKD
ROOT
HETATM    1  O   UNL     1      -9.822  18.973  66.557  1.00  0.00    -0.329 OA 
HETATM    2  N   UNL     1      -8.680  18.625  66.215  1.00  0.00    -0.261 N  
HETATM    3  C   UNL     1      -8.263  17.315  66.616  1.00  0.00    -0.261 A  
HETATM    4  O   UNL     1      -7.902  19.282  65.516  1.00  0.00    -0.402 OA 
HETATM    5  N   UNL     1      -7.055  17.040  67.063  1.00  0.00    -0.173 NA 
HETATM    6  C   UNL     1      -7.067  15.686  67.282  1.00  0.00    -0.207 A  
HETATM    7  C   UNL     1      -8.287  15.145  66.947  1.00  0.00    -0.232 A  
HETATM    8  N   UNL     1      -9.061  16.206  66.539  1.00  0.00    -0.250 NA 
ENDROOT
BRANCH   8   9
HETATM    9  C   UNL     1     -10.411  16.099  66.015  1.00  0.00    -0.358 C  
BRANCH   9  10
HETATM   10  C   UNL     1     -10.768  14.675  65.644  1.00  0.00    -0.332 C  
HETATM   11  N   UNL     1     -11.508  13.993  66.580  1.00  0.00    -0.342 N  
HETATM   12  O   UNL     1     -10.416  14.185  64.572  1.00  0.00    -0.408 OA 
HETATM   13  H   UNL     1     -11.765  14.469  67.445  1.00  0.00     0.000 HD 
BRANCH  11  14
HETATM   14  C   UNL     1     -11.937  12.624  66.382  1.00  0.00    -0.357 C  
BRANCH  14  15
HETATM   15  C   UNL     1     -11.621  11.779  67.587  1.00  0.00    -0.364 A  
HETATM   16  C   UNL     1     -11.017  10.521  67.432  1.00  0.00    -0.352 A  
HETATM   17  C   UNL     1     -10.715   9.735  68.547  1.00  0.00    -0.252 A  
HETATM   18  C   UNL     1     -11.022  10.192  69.826  1.00  0.00    -0.325 A  
HETATM   19  C   UNL     1     -11.631  11.435  69.994  1.00  0.00    -0.382 A  
HETATM   20  C   UNL     1     -11.933  12.224  68.879  1.00  0.00    -0.300 A  
ENDBRANCH  14  15
ENDBRANCH  11  14
ENDBRANCH   9  10
ENDBRANCH   8   9
TORSDOF 4
ENDMDL
MODEL      132
REMARK 921   NORMALIZED FREE ENERGY PREDICTED BY IDOCK:   -4.50 KCAL/MOL
REMARK 922        TOTAL FREE ENERGY PREDICTED BY IDOCK:   -6.17 KCAL/MOL
REMARK 923 INTER-LIGAND FREE ENERGY PREDICTED BY IDOCK:   -5.36 KCAL/MOL
REMARK 924 INTRA-LIGAND FREE ENERGY PREDICTED BY IDOCK:   -0.80 KCAL/MOL
REMARK 927      BINDING AFFINITY PREDICTED BY RF-SCORE:    0.00 PKD
ROOT
HETATM    1  O   UNL     1     -11.488  11.270  69.208  1.00  0.00    -0.244 OA 
HETATM    2  N   UNL     1     -12.027  11.514  70.300  1.00  0.00    -0.355 N  
HETATM    3  C   UNL     1     -12.303  10.390  71.143  1.00  0.00    -0.400 A  
HETATM    4  O   UNL     1     -12.288  12.637  70.743  1.00  0.00    -0.371 OA 
HETATM    5  N   UNL     1     -13.415  10.255  71.836  1.00  0.00    -0.351 NA 
HETATM    6  C   UNL     1     -13.251   9.083  72.530  1.00  0.00    -0.406 A  
HETATM    7  C   UNL     1     -12.023   8.522  72.261  1.00  0.00    -0.385 A  
HETATM    8  N   UNL     1     -11.427   9.359  71.348  1.00  0.00    -0.352 NA 
ENDROOT
BRANCH   8   9
HETATM    9  C   UNL     1     -10.077   9.205  70.834  1.00  0.00    -0.287 C  
BRANCH   9  10
HETATM   10  C   UNL     1      -9.992   8.134  69.767  1.00  0.00    -0.191 C  
HETATM   11  N   UNL     1     -10.699   8.394  68.618  1.00  0.00    -0.414 N  
HETATM   12  O   UNL     1      -9.325   7.115  69.935  1.00  0.00    -0.151 OA 
HETATM   13  H   UNL     1     -11.227   9.264  68.551  1.00  0.00     0.000 HD 
BRANCH  11  14
HETATM   14  C   UNL     1     -10.722   7.476  67.497  1.00  0.00    -0.226 C  
BRANCH  14  15
HETATM   15  C   UNL     1      -9.742   7.896  66.434  1.00  0.00    -0.235 A  
HETATM   16  C   UNL     1      -9.849   9.160  65.831  1.00  0.00    -0.305 A  
HETATM   17  C   UNL     1      -8.939   9.558  64.850  1.00  0.00    -0.264 A  
HETATM   18  C   UNL     1      -7.920   8.697  64.453  1.00  0.00    -0.146 A  
HETATM   19  C   UNL     1      -7.808   7.435  65.036  1.00  0.00    -0.124 A  
HETATM   20  C   UNL     1      -8.718   7.035  66.019  1.00  0.00    -0.156 A  
ENDBRANCH  14  15
ENDBRANCH  11  14
ENDBRANCH   9  10
ENDBRANCH   8   9
TORSDOF 4
ENDMDL
MODEL      133
REMARK 921   NORMALIZED FREE ENERGY PREDICTED BY IDOCK:   -4.50 KCAL/MOL
REMARK 922        TOTAL FREE ENERGY PREDICTED BY IDOCK:   -6.17 KCAL/MOL
REMARK 923 INTER-LIGAND FREE ENERGY PREDICTED BY IDOCK:   -5.77 KCAL/MOL
REMARK 924 INTRA-LIGAND FREE ENERGY PREDICTED BY IDOCK:   -0.40 KCAL/MOL
REMARK 927      BINDING AFFINITY PREDICTED BY RF-SCORE:    0.00 PKD
ROOT
HETATM    1  O   UNL     1     -12.233  12.989  68.335  1.00  0.00    -0.223 OA 
HETATM    2  N   UNL     1     -11.710  12.304  67.440  1.00  0.00    -0.356 N  
HETATM    3  C   UNL     1     -10.532  11.574  67.799  1.00  0.00    -0.188 A  
HETATM    4  O   UNL     1     -12.149  12.152  66.296  1.00  0.00    -0.626 OA 
HETATM    5  N   UNL     1      -9.475  11.467  67.019  1.00  0.00    -0.172 NA 
HETATM    6  C   UNL     1      -8.612  10.659  67.714  1.00  0.00    -0.123 A  
HETATM    7  C   UNL     1      -9.165  10.266  68.913  1.00  0.00    -0.175 A  
HETATM    8  N   UNL     1     -10.394  10.879  68.970  1.00  0.00    -0.206 NA 
ENDROOT
BRANCH   8   9
HETATM    9  C   UNL     1     -11.371  10.689  70.027  1.00  0.00    -0.324 C  
BRANCH   9  10
HETATM   10  C   UNL     1     -11.192   9.363  70.737  1.00  0.00    -0.302 C  
HETATM   11  N   UNL     1     -11.727   8.275  70.090  1.00  0.00    -0.452 N  
HETATM   12  O   UNL     1     -10.599   9.287  71.812  1.00  0.00    -0.355 OA 
HETATM   13  H   UNL     1     -12.201   8.417  69.198  1.00  0.00     0.000 HD 
BRANCH  11  14
HETATM   14  C   UNL     1     -11.641   6.933  70.630  1.00  0.00    -0.353 C  
BRANCH  14  15
HETATM   15  C   UNL     1     -10.923   6.013  69.678  1.00  0.00    -0.470 A  
HETATM   16  C   UNL     1     -10.989   6.235  68.293  1.00  0.00    -0.408 A  
HETATM   17  C   UNL     1     -10.319   5.389  67.405  1.00  0.00    -0.258 A  
HETATM   18  C   UNL     1      -9.586   4.309  67.890  1.00  0.00    -0.207 A  
HETATM   19  C   UNL     1      -9.521   4.071  69.262  1.00  0.00    -0.260 A  
HETATM   20  C   UNL     1     -10.190   4.917  70.153  1.00  0.00    -0.310 A  
ENDBRANCH  14  15
ENDBRANCH  11  14
ENDBRANCH   9  10
ENDBRANCH   8   9
TORSDOF 4
ENDMDL
MODEL      134
REMARK 921   NORMALIZED FREE ENERGY PREDICTED BY IDOCK:   -4.49 KCAL/MOL
REMARK 922        TOTAL FREE ENERGY PREDICTED BY IDOCK:   -6.16 KCAL/MOL
REMARK 923 INTER-LIGAND FREE ENERGY PREDICTED BY IDOCK:   -5.63 KCAL/MOL
REMARK 924 INTRA-LIGAND FREE ENERGY PREDICTED BY IDOCK:   -0.53 KCAL/MOL
REMARK 927      BINDING AFFINITY PREDICTED BY RF-SCORE:    0.00 PKD
ROOT
HETATM    1  O   UNL     1      -8.218   8.925  71.984  1.00  0.00    -0.362 OA 
HETATM    2  N   UNL     1      -7.879   9.412  70.893  1.00  0.00    -0.121 N  
HETATM    3  C   UNL     1      -8.688   9.072  69.762  1.00  0.00    -0.147 A  
HETATM    4  O   UNL     1      -6.949  10.203  70.712  1.00  0.00    -0.329 OA 
HETATM    5  N   UNL     1      -8.196   8.785  68.574  1.00  0.00    -0.116 NA 
HETATM    6  C   UNL     1      -9.298   8.571  67.785  1.00  0.00    -0.137 A  
HETATM    7  C   UNL     1     -10.458   8.748  68.504  1.00  0.00    -0.175 A  
HETATM    8  N   UNL     1     -10.056   9.049  69.784  1.00  0.00    -0.193 NA 
ENDROOT
BRANCH   8   9
HETATM    9  C   UNL     1     -10.948   9.396  70.876  1.00  0.00    -0.320 C  
BRANCH   9  10
HETATM   10  C   UNL     1     -11.862  10.550  70.523  1.00  0.00    -0.347 C  
HETATM   11  N   UNL     1     -11.227  11.684  70.073  1.00  0.00    -0.489 N  
HETATM   12  O   UNL     1     -13.083  10.456  70.631  1.00  0.00    -0.369 OA 
HETATM   13  H   UNL     1     -10.209  11.684  70.007  1.00  0.00     0.000 HD 
BRANCH  11  14
HETATM   14  C   UNL     1     -11.953  12.878  69.689  1.00  0.00    -0.292 C  
BRANCH  14  15
HETATM   15  C   UNL     1     -11.763  13.178  68.226  1.00  0.00    -0.384 A  
HETATM   16  C   UNL     1     -11.740  14.506  67.772  1.00  0.00    -0.403 A  
HETATM   17  C   UNL     1     -11.558  14.791  66.417  1.00  0.00    -0.301 A  
HETATM   18  C   UNL     1     -11.407  13.754  65.500  1.00  0.00    -0.313 A  
HETATM   19  C   UNL     1     -11.438  12.430  65.935  1.00  0.00    -0.422 A  
HETATM   20  C   UNL     1     -11.620  12.142  67.292  1.00  0.00    -0.404 A  
ENDBRANCH  14  15
ENDBRANCH  11  14
ENDBRANCH   9  10
ENDBRANCH   8   9
TORSDOF 4
ENDMDL
MODEL      135
REMARK 921   NORMALIZED FREE ENERGY PREDICTED BY IDOCK:   -4.49 KCAL/MOL
REMARK 922        TOTAL FREE ENERGY PREDICTED BY IDOCK:   -6.16 KCAL/MOL
REMARK 923 INTER-LIGAND FREE ENERGY PREDICTED BY IDOCK:   -6.63 KCAL/MOL
REMARK 924 INTRA-LIGAND FREE ENERGY PREDICTED BY IDOCK:    0.48 KCAL/MOL
REMARK 927      BINDING AFFINITY PREDICTED BY RF-SCORE:    0.00 PKD
ROOT
HETATM    1  O   UNL     1      -9.376  12.529  66.396  1.00  0.00    -0.234 OA 
HETATM    2  N   UNL     1     -10.316  12.411  67.201  1.00  0.00    -0.219 N  
HETATM    3  C   UNL     1     -10.814  13.620  67.784  1.00  0.00    -0.253 A  
HETATM    4  O   UNL     1     -10.890  11.358  67.493  1.00  0.00    -0.214 OA 
HETATM    5  N   UNL     1     -11.150  13.733  69.053  1.00  0.00    -0.256 NA 
HETATM    6  C   UNL     1     -11.614  15.017  69.176  1.00  0.00    -0.310 A  
HETATM    7  C   UNL     1     -11.569  15.674  67.967  1.00  0.00    -0.239 A  
HETATM    8  N   UNL     1     -11.031  14.772  67.079  1.00  0.00    -0.316 NA 
ENDROOT
BRANCH   8   9
HETATM    9  C   UNL     1     -10.869  15.004  65.654  1.00  0.00    -0.349 C  
BRANCH   9  10
HETATM   10  C   UNL     1     -10.811  16.479  65.319  1.00  0.00    -0.221 C  
HETATM   11  N   UNL     1     -10.332  17.290  66.320  1.00  0.00    -0.339 N  
HETATM   12  O   UNL     1     -11.166  16.900  64.219  1.00  0.00    -1.204 OA 
HETATM   13  H   UNL     1     -10.054  16.866  67.205  1.00  0.00     0.000 HD 
BRANCH  11  14
HETATM   14  C   UNL     1     -10.209  18.725  66.163  1.00  0.00    -0.421 C  
BRANCH  14  15
HETATM   15  C   UNL     1      -9.014  19.250  66.914  1.00  0.00    -0.339 A  
HETATM   16  C   UNL     1      -8.166  20.199  66.322  1.00  0.00    -0.266 A  
HETATM   17  C   UNL     1      -7.060  20.695  67.016  1.00  0.00    -0.375 A  
HETATM   18  C   UNL     1      -6.785  20.242  68.303  1.00  0.00    -0.331 A  
HETATM   19  C   UNL     1      -7.612  19.293  68.900  1.00  0.00    -0.384 A  
HETATM   20  C   UNL     1      -8.721  18.795  68.207  1.00  0.00    -0.363 A  
ENDBRANCH  14  15
ENDBRANCH  11  14
ENDBRANCH   9  10
ENDBRANCH   8   9
TORSDOF 4
ENDMDL
MODEL      136
REMARK 921   NORMALIZED FREE ENERGY PREDICTED BY IDOCK:   -4.48 KCAL/MOL
REMARK 922        TOTAL FREE ENERGY PREDICTED BY IDOCK:   -6.14 KCAL/MOL
REMARK 923 INTER-LIGAND FREE ENERGY PREDICTED BY IDOCK:   -5.42 KCAL/MOL
REMARK 924 INTRA-LIGAND FREE ENERGY PREDICTED BY IDOCK:   -0.72 KCAL/MOL
REMARK 927      BINDING AFFINITY PREDICTED BY RF-SCORE:    0.00 PKD
ROOT
HETATM    1  O   UNL     1      -9.513  11.945  67.531  1.00  0.00    -0.171 OA 
HETATM    2  N   UNL     1     -10.121  10.905  67.835  1.00  0.00    -0.173 N  
HETATM    3  C   UNL     1     -10.875  10.937  69.051  1.00  0.00    -0.230 A  
HETATM    4  O   UNL     1     -10.177   9.876  67.155  1.00  0.00    -0.202 OA 
HETATM    5  N   UNL     1     -10.915   9.939  69.911  1.00  0.00    -0.264 NA 
HETATM    6  C   UNL     1     -11.776  10.361  70.891  1.00  0.00    -0.360 A  
HETATM    7  C   UNL     1     -12.268  11.615  70.607  1.00  0.00    -0.366 A  
HETATM    8  N   UNL     1     -11.664  11.989  69.430  1.00  0.00    -0.320 NA 
ENDROOT
BRANCH   8   9
HETATM    9  C   UNL     1     -11.944  13.215  68.704  1.00  0.00    -0.284 C  
BRANCH   9  10
HETATM   10  C   UNL     1     -11.218  14.406  69.295  1.00  0.00    -0.275 C  
HETATM   11  N   UNL     1     -10.027  14.726  68.689  1.00  0.00    -0.226 N  
HETATM   12  O   UNL     1     -11.684  15.033  70.244  1.00  0.00    -0.258 OA 
HETATM   13  H   UNL     1      -9.708  14.160  67.902  1.00  0.00     0.000 HD 
BRANCH  11  14
HETATM   14  C   UNL     1      -9.209  15.839  69.126  1.00  0.00    -0.256 C  
BRANCH  14  15
HETATM   15  C   UNL     1      -9.312  16.995  68.168  1.00  0.00    -0.254 A  
HETATM   16  C   UNL     1     -10.438  17.834  68.188  1.00  0.00    -0.382 A  
HETATM   17  C   UNL     1     -10.536  18.913  67.307  1.00  0.00    -0.529 A  
HETATM   18  C   UNL     1      -9.518  19.160  66.390  1.00  0.00    -0.390 A  
HETATM   19  C   UNL     1      -8.399  18.329  66.352  1.00  0.00    -0.267 A  
HETATM   20  C   UNL     1      -8.298  17.249  67.235  1.00  0.00    -0.216 A  
ENDBRANCH  14  15
ENDBRANCH  11  14
ENDBRANCH   9  10
ENDBRANCH   8   9
TORSDOF 4
ENDMDL
MODEL      137
REMARK 921   NORMALIZED FREE ENERGY PREDICTED BY IDOCK:   -4.47 KCAL/MOL
REMARK 922        TOTAL FREE ENERGY PREDICTED BY IDOCK:   -6.13 KCAL/MOL
REMARK 923 INTER-LIGAND FREE ENERGY PREDICTED BY IDOCK:   -5.78 KCAL/MOL
REMARK 924 INTRA-LIGAND FREE ENERGY PREDICTED BY IDOCK:   -0.35 KCAL/MOL
REMARK 927      BINDING AFFINITY PREDICTED BY RF-SCORE:    0.00 PKD
ROOT
HETATM    1  O   UNL     1     -11.890  16.279  70.665  1.00  0.00    -0.283 OA 
HETATM    2  N   UNL     1     -12.123  15.729  71.755  1.00  0.00    -0.419 N  
HETATM    3  C   UNL     1     -12.634  14.393  71.701  1.00  0.00    -0.353 A  
HETATM    4  O   UNL     1     -11.897  16.210  72.870  1.00  0.00    -0.482 OA 
HETATM    5  N   UNL     1     -13.594  13.948  72.485  1.00  0.00    -0.587 NA 
HETATM    6  C   UNL     1     -13.740  12.629  72.140  1.00  0.00    -0.312 A  
HETATM    7  C   UNL     1     -12.848  12.278  71.152  1.00  0.00    -0.207 A  
HETATM    8  N   UNL     1     -12.154  13.428  70.858  1.00  0.00    -0.275 NA 
ENDROOT
BRANCH   8   9
HETATM    9  C   UNL     1     -11.047  13.516  69.922  1.00  0.00     0.188 C  
BRANCH   9  10
HETATM   10  C   UNL     1     -11.444  14.201  68.631  1.00  0.00    -0.299 C  
HETATM   11  N   UNL     1     -10.708  15.315  68.307  1.00  0.00    -0.247 N  
HETATM   12  O   UNL     1     -12.360  13.769  67.933  1.00  0.00    -0.245 OA 
HETATM   13  H   UNL     1      -9.960  15.610  68.936  1.00  0.00     0.000 HD 
BRANCH  11  14
HETATM   14  C   UNL     1     -10.954  16.085  67.106  1.00  0.00    -0.183 C  
BRANCH  14  15
HETATM   15  C   UNL     1     -10.361  17.465  67.217  1.00  0.00    -0.336 A  
HETATM   16  C   UNL     1      -9.342  17.870  66.340  1.00  0.00    -0.268 A  
HETATM   17  C   UNL     1      -8.792  19.151  66.433  1.00  0.00    -0.349 A  
HETATM   18  C   UNL     1      -9.246  20.035  67.407  1.00  0.00    -0.477 A  
HETATM   19  C   UNL     1     -10.249  19.642  68.292  1.00  0.00    -0.567 A  
HETATM   20  C   UNL     1     -10.802  18.361  68.200  1.00  0.00    -0.081 A  
ENDBRANCH  14  15
ENDBRANCH  11  14
ENDBRANCH   9  10
ENDBRANCH   8   9
TORSDOF 4
ENDMDL
MODEL      138
REMARK 921   NORMALIZED FREE ENERGY PREDICTED BY IDOCK:   -4.47 KCAL/MOL
REMARK 922        TOTAL FREE ENERGY PREDICTED BY IDOCK:   -6.13 KCAL/MOL
REMARK 923 INTER-LIGAND FREE ENERGY PREDICTED BY IDOCK:   -6.11 KCAL/MOL
REMARK 924 INTRA-LIGAND FREE ENERGY PREDICTED BY IDOCK:   -0.02 KCAL/MOL
REMARK 927      BINDING AFFINITY PREDICTED BY RF-SCORE:    0.00 PKD
ROOT
HETATM    1  O   UNL     1     -11.792  14.347  66.468  1.00  0.00    -0.384 OA 
HETATM    2  N   UNL     1     -12.139  13.903  65.361  1.00  0.00    -0.385 N  
HETATM    3  C   UNL     1     -11.347  12.840  64.822  1.00  0.00    -0.309 A  
HETATM    4  O   UNL     1     -13.133  14.255  64.720  1.00  0.00    -0.599 OA 
HETATM    5  N   UNL     1     -11.004  12.757  63.552  1.00  0.00    -0.365 NA 
HETATM    6  C   UNL     1     -10.303  11.583  63.457  1.00  0.00    -0.433 A  
HETATM    7  C   UNL     1     -10.239  10.949  64.678  1.00  0.00    -0.345 A  
HETATM    8  N   UNL     1     -10.896  11.777  65.557  1.00  0.00    -0.291 NA 
ENDROOT
BRANCH   8   9
HETATM    9  C   UNL     1     -11.147  11.475  66.955  1.00  0.00    -0.307 C  
BRANCH   9  10
HETATM   10  C   UNL     1     -10.366  10.267  67.427  1.00  0.00    -0.233 C  
HETATM   11  N   UNL     1     -11.120   9.262  67.984  1.00  0.00    -0.501 N  
HETATM   12  O   UNL     1      -9.144  10.207  67.305  1.00  0.00    -0.137 OA 
HETATM   13  H   UNL     1     -12.131   9.383  68.048  1.00  0.00     0.000 HD 
BRANCH  11  14
HETATM   14  C   UNL     1     -10.531   8.036  68.483  1.00  0.00    -0.164 C  
BRANCH  14  15
HETATM   15  C   UNL     1     -10.554   7.999  69.988  1.00  0.00    -0.242 A  
HETATM   16  C   UNL     1     -11.581   8.642  70.697  1.00  0.00    -0.225 A  
HETATM   17  C   UNL     1     -11.611   8.606  72.093  1.00  0.00    -0.440 A  
HETATM   18  C   UNL     1     -10.613   7.936  72.795  1.00  0.00    -0.418 A  
HETATM   19  C   UNL     1      -9.582   7.301  72.104  1.00  0.00    -0.162 A  
HETATM   20  C   UNL     1      -9.549   7.336  70.707  1.00  0.00    -0.171 A  
ENDBRANCH  14  15
ENDBRANCH  11  14
ENDBRANCH   9  10
ENDBRANCH   8   9
TORSDOF 4
ENDMDL
MODEL      139
REMARK 921   NORMALIZED FREE ENERGY PREDICTED BY IDOCK:   -4.43 KCAL/MOL
REMARK 922        TOTAL FREE ENERGY PREDICTED BY IDOCK:   -6.08 KCAL/MOL
REMARK 923 INTER-LIGAND FREE ENERGY PREDICTED BY IDOCK:   -5.71 KCAL/MOL
REMARK 924 INTRA-LIGAND FREE ENERGY PREDICTED BY IDOCK:   -0.37 KCAL/MOL
REMARK 927      BINDING AFFINITY PREDICTED BY RF-SCORE:    0.00 PKD
ROOT
HETATM    1  O   UNL     1     -10.084   9.820  65.155  1.00  0.00    -0.262 OA 
HETATM    2  N   UNL     1     -10.155  10.740  64.323  1.00  0.00    -0.343 N  
HETATM    3  C   UNL     1     -10.987  11.852  64.669  1.00  0.00    -0.316 A  
HETATM    4  O   UNL     1      -9.529  10.804  63.261  1.00  0.00    -0.259 OA 
HETATM    5  N   UNL     1     -11.788  12.457  63.815  1.00  0.00    -0.455 NA 
HETATM    6  C   UNL     1     -12.353  13.479  64.534  1.00  0.00    -0.355 A  
HETATM    7  C   UNL     1     -11.873  13.496  65.824  1.00  0.00    -0.372 A  
HETATM    8  N   UNL     1     -11.010  12.429  65.910  1.00  0.00    -0.278 NA 
ENDROOT
BRANCH   8   9
HETATM    9  C   UNL     1     -10.205  12.102  67.073  1.00  0.00    -0.207 C  
BRANCH   9  10
HETATM   10  C   UNL     1     -10.984  11.309  68.101  1.00  0.00    -0.231 C  
HETATM   11  N   UNL     1     -10.220  10.613  69.007  1.00  0.00    -0.206 N  
HETATM   12  O   UNL     1     -12.214  11.309  68.112  1.00  0.00    -0.622 OA 
HETATM   13  H   UNL     1      -9.204  10.665  68.936  1.00  0.00     0.000 HD 
BRANCH  11  14
HETATM   14  C   UNL     1     -10.806   9.807  70.059  1.00  0.00    -0.278 C  
BRANCH  14  15
HETATM   15  C   UNL     1     -10.602   8.339  69.793  1.00  0.00    -0.228 A  
HETATM   16  C   UNL     1      -9.770   7.919  68.743  1.00  0.00    -0.159 A  
HETATM   17  C   UNL     1      -9.571   6.558  68.496  1.00  0.00    -0.123 A  
HETATM   18  C   UNL     1     -10.206   5.606  69.287  1.00  0.00    -0.309 A  
HETATM   19  C   UNL     1     -11.043   6.009  70.327  1.00  0.00    -0.415 A  
HETATM   20  C   UNL     1     -11.243   7.370  70.577  1.00  0.00    -0.296 A  
ENDBRANCH  14  15
ENDBRANCH  11  14
ENDBRANCH   9  10
ENDBRANCH   8   9
TORSDOF 4
ENDMDL
MODEL      140
REMARK 921   NORMALIZED FREE ENERGY PREDICTED BY IDOCK:   -4.42 KCAL/MOL
REMARK 922        TOTAL FREE ENERGY PREDICTED BY IDOCK:   -6.07 KCAL/MOL
REMARK 923 INTER-LIGAND FREE ENERGY PREDICTED BY IDOCK:   -5.66 KCAL/MOL
REMARK 924 INTRA-LIGAND FREE ENERGY PREDICTED BY IDOCK:   -0.40 KCAL/MOL
REMARK 927      BINDING AFFINITY PREDICTED BY RF-SCORE:    0.00 PKD
ROOT
HETATM    1  O   UNL     1      -8.682  11.146  66.041  1.00  0.00    -0.186 OA 
HETATM    2  N   UNL     1      -9.695  10.475  66.301  1.00  0.00    -0.197 N  
HETATM    3  C   UNL     1     -10.553  10.984  67.328  1.00  0.00    -0.245 A  
HETATM    4  O   UNL     1     -10.053   9.449  65.714  1.00  0.00    -0.288 OA 
HETATM    5  N   UNL     1     -11.124  10.226  68.243  1.00  0.00    -0.266 NA 
HETATM    6  C   UNL     1     -11.885  11.093  68.984  1.00  0.00    -0.348 A  
HETATM    7  C   UNL     1     -11.781  12.377  68.499  1.00  0.00    -0.326 A  
HETATM    8  N   UNL     1     -10.903  12.302  67.444  1.00  0.00    -0.232 NA 
ENDROOT
BRANCH   8   9
HETATM    9  C   UNL     1     -10.550  13.410  66.574  1.00  0.00    -0.287 C  
BRANCH   9  10
HETATM   10  C   UNL     1      -9.519  14.323  67.203  1.00  0.00    -0.227 C  
HETATM   11  N   UNL     1     -10.030  15.404  67.882  1.00  0.00    -0.221 N  
HETATM   12  O   UNL     1      -8.316  14.092  67.108  1.00  0.00    -0.199 OA 
HETATM   13  H   UNL     1     -11.042  15.527  67.921  1.00  0.00     0.000 HD 
BRANCH  11  14
HETATM   14  C   UNL     1      -9.183  16.374  68.545  1.00  0.00    -0.226 C  
BRANCH  14  15
HETATM   15  C   UNL     1      -9.312  17.731  67.905  1.00  0.00    -0.266 A  
HETATM   16  C   UNL     1     -10.579  18.304  67.709  1.00  0.00    -0.415 A  
HETATM   17  C   UNL     1     -10.705  19.566  67.122  1.00  0.00    -0.599 A  
HETATM   18  C   UNL     1      -9.570  20.263  66.717  1.00  0.00    -0.548 A  
HETATM   19  C   UNL     1      -8.307  19.701  66.897  1.00  0.00    -0.333 A  
HETATM   20  C   UNL     1      -8.178  18.439  67.485  1.00  0.00    -0.255 A  
ENDBRANCH  14  15
ENDBRANCH  11  14
ENDBRANCH   9  10
ENDBRANCH   8   9
TORSDOF 4
ENDMDL
MODEL      141
REMARK 921   NORMALIZED FREE ENERGY PREDICTED BY IDOCK:   -4.41 KCAL/MOL
REMARK 922        TOTAL FREE ENERGY PREDICTED BY IDOCK:   -6.06 KCAL/MOL
REMARK 923 INTER-LIGAND FREE ENERGY PREDICTED BY IDOCK:   -5.39 KCAL/MOL
REMARK 924 INTRA-LIGAND FREE ENERGY PREDICTED BY IDOCK:   -0.67 KCAL/MOL
REMARK 927      BINDING AFFINITY PREDICTED BY RF-SCORE:    0.00 PKD
ROOT
HETATM    1  O   UNL     1      -9.432   8.473  68.056  1.00  0.00    -0.139 OA 
HETATM    2  N   UNL     1      -8.998   7.649  68.878  1.00  0.00    -0.138 N  
HETATM    3  C   UNL     1      -9.098   8.009  70.259  1.00  0.00    -0.148 A  
HETATM    4  O   UNL     1      -8.547   6.531  68.611  1.00  0.00    -0.123 OA 
HETATM    5  N   UNL     1      -8.146   7.785  71.142  1.00  0.00    -0.093 NA 
HETATM    6  C   UNL     1      -8.662   8.233  72.330  1.00  0.00    -0.213 A  
HETATM    7  C   UNL     1      -9.940   8.715  72.160  1.00  0.00    -0.316 A  
HETATM    8  N   UNL     1     -10.206   8.588  70.817  1.00  0.00    -0.192 NA 
ENDROOT
BRANCH   8   9
HETATM    9  C   UNL     1     -11.476   8.899  70.187  1.00  0.00    -0.036 C  
BRANCH   9  10
HETATM   10  C   UNL     1     -11.579  10.359  69.800  1.00  0.00    -0.269 C  
HETATM   11  N   UNL     1     -11.549  10.611  68.449  1.00  0.00    -0.469 N  
HETATM   12  O   UNL     1     -11.689  11.240  70.650  1.00  0.00    -0.318 OA 
HETATM   13  H   UNL     1     -11.460   9.826  67.804  1.00  0.00     0.000 HD 
BRANCH  11  14
HETATM   14  C   UNL     1     -11.641  11.952  67.909  1.00  0.00    -0.323 C  
BRANCH  14  15
HETATM   15  C   UNL     1     -11.462  11.946  66.413  1.00  0.00    -0.371 A  
HETATM   16  C   UNL     1     -10.497  11.117  65.819  1.00  0.00    -0.305 A  
HETATM   17  C   UNL     1     -10.331  11.101  64.432  1.00  0.00    -0.407 A  
HETATM   18  C   UNL     1     -11.119  11.918  63.626  1.00  0.00    -0.517 A  
HETATM   19  C   UNL     1     -12.074  12.754  64.204  1.00  0.00    -0.513 A  
HETATM   20  C   UNL     1     -12.242  12.771  65.592  1.00  0.00    -0.503 A  
ENDBRANCH  14  15
ENDBRANCH  11  14
ENDBRANCH   9  10
ENDBRANCH   8   9
TORSDOF 4
ENDMDL
MODEL      142
REMARK 921   NORMALIZED FREE ENERGY PREDICTED BY IDOCK:   -4.39 KCAL/MOL
REMARK 922        TOTAL FREE ENERGY PREDICTED BY IDOCK:   -6.03 KCAL/MOL
REMARK 923 INTER-LIGAND FREE ENERGY PREDICTED BY IDOCK:   -5.45 KCAL/MOL
REMARK 924 INTRA-LIGAND FREE ENERGY PREDICTED BY IDOCK:   -0.58 KCAL/MOL
REMARK 927      BINDING AFFINITY PREDICTED BY RF-SCORE:    0.00 PKD
ROOT
HETATM    1  O   UNL     1      -9.604  19.960  69.055  1.00  0.00    -0.277 OA 
HETATM    2  N   UNL     1      -9.597  19.842  67.819  1.00  0.00    -0.361 N  
HETATM    3  C   UNL     1      -8.723  18.848  67.275  1.00  0.00    -0.278 A  
HETATM    4  O   UNL     1     -10.317  20.462  67.030  1.00  0.00    -0.365 OA 
HETATM    5  N   UNL     1      -7.996  19.029  66.192  1.00  0.00    -0.386 NA 
HETATM    6  C   UNL     1      -7.355  17.832  66.000  1.00  0.00    -0.272 A  
HETATM    7  C   UNL     1      -7.715  16.921  66.967  1.00  0.00    -0.195 A  
HETATM    8  N   UNL     1      -8.580  17.591  67.800  1.00  0.00    -0.226 NA 
ENDROOT
BRANCH   8   9
HETATM    9  C   UNL     1      -9.280  16.997  68.925  1.00  0.00    -0.215 C  
BRANCH   9  10
HETATM   10  C   UNL     1     -10.551  16.294  68.499  1.00  0.00    -0.294 C  
HETATM   11  N   UNL     1     -10.657  14.982  68.895  1.00  0.00    -0.234 N  
HETATM   12  O   UNL     1     -11.419  16.876  67.850  1.00  0.00    -0.033 OA 
HETATM   13  H   UNL     1      -9.896  14.569  69.435  1.00  0.00     0.000 HD 
BRANCH  11  14
HETATM   14  C   UNL     1     -11.809  14.165  68.575  1.00  0.00    -0.355 C  
BRANCH  14  15
HETATM   15  C   UNL     1     -11.487  13.180  67.483  1.00  0.00    -0.371 A  
HETATM   16  C   UNL     1     -11.520  13.579  66.137  1.00  0.00    -0.348 A  
HETATM   17  C   UNL     1     -11.215  12.672  65.119  1.00  0.00    -0.336 A  
HETATM   18  C   UNL     1     -10.884  11.357  65.434  1.00  0.00    -0.292 A  
HETATM   19  C   UNL     1     -10.858  10.944  66.765  1.00  0.00    -0.283 A  
HETATM   20  C   UNL     1     -11.162  11.851  67.786  1.00  0.00    -0.330 A  
ENDBRANCH  14  15
ENDBRANCH  11  14
ENDBRANCH   9  10
ENDBRANCH   8   9
TORSDOF 4
ENDMDL
MODEL      143
REMARK 921   NORMALIZED FREE ENERGY PREDICTED BY IDOCK:   -4.35 KCAL/MOL
REMARK 922        TOTAL FREE ENERGY PREDICTED BY IDOCK:   -5.99 KCAL/MOL
REMARK 923 INTER-LIGAND FREE ENERGY PREDICTED BY IDOCK:   -5.88 KCAL/MOL
REMARK 924 INTRA-LIGAND FREE ENERGY PREDICTED BY IDOCK:   -0.11 KCAL/MOL
REMARK 927      BINDING AFFINITY PREDICTED BY RF-SCORE:    0.00 PKD
ROOT
HETATM    1  O   UNL     1     -10.736  10.428  66.146  1.00  0.00    -0.131 OA 
HETATM    2  N   UNL     1     -10.381  10.532  67.332  1.00  0.00    -0.210 N  
HETATM    3  C   UNL     1      -9.407  11.540  67.621  1.00  0.00    -0.171 A  
HETATM    4  O   UNL     1     -10.835   9.888  68.282  1.00  0.00    -0.239 OA 
HETATM    5  N   UNL     1      -8.399  11.363  68.451  1.00  0.00    -0.148 NA 
HETATM    6  C   UNL     1      -7.752  12.572  68.473  1.00  0.00    -0.113 A  
HETATM    7  C   UNL     1      -8.388  13.485  67.663  1.00  0.00    -0.179 A  
HETATM    8  N   UNL     1      -9.442  12.805  67.099  1.00  0.00    -0.216 NA 
ENDROOT
BRANCH   8   9
HETATM    9  C   UNL     1     -10.443  13.395  66.229  1.00  0.00    -0.289 C  
BRANCH   9  10
HETATM   10  C   UNL     1     -11.449  14.227  66.999  1.00  0.00    -0.361 C  
HETATM   11  N   UNL     1     -11.056  14.600  68.262  1.00  0.00    -0.261 N  
HETATM   12  O   UNL     1     -12.530  14.540  66.506  1.00  0.00    -0.294 OA 
HETATM   13  H   UNL     1     -10.141  14.304  68.600  1.00  0.00     0.000 HD 
BRANCH  11  14
HETATM   14  C   UNL     1     -11.897  15.400  69.130  1.00  0.00    -0.335 C  
BRANCH  14  15
HETATM   15  C   UNL     1     -12.504  14.558  70.220  1.00  0.00    -0.405 A  
HETATM   16  C   UNL     1     -12.167  13.200  70.336  1.00  0.00    -0.389 A  
HETATM   17  C   UNL     1     -12.722  12.414  71.350  1.00  0.00    -0.346 A  
HETATM   18  C   UNL     1     -13.625  12.974  72.250  1.00  0.00    -0.643 A  
HETATM   19  C   UNL     1     -13.976  14.318  72.139  1.00  0.00    -0.618 A  
HETATM   20  C   UNL     1     -13.422  15.106  71.126  1.00  0.00    -0.533 A  
ENDBRANCH  14  15
ENDBRANCH  11  14
ENDBRANCH   9  10
ENDBRANCH   8   9
TORSDOF 4
ENDMDL
MODEL      144
REMARK 921   NORMALIZED FREE ENERGY PREDICTED BY IDOCK:   -4.33 KCAL/MOL
REMARK 922        TOTAL FREE ENERGY PREDICTED BY IDOCK:   -5.96 KCAL/MOL
REMARK 923 INTER-LIGAND FREE ENERGY PREDICTED BY IDOCK:   -5.68 KCAL/MOL
REMARK 924 INTRA-LIGAND FREE ENERGY PREDICTED BY IDOCK:   -0.27 KCAL/MOL
REMARK 927      BINDING AFFINITY PREDICTED BY RF-SCORE:    0.00 PKD
ROOT
HETATM    1  O   UNL     1      -8.524  13.539  67.685  1.00  0.00    -0.158 OA 
HETATM    2  N   UNL     1      -8.842  14.473  66.929  1.00  0.00    -0.238 N  
HETATM    3  C   UNL     1     -10.140  14.399  66.331  1.00  0.00    -0.286 A  
HETATM    4  O   UNL     1      -8.163  15.479  66.699  1.00  0.00    -0.253 OA 
HETATM    5  N   UNL     1     -10.384  14.717  65.076  1.00  0.00    -0.406 NA 
HETATM    6  C   UNL     1     -11.737  14.552  64.933  1.00  0.00    -0.402 A  
HETATM    7  C   UNL     1     -12.311  14.147  66.117  1.00  0.00    -0.436 A  
HETATM    8  N   UNL     1     -11.270  14.028  67.008  1.00  0.00    -0.304 NA 
ENDROOT
BRANCH   8   9
HETATM    9  C   UNL     1     -11.413  13.699  68.415  1.00  0.00    -0.311 C  
BRANCH   9  10
HETATM   10  C   UNL     1     -11.745  12.237  68.628  1.00  0.00    -0.328 C  
HETATM   11  N   UNL     1     -11.493  11.756  69.891  1.00  0.00    -0.478 N  
HETATM   12  O   UNL     1     -12.214  11.549  67.724  1.00  0.00    -0.560 OA 
HETATM   13  H   UNL     1     -11.106  12.390  70.590  1.00  0.00     0.000 HD 
BRANCH  11  14
HETATM   14  C   UNL     1     -11.757  10.382  70.264  1.00  0.00    -0.321 C  
BRANCH  14  15
HETATM   15  C   UNL     1     -10.560   9.509  69.993  1.00  0.00    -0.280 A  
HETATM   16  C   UNL     1      -9.520   9.421  70.932  1.00  0.00    -0.279 A  
HETATM   17  C   UNL     1      -8.411   8.607  70.689  1.00  0.00    -0.157 A  
HETATM   18  C   UNL     1      -8.324   7.882  69.505  1.00  0.00    -0.131 A  
HETATM   19  C   UNL     1      -9.344   7.967  68.559  1.00  0.00    -0.142 A  
HETATM   20  C   UNL     1     -10.456   8.781  68.800  1.00  0.00    -0.214 A  
ENDBRANCH  14  15
ENDBRANCH  11  14
ENDBRANCH   9  10
ENDBRANCH   8   9
TORSDOF 4
ENDMDL
MODEL      145
REMARK 921   NORMALIZED FREE ENERGY PREDICTED BY IDOCK:   -4.33 KCAL/MOL
REMARK 922        TOTAL FREE ENERGY PREDICTED BY IDOCK:   -5.96 KCAL/MOL
REMARK 923 INTER-LIGAND FREE ENERGY PREDICTED BY IDOCK:   -5.35 KCAL/MOL
REMARK 924 INTRA-LIGAND FREE ENERGY PREDICTED BY IDOCK:   -0.61 KCAL/MOL
REMARK 927      BINDING AFFINITY PREDICTED BY RF-SCORE:    0.00 PKD
ROOT
HETATM    1  O   UNL     1     -12.513  10.987  69.266  1.00  0.00    -0.400 OA 
HETATM    2  N   UNL     1     -12.452  10.988  70.507  1.00  0.00    -0.342 N  
HETATM    3  C   UNL     1     -11.653   9.963  71.109  1.00  0.00    -0.389 A  
HETATM    4  O   UNL     1     -12.966  11.824  71.255  1.00  0.00    -0.359 OA 
HETATM    5  N   UNL     1     -12.008   9.305  72.193  1.00  0.00    -0.311 NA 
HETATM    6  C   UNL     1     -10.955   8.466  72.450  1.00  0.00    -0.355 A  
HETATM    7  C   UNL     1      -9.954   8.636  71.520  1.00  0.00    -0.274 A  
HETATM    8  N   UNL     1     -10.422   9.587  70.645  1.00  0.00    -0.286 NA 
ENDROOT
BRANCH   8   9
HETATM    9  C   UNL     1      -9.665  10.144  69.538  1.00  0.00    -0.229 C  
BRANCH   9  10
HETATM   10  C   UNL     1      -9.565   9.182  68.373  1.00  0.00    -0.151 C  
HETATM   11  N   UNL     1     -10.666   8.382  68.178  1.00  0.00    -0.438 N  
HETATM   12  O   UNL     1      -8.564   9.140  67.661  1.00  0.00    -0.117 OA 
HETATM   13  H   UNL     1     -11.462   8.478  68.809  1.00  0.00     0.000 HD 
BRANCH  11  14
HETATM   14  C   UNL     1     -10.738   7.410  67.106  1.00  0.00    -0.330 C  
BRANCH  14  15
HETATM   15  C   UNL     1     -10.241   6.064  67.564  1.00  0.00    -0.225 A  
HETATM   16  C   UNL     1     -10.330   5.699  68.916  1.00  0.00    -0.295 A  
HETATM   17  C   UNL     1      -9.877   4.449  69.346  1.00  0.00    -0.239 A  
HETATM   18  C   UNL     1      -9.322   3.557  68.433  1.00  0.00    -0.228 A  
HETATM   19  C   UNL     1      -9.218   3.911  67.088  1.00  0.00    -0.197 A  
HETATM   20  C   UNL     1      -9.671   5.161  66.656  1.00  0.00    -0.181 A  
ENDBRANCH  14  15
ENDBRANCH  11  14
ENDBRANCH   9  10
ENDBRANCH   8   9
TORSDOF 4
ENDMDL
MODEL      146
REMARK 921   NORMALIZED FREE ENERGY PREDICTED BY IDOCK:   -4.32 KCAL/MOL
REMARK 922        TOTAL FREE ENERGY PREDICTED BY IDOCK:   -5.94 KCAL/MOL
REMARK 923 INTER-LIGAND FREE ENERGY PREDICTED BY IDOCK:   -5.41 KCAL/MOL
REMARK 924 INTRA-LIGAND FREE ENERGY PREDICTED BY IDOCK:   -0.54 KCAL/MOL
REMARK 927      BINDING AFFINITY PREDICTED BY RF-SCORE:    0.00 PKD
ROOT
HETATM    1  O   UNL     1     -11.785  15.043  66.071  1.00  0.00    -0.245 OA 
HETATM    2  N   UNL     1     -10.886  15.778  65.630  1.00  0.00    -0.328 N  
HETATM    3  C   UNL     1     -10.738  17.055  66.260  1.00  0.00    -0.086 A  
HETATM    4  O   UNL     1     -10.079  15.482  64.744  1.00  0.00    -0.298 OA 
HETATM    5  N   UNL     1     -10.502  18.170  65.601  1.00  0.00    -0.624 NA 
HETATM    6  C   UNL     1     -10.384  19.130  66.573  1.00  0.00    -0.442 A  
HETATM    7  C   UNL     1     -10.535  18.580  67.826  1.00  0.00    -0.408 A  
HETATM    8  N   UNL     1     -10.785  17.245  67.615  1.00  0.00    -0.343 NA 
ENDROOT
BRANCH   8   9
HETATM    9  C   UNL     1     -10.933  16.250  68.662  1.00  0.00    -0.340 C  
BRANCH   9  10
HETATM   10  C   UNL     1      -9.741  15.319  68.737  1.00  0.00    -0.212 C  
HETATM   11  N   UNL     1      -9.940  14.067  68.208  1.00  0.00    -0.231 N  
HETATM   12  O   UNL     1      -8.676  15.682  69.233  1.00  0.00    -0.240 OA 
HETATM   13  H   UNL     1     -10.852  13.841  67.810  1.00  0.00     0.000 HD 
BRANCH  11  14
HETATM   14  C   UNL     1      -8.903  13.056  68.196  1.00  0.00    -0.194 C  
BRANCH  14  15
HETATM   15  C   UNL     1      -9.392  11.787  67.549  1.00  0.00    -0.174 A  
HETATM   16  C   UNL     1      -9.365  11.647  66.153  1.00  0.00    -0.237 A  
HETATM   17  C   UNL     1      -9.811  10.470  65.547  1.00  0.00    -0.324 A  
HETATM   18  C   UNL     1     -10.297   9.426  66.328  1.00  0.00    -0.211 A  
HETATM   19  C   UNL     1     -10.340   9.554  67.716  1.00  0.00    -0.291 A  
HETATM   20  C   UNL     1      -9.893  10.732  68.324  1.00  0.00    -0.177 A  
ENDBRANCH  14  15
ENDBRANCH  11  14
ENDBRANCH   9  10
ENDBRANCH   8   9
TORSDOF 4
ENDMDL
MODEL      147
REMARK 921   NORMALIZED FREE ENERGY PREDICTED BY IDOCK:   -4.31 KCAL/MOL
REMARK 922        TOTAL FREE ENERGY PREDICTED BY IDOCK:   -5.93 KCAL/MOL
REMARK 923 INTER-LIGAND FREE ENERGY PREDICTED BY IDOCK:   -6.15 KCAL/MOL
REMARK 924 INTRA-LIGAND FREE ENERGY PREDICTED BY IDOCK:    0.21 KCAL/MOL
REMARK 927      BINDING AFFINITY PREDICTED BY RF-SCORE:    0.00 PKD
ROOT
HETATM    1  O   UNL     1     -11.809   9.246  71.704  1.00  0.00    -0.336 OA 
HETATM    2  N   UNL     1     -12.854   9.894  71.874  1.00  0.00    -0.419 N  
HETATM    3  C   UNL     1     -12.811  11.282  71.523  1.00  0.00    -0.414 A  
HETATM    4  O   UNL     1     -13.935   9.437  72.259  1.00  0.00    -0.412 OA 
HETATM    5  N   UNL     1     -13.368  12.233  72.244  1.00  0.00    -0.431 NA 
HETATM    6  C   UNL     1     -13.135  13.385  71.537  1.00  0.00    -0.342 A  
HETATM    7  C   UNL     1     -12.446  13.118  70.375  1.00  0.00    -0.210 A  
HETATM    8  N   UNL     1     -12.221  11.761  70.385  1.00  0.00    -0.348 NA 
ENDROOT
BRANCH   8   9
HETATM    9  C   UNL     1     -11.591  11.014  69.311  1.00  0.00    -0.314 C  
BRANCH   9  10
HETATM   10  C   UNL     1     -10.713  11.892  68.444  1.00  0.00    -0.220 C  
HETATM   11  N   UNL     1     -10.564  11.471  67.144  1.00  0.00    -0.226 N  
HETATM   12  O   UNL     1     -10.185  12.909  68.891  1.00  0.00    -0.131 OA 
HETATM   13  H   UNL     1     -11.037  10.618  66.847  1.00  0.00     0.000 HD 
BRANCH  11  14
HETATM   14  C   UNL     1      -9.761  12.197  66.182  1.00  0.00    -0.240 C  
BRANCH  14  15
HETATM   15  C   UNL     1     -10.548  13.318  65.557  1.00  0.00    -0.295 A  
HETATM   16  C   UNL     1     -10.157  14.652  65.751  1.00  0.00    -0.364 A  
HETATM   17  C   UNL     1     -10.878  15.697  65.168  1.00  0.00    -0.448 A  
HETATM   18  C   UNL     1     -12.002  15.421  64.395  1.00  0.00    -0.235 A  
HETATM   19  C   UNL     1     -12.408  14.101  64.202  1.00  0.00    -0.372 A  
HETATM   20  C   UNL     1     -11.687  13.054  64.784  1.00  0.00    -0.389 A  
ENDBRANCH  14  15
ENDBRANCH  11  14
ENDBRANCH   9  10
ENDBRANCH   8   9
TORSDOF 4
ENDMDL
MODEL      148
REMARK 921   NORMALIZED FREE ENERGY PREDICTED BY IDOCK:   -4.29 KCAL/MOL
REMARK 922        TOTAL FREE ENERGY PREDICTED BY IDOCK:   -5.91 KCAL/MOL
REMARK 923 INTER-LIGAND FREE ENERGY PREDICTED BY IDOCK:   -6.25 KCAL/MOL
REMARK 924 INTRA-LIGAND FREE ENERGY PREDICTED BY IDOCK:    0.34 KCAL/MOL
REMARK 927      BINDING AFFINITY PREDICTED BY RF-SCORE:    0.00 PKD
ROOT
HETATM    1  O   UNL     1     -12.112   9.318  71.771  1.00  0.00    -0.346 OA 
HETATM    2  N   UNL     1     -13.176   9.954  71.847  1.00  0.00    -0.436 N  
HETATM    3  C   UNL     1     -13.076  11.380  71.770  1.00  0.00    -0.418 A  
HETATM    4  O   UNL     1     -14.307   9.464  71.923  1.00  0.00    -0.135 OA 
HETATM    5  N   UNL     1     -13.774  12.202  72.527  1.00  0.00    -0.010 NA 
HETATM    6  C   UNL     1     -13.416  13.455  72.101  1.00  0.00    -0.552 A  
HETATM    7  C   UNL     1     -12.508  13.381  71.069  1.00  0.00    -0.353 A  
HETATM    8  N   UNL     1     -12.277  12.039  70.876  1.00  0.00    -0.311 NA 
ENDROOT
BRANCH   8   9
HETATM    9  C   UNL     1     -11.440  11.480  69.829  1.00  0.00    -0.286 C  
BRANCH   9  10
HETATM   10  C   UNL     1     -11.735  12.092  68.476  1.00  0.00    -0.332 C  
HETATM   11  N   UNL     1     -11.723  13.466  68.438  1.00  0.00    -0.334 N  
HETATM   12  O   UNL     1     -11.959  11.390  67.492  1.00  0.00    -0.626 OA 
HETATM   13  H   UNL     1     -11.525  13.980  69.296  1.00  0.00     0.000 HD 
BRANCH  11  14
HETATM   14  C   UNL     1     -11.982  14.210  67.222  1.00  0.00    -0.414 C  
BRANCH  14  15
HETATM   15  C   UNL     1     -10.968  15.307  67.034  1.00  0.00    -0.324 A  
HETATM   16  C   UNL     1     -10.899  16.371  67.948  1.00  0.00    -0.328 A  
HETATM   17  C   UNL     1      -9.956  17.389  67.783  1.00  0.00    -0.301 A  
HETATM   18  C   UNL     1      -9.081  17.360  66.701  1.00  0.00    -0.277 A  
HETATM   19  C   UNL     1      -9.145  16.315  65.780  1.00  0.00    -0.110 A  
HETATM   20  C   UNL     1     -10.088  15.295  65.944  1.00  0.00    -0.359 A  
ENDBRANCH  14  15
ENDBRANCH  11  14
ENDBRANCH   9  10
ENDBRANCH   8   9
TORSDOF 4
ENDMDL
MODEL      149
REMARK 921   NORMALIZED FREE ENERGY PREDICTED BY IDOCK:   -4.27 KCAL/MOL
REMARK 922        TOTAL FREE ENERGY PREDICTED BY IDOCK:   -5.89 KCAL/MOL
REMARK 923 INTER-LIGAND FREE ENERGY PREDICTED BY IDOCK:   -5.09 KCAL/MOL
REMARK 924 INTRA-LIGAND FREE ENERGY PREDICTED BY IDOCK:   -0.80 KCAL/MOL
REMARK 927      BINDING AFFINITY PREDICTED BY RF-SCORE:    0.00 PKD
ROOT
HETATM    1  O   UNL     1     -10.822   8.193  67.016  1.00  0.00    -0.265 OA 
HETATM    2  N   UNL     1      -9.717   7.687  67.274  1.00  0.00    -0.157 N  
HETATM    3  C   UNL     1      -8.820   8.478  68.062  1.00  0.00    -0.142 A  
HETATM    4  O   UNL     1      -9.353   6.549  66.964  1.00  0.00    -0.131 OA 
HETATM    5  N   UNL     1      -7.527   8.566  67.826  1.00  0.00    -0.096 NA 
HETATM    6  C   UNL     1      -7.046   9.371  68.826  1.00  0.00    -0.069 A  
HETATM    7  C   UNL     1      -8.058   9.754  69.677  1.00  0.00    -0.154 A  
HETATM    8  N   UNL     1      -9.203   9.193  69.164  1.00  0.00    -0.143 NA 
ENDROOT
BRANCH   8   9
HETATM    9  C   UNL     1     -10.515   9.265  69.783  1.00  0.00    -0.222 C  
BRANCH   9  10
HETATM   10  C   UNL     1     -11.160  10.622  69.594  1.00  0.00    -0.284 C  
HETATM   11  N   UNL     1     -11.286  11.035  68.290  1.00  0.00    -0.253 N  
HETATM   12  O   UNL     1     -11.546  11.286  70.554  1.00  0.00    -0.298 OA 
HETATM   13  H   UNL     1     -10.945  10.425  67.546  1.00  0.00     0.000 HD 
BRANCH  11  14
HETATM   14  C   UNL     1     -11.884  12.305  67.933  1.00  0.00    -0.293 C  
BRANCH  14  15
HETATM   15  C   UNL     1     -11.743  12.574  66.458  1.00  0.00    -0.454 A  
HETATM   16  C   UNL     1     -12.449  13.629  65.859  1.00  0.00    -0.502 A  
HETATM   17  C   UNL     1     -12.317  13.888  64.493  1.00  0.00    -0.408 A  
HETATM   18  C   UNL     1     -11.487  13.091  63.710  1.00  0.00    -0.486 A  
HETATM   19  C   UNL     1     -10.787  12.033  64.289  1.00  0.00    -0.389 A  
HETATM   20  C   UNL     1     -10.918  11.773  65.657  1.00  0.00    -0.348 A  
ENDBRANCH  14  15
ENDBRANCH  11  14
ENDBRANCH   9  10
ENDBRANCH   8   9
TORSDOF 4
ENDMDL
MODEL      150
REMARK 921   NORMALIZED FREE ENERGY PREDICTED BY IDOCK:   -4.26 KCAL/MOL
REMARK 922        TOTAL FREE ENERGY PREDICTED BY IDOCK:   -5.88 KCAL/MOL
REMARK 923 INTER-LIGAND FREE ENERGY PREDICTED BY IDOCK:   -5.56 KCAL/MOL
REMARK 924 INTRA-LIGAND FREE ENERGY PREDICTED BY IDOCK:   -0.31 KCAL/MOL
REMARK 927      BINDING AFFINITY PREDICTED BY RF-SCORE:    0.00 PKD
ROOT
HETATM    1  O   UNL     1     -12.004   6.928  69.651  1.00  0.00    -0.035 OA 
HETATM    2  N   UNL     1     -12.250   6.988  70.867  1.00  0.00    -0.364 N  
HETATM    3  C   UNL     1     -11.185   7.432  71.714  1.00  0.00    -0.246 A  
HETATM    4  O   UNL     1     -13.342   6.758  71.396  1.00  0.00    -0.237 OA 
HETATM    5  N   UNL     1     -10.911   6.893  72.884  1.00  0.00    -0.267 NA 
HETATM    6  C   UNL     1      -9.868   7.636  73.373  1.00  0.00    -0.303 A  
HETATM    7  C   UNL     1      -9.526   8.640  72.495  1.00  0.00    -0.177 A  
HETATM    8  N   UNL     1     -10.365   8.487  71.417  1.00  0.00    -0.220 NA 
ENDROOT
BRANCH   8   9
HETATM    9  C   UNL     1     -10.420   9.378  70.271  1.00  0.00    -0.251 C  
BRANCH   9  10
HETATM   10  C   UNL     1     -11.692  10.198  70.246  1.00  0.00    -0.282 C  
HETATM   11  N   UNL     1     -12.027  10.799  71.436  1.00  0.00    -0.195 N  
HETATM   12  O   UNL     1     -12.360  10.312  69.220  1.00  0.00    -0.030 OA 
HETATM   13  H   UNL     1     -11.419  10.661  72.244  1.00  0.00     0.000 HD 
BRANCH  11  14
HETATM   14  C   UNL     1     -13.210  11.621  71.585  1.00  0.00    -0.272 C  
BRANCH  14  15
HETATM   15  C   UNL     1     -12.859  13.085  71.550  1.00  0.00    -0.386 A  
HETATM   16  C   UNL     1     -13.092  13.896  72.672  1.00  0.00    -0.525 A  
HETATM   17  C   UNL     1     -12.762  15.253  72.649  1.00  0.00    -0.474 A  
HETATM   18  C   UNL     1     -12.206  15.816  71.503  1.00  0.00    -0.513 A  
HETATM   19  C   UNL     1     -11.979  15.024  70.378  1.00  0.00    -0.372 A  
HETATM   20  C   UNL     1     -12.308  13.665  70.400  1.00  0.00    -0.415 A  
ENDBRANCH  14  15
ENDBRANCH  11  14
ENDBRANCH   9  10
ENDBRANCH   8   9
TORSDOF 4
ENDMDL
MODEL      151
REMARK 921   NORMALIZED FREE ENERGY PREDICTED BY IDOCK:   -4.26 KCAL/MOL
REMARK 922        TOTAL FREE ENERGY PREDICTED BY IDOCK:   -5.87 KCAL/MOL
REMARK 923 INTER-LIGAND FREE ENERGY PREDICTED BY IDOCK:   -5.22 KCAL/MOL
REMARK 924 INTRA-LIGAND FREE ENERGY PREDICTED BY IDOCK:   -0.65 KCAL/MOL
REMARK 927      BINDING AFFINITY PREDICTED BY RF-SCORE:    0.00 PKD
ROOT
HETATM    1  O   UNL     1     -12.348  15.803  69.106  1.00  0.00    -0.212 OA 
HETATM    2  N   UNL     1     -11.862  15.039  69.957  1.00  0.00    -0.298 N  
HETATM    3  C   UNL     1     -11.971  13.636  69.694  1.00  0.00    -0.343 A  
HETATM    4  O   UNL     1     -11.247  15.384  70.971  1.00  0.00    -0.333 OA 
HETATM    5  N   UNL     1     -12.267  12.743  70.616  1.00  0.00    -0.357 NA 
HETATM    6  C   UNL     1     -12.221  11.539  69.960  1.00  0.00    -0.278 A  
HETATM    7  C   UNL     1     -11.879  11.713  68.638  1.00  0.00    -0.308 A  
HETATM    8  N   UNL     1     -11.742  13.071  68.469  1.00  0.00    -0.322 NA 
ENDROOT
BRANCH   8   9
HETATM    9  C   UNL     1     -11.308  13.718  67.244  1.00  0.00    -0.321 C  
BRANCH   9  10
HETATM   10  C   UNL     1      -9.810  13.942  67.216  1.00  0.00    -0.244 C  
HETATM   11  N   UNL     1      -9.388  15.142  67.737  1.00  0.00    -0.188 N  
HETATM   12  O   UNL     1      -9.044  13.095  66.762  1.00  0.00    -0.234 OA 
HETATM   13  H   UNL     1     -10.084  15.793  68.099  1.00  0.00     0.000 HD 
BRANCH  11  14
HETATM   14  C   UNL     1      -7.989  15.514  67.791  1.00  0.00    -0.143 C  
BRANCH  14  15
HETATM   15  C   UNL     1      -7.832  17.002  67.964  1.00  0.00    -0.182 A  
HETATM   16  C   UNL     1      -6.594  17.616  67.717  1.00  0.00    -0.189 A  
HETATM   17  C   UNL     1      -6.443  18.997  67.868  1.00  0.00    -0.237 A  
HETATM   18  C   UNL     1      -7.522  19.775  68.276  1.00  0.00    -0.346 A  
HETATM   19  C   UNL     1      -8.755  19.177  68.534  1.00  0.00    -0.401 A  
HETATM   20  C   UNL     1      -8.908  17.795  68.383  1.00  0.00    -0.285 A  
ENDBRANCH  14  15
ENDBRANCH  11  14
ENDBRANCH   9  10
ENDBRANCH   8   9
TORSDOF 4
ENDMDL
MODEL      152
REMARK 921   NORMALIZED FREE ENERGY PREDICTED BY IDOCK:   -4.24 KCAL/MOL
REMARK 922        TOTAL FREE ENERGY PREDICTED BY IDOCK:   -5.85 KCAL/MOL
REMARK 923 INTER-LIGAND FREE ENERGY PREDICTED BY IDOCK:   -5.22 KCAL/MOL
REMARK 924 INTRA-LIGAND FREE ENERGY PREDICTED BY IDOCK:   -0.64 KCAL/MOL
REMARK 927      BINDING AFFINITY PREDICTED BY RF-SCORE:    0.00 PKD
ROOT
HETATM    1  O   UNL     1      -8.786  15.420  65.592  1.00  0.00     0.060 OA 
HETATM    2  N   UNL     1      -8.838  16.490  66.221  1.00  0.00    -0.310 N  
HETATM    3  C   UNL     1      -9.277  16.412  67.581  1.00  0.00    -0.199 A  
HETATM    4  O   UNL     1      -8.491  17.596  65.796  1.00  0.00    -0.525 OA 
HETATM    5  N   UNL     1     -10.096  17.283  68.134  1.00  0.00    -0.306 NA 
HETATM    6  C   UNL     1     -10.214  16.870  69.437  1.00  0.00    -0.208 A  
HETATM    7  C   UNL     1      -9.446  15.751  69.668  1.00  0.00    -0.204 A  
HETATM    8  N   UNL     1      -8.862  15.449  68.461  1.00  0.00    -0.175 NA 
ENDROOT
BRANCH   8   9
HETATM    9  C   UNL     1      -7.899  14.383  68.245  1.00  0.00    -0.138 C  
BRANCH   9  10
HETATM   10  C   UNL     1      -8.565  13.086  67.838  1.00  0.00    -0.189 C  
HETATM   11  N   UNL     1      -8.379  12.717  66.527  1.00  0.00    -0.408 N  
HETATM   12  O   UNL     1      -9.216  12.421  68.642  1.00  0.00    -0.119 OA 
HETATM   13  H   UNL     1      -7.823  13.320  65.921  1.00  0.00     0.000 HD 
BRANCH  11  14
HETATM   14  C   UNL     1      -8.944  11.503  65.976  1.00  0.00    -0.176 C  
BRANCH  14  15
HETATM   15  C   UNL     1     -10.194  11.797  65.190  1.00  0.00    -0.309 A  
HETATM   16  C   UNL     1     -10.335  11.319  63.877  1.00  0.00    -0.439 A  
HETATM   17  C   UNL     1     -11.495  11.582  63.145  1.00  0.00    -0.039 A  
HETATM   18  C   UNL     1     -12.521  12.333  63.711  1.00  0.00    -0.619 A  
HETATM   19  C   UNL     1     -12.391  12.822  65.010  1.00  0.00    -0.559 A  
HETATM   20  C   UNL     1     -11.231  12.559  65.745  1.00  0.00    -0.356 A  
ENDBRANCH  14  15
ENDBRANCH  11  14
ENDBRANCH   9  10
ENDBRANCH   8   9
TORSDOF 4
ENDMDL
MODEL      153
REMARK 921   NORMALIZED FREE ENERGY PREDICTED BY IDOCK:   -4.24 KCAL/MOL
REMARK 922        TOTAL FREE ENERGY PREDICTED BY IDOCK:   -5.85 KCAL/MOL
REMARK 923 INTER-LIGAND FREE ENERGY PREDICTED BY IDOCK:   -5.37 KCAL/MOL
REMARK 924 INTRA-LIGAND FREE ENERGY PREDICTED BY IDOCK:   -0.47 KCAL/MOL
REMARK 927      BINDING AFFINITY PREDICTED BY RF-SCORE:    0.00 PKD
ROOT
HETATM    1  O   UNL     1      -8.724   8.705  66.206  1.00  0.00    -0.128 OA 
HETATM    2  N   UNL     1      -8.361   9.520  65.341  1.00  0.00    -0.132 N  
HETATM    3  C   UNL     1      -9.387  10.328  64.754  1.00  0.00    -0.260 A  
HETATM    4  O   UNL     1      -7.196   9.734  64.992  1.00  0.00    -0.114 OA 
HETATM    5  N   UNL     1      -9.443  10.614  63.469  1.00  0.00    -0.279 NA 
HETATM    6  C   UNL     1     -10.533  11.436  63.344  1.00  0.00    -0.390 A  
HETATM    7  C   UNL     1     -11.125  11.657  64.567  1.00  0.00    -0.301 A  
HETATM    8  N   UNL     1     -10.392  10.920  65.468  1.00  0.00    -0.263 NA 
ENDROOT
BRANCH   8   9
HETATM    9  C   UNL     1     -10.606  10.912  66.905  1.00  0.00    -0.261 C  
BRANCH   9  10
HETATM   10  C   UNL     1     -10.049  12.152  67.572  1.00  0.00    -0.196 C  
HETATM   11  N   UNL     1     -10.948  13.178  67.745  1.00  0.00    -0.245 N  
HETATM   12  O   UNL     1      -8.875  12.213  67.932  1.00  0.00    -0.161 OA 
HETATM   13  H   UNL     1     -11.907  13.050  67.423  1.00  0.00     0.000 HD 
BRANCH  11  14
HETATM   14  C   UNL     1     -10.581  14.432  68.369  1.00  0.00    -0.247 C  
BRANCH  14  15
HETATM   15  C   UNL     1     -11.318  14.626  69.668  1.00  0.00    -0.317 A  
HETATM   16  C   UNL     1     -10.912  15.621  70.571  1.00  0.00    -0.371 A  
HETATM   17  C   UNL     1     -11.597  15.811  71.774  1.00  0.00    -0.541 A  
HETATM   18  C   UNL     1     -12.685  15.003  72.092  1.00  0.00    -0.406 A  
HETATM   19  C   UNL     1     -13.093  14.004  71.209  1.00  0.00    -0.399 A  
HETATM   20  C   UNL     1     -12.410  13.813  70.003  1.00  0.00    -0.364 A  
ENDBRANCH  14  15
ENDBRANCH  11  14
ENDBRANCH   9  10
ENDBRANCH   8   9
TORSDOF 4
ENDMDL
MODEL      154
REMARK 921   NORMALIZED FREE ENERGY PREDICTED BY IDOCK:   -4.22 KCAL/MOL
REMARK 922        TOTAL FREE ENERGY PREDICTED BY IDOCK:   -5.83 KCAL/MOL
REMARK 923 INTER-LIGAND FREE ENERGY PREDICTED BY IDOCK:   -5.22 KCAL/MOL
REMARK 924 INTRA-LIGAND FREE ENERGY PREDICTED BY IDOCK:   -0.61 KCAL/MOL
REMARK 927      BINDING AFFINITY PREDICTED BY RF-SCORE:    0.00 PKD
ROOT
HETATM    1  O   UNL     1     -11.606   6.230  69.550  1.00  0.00    -0.423 OA 
HETATM    2  N   UNL     1     -11.938   6.607  70.686  1.00  0.00    -0.392 N  
HETATM    3  C   UNL     1     -10.934   6.530  71.704  1.00  0.00    -0.249 A  
HETATM    4  O   UNL     1     -13.029   7.094  70.997  1.00  0.00    -0.325 OA 
HETATM    5  N   UNL     1     -11.172   6.123  72.934  1.00  0.00    -0.244 NA 
HETATM    6  C   UNL     1      -9.969   6.249  73.580  1.00  0.00    -0.193 A  
HETATM    7  C   UNL     1      -9.007   6.750  72.733  1.00  0.00    -0.127 A  
HETATM    8  N   UNL     1      -9.632   6.908  71.518  1.00  0.00    -0.163 NA 
ENDROOT
BRANCH   8   9
HETATM    9  C   UNL     1      -9.019   7.490  70.337  1.00  0.00    -0.152 C  
BRANCH   9  10
HETATM   10  C   UNL     1      -9.243   8.985  70.256  1.00  0.00    -0.202 C  
HETATM   11  N   UNL     1     -10.399   9.371  69.620  1.00  0.00    -0.205 N  
HETATM   12  O   UNL     1      -8.439   9.780  70.738  1.00  0.00    -0.207 OA 
HETATM   13  H   UNL     1     -11.019   8.652  69.248  1.00  0.00     0.000 HD 
BRANCH  11  14
HETATM   14  C   UNL     1     -10.767  10.763  69.458  1.00  0.00    -0.226 C  
BRANCH  14  15
HETATM   15  C   UNL     1     -10.850  11.135  68.002  1.00  0.00    -0.274 A  
HETATM   16  C   UNL     1     -11.629  12.229  67.593  1.00  0.00    -0.421 A  
HETATM   17  C   UNL     1     -11.704  12.584  66.244  1.00  0.00    -0.462 A  
HETATM   18  C   UNL     1     -11.010  11.845  65.290  1.00  0.00    -0.354 A  
HETATM   19  C   UNL     1     -10.241  10.750  65.680  1.00  0.00    -0.320 A  
HETATM   20  C   UNL     1     -10.163  10.394  67.030  1.00  0.00    -0.277 A  
ENDBRANCH  14  15
ENDBRANCH  11  14
ENDBRANCH   9  10
ENDBRANCH   8   9
TORSDOF 4
ENDMDL
MODEL      155
REMARK 921   NORMALIZED FREE ENERGY PREDICTED BY IDOCK:   -4.20 KCAL/MOL
REMARK 922        TOTAL FREE ENERGY PREDICTED BY IDOCK:   -5.80 KCAL/MOL
REMARK 923 INTER-LIGAND FREE ENERGY PREDICTED BY IDOCK:   -5.43 KCAL/MOL
REMARK 924 INTRA-LIGAND FREE ENERGY PREDICTED BY IDOCK:   -0.37 KCAL/MOL
REMARK 927      BINDING AFFINITY PREDICTED BY RF-SCORE:    0.00 PKD
ROOT
HETATM    1  O   UNL     1      -8.635   4.549  67.558  1.00  0.00    -0.103 OA 
HETATM    2  N   UNL     1      -9.256   4.054  68.513  1.00  0.00    -0.138 N  
HETATM    3  C   UNL     1     -10.014   4.961  69.322  1.00  0.00    -0.199 A  
HETATM    4  O   UNL     1      -9.323   2.852  68.788  1.00  0.00    -0.162 OA 
HETATM    5  N   UNL     1     -10.068   4.894  70.636  1.00  0.00    -0.238 NA 
HETATM    6  C   UNL     1     -10.927   5.899  70.999  1.00  0.00    -0.266 A  
HETATM    7  C   UNL     1     -11.403   6.562  69.890  1.00  0.00    -0.406 A  
HETATM    8  N   UNL     1     -10.791   5.965  68.814  1.00  0.00    -0.296 NA 
ENDROOT
BRANCH   8   9
HETATM    9  C   UNL     1     -11.054   6.288  67.422  1.00  0.00    -0.287 C  
BRANCH   9  10
HETATM   10  C   UNL     1     -10.390   7.583  67.002  1.00  0.00    -0.324 C  
HETATM   11  N   UNL     1     -11.033   8.729  67.404  1.00  0.00    -0.418 N  
HETATM   12  O   UNL     1      -9.346   7.585  66.353  1.00  0.00    -0.174 OA 
HETATM   13  H   UNL     1     -11.895   8.646  67.944  1.00  0.00     0.000 HD 
BRANCH  11  14
HETATM   14  C   UNL     1     -10.531  10.051  67.089  1.00  0.00    -0.244 C  
BRANCH  14  15
HETATM   15  C   UNL     1     -11.117  11.086  68.012  1.00  0.00    -0.343 A  
HETATM   16  C   UNL     1     -11.473  10.743  69.326  1.00  0.00    -0.369 A  
HETATM   17  C   UNL     1     -12.012  11.701  70.189  1.00  0.00    -0.441 A  
HETATM   18  C   UNL     1     -12.209  13.006  69.747  1.00  0.00    -0.242 A  
HETATM   19  C   UNL     1     -11.870  13.358  68.441  1.00  0.00    -0.401 A  
HETATM   20  C   UNL     1     -11.330  12.401  67.575  1.00  0.00    -0.375 A  
ENDBRANCH  14  15
ENDBRANCH  11  14
ENDBRANCH   9  10
ENDBRANCH   8   9
TORSDOF 4
ENDMDL
MODEL      156
REMARK 921   NORMALIZED FREE ENERGY PREDICTED BY IDOCK:   -4.18 KCAL/MOL
REMARK 922        TOTAL FREE ENERGY PREDICTED BY IDOCK:   -5.78 KCAL/MOL
REMARK 923 INTER-LIGAND FREE ENERGY PREDICTED BY IDOCK:   -5.23 KCAL/MOL
REMARK 924 INTRA-LIGAND FREE ENERGY PREDICTED BY IDOCK:   -0.55 KCAL/MOL
REMARK 927      BINDING AFFINITY PREDICTED BY RF-SCORE:    0.00 PKD
ROOT
HETATM    1  O   UNL     1     -10.858  15.525  65.623  1.00  0.00    -0.334 OA 
HETATM    2  N   UNL     1     -11.015  16.579  64.984  1.00  0.00    -0.308 N  
HETATM    3  C   UNL     1     -10.413  17.756  65.533  1.00  0.00    -0.017 A  
HETATM    4  O   UNL     1     -11.589  16.686  63.896  1.00  0.00    -1.204 OA 
HETATM    5  N   UNL     1     -11.001  18.935  65.551  1.00  0.00    -0.364 NA 
HETATM    6  C   UNL     1     -10.074  19.776  66.111  1.00  0.00    -0.499 A  
HETATM    7  C   UNL     1      -8.916  19.098  66.416  1.00  0.00    -0.342 A  
HETATM    8  N   UNL     1      -9.151  17.790  66.061  1.00  0.00    -0.520 NA 
ENDROOT
BRANCH   8   9
HETATM    9  C   UNL     1      -8.172  16.720  66.131  1.00  0.00    -0.264 C  
BRANCH   9  10
HETATM   10  C   UNL     1      -8.247  15.962  67.440  1.00  0.00    -0.168 C  
HETATM   11  N   UNL     1      -8.653  14.653  67.337  1.00  0.00    -0.186 N  
HETATM   12  O   UNL     1      -7.953  16.498  68.507  1.00  0.00    -0.193 OA 
HETATM   13  H   UNL     1      -8.876  14.279  66.415  1.00  0.00     0.000 HD 
BRANCH  11  14
HETATM   14  C   UNL     1      -8.775  13.786  68.491  1.00  0.00    -0.118 C  
BRANCH  14  15
HETATM   15  C   UNL     1      -8.353  12.380  68.158  1.00  0.00    -0.178 A  
HETATM   16  C   UNL     1      -9.316  11.403  67.861  1.00  0.00    -0.164 A  
HETATM   17  C   UNL     1      -8.930  10.098  67.544  1.00  0.00    -0.136 A  
HETATM   18  C   UNL     1      -7.582   9.754  67.531  1.00  0.00    -0.091 A  
HETATM   19  C   UNL     1      -6.615  10.711  67.833  1.00  0.00    -0.060 A  
HETATM   20  C   UNL     1      -6.999  12.018  68.150  1.00  0.00    -0.079 A  
ENDBRANCH  14  15
ENDBRANCH  11  14
ENDBRANCH   9  10
ENDBRANCH   8   9
TORSDOF 4
ENDMDL
MODEL      157
REMARK 921   NORMALIZED FREE ENERGY PREDICTED BY IDOCK:   -4.17 KCAL/MOL
REMARK 922        TOTAL FREE ENERGY PREDICTED BY IDOCK:   -5.76 KCAL/MOL
REMARK 923 INTER-LIGAND FREE ENERGY PREDICTED BY IDOCK:   -5.59 KCAL/MOL
REMARK 924 INTRA-LIGAND FREE ENERGY PREDICTED BY IDOCK:   -0.17 KCAL/MOL
REMARK 927      BINDING AFFINITY PREDICTED BY RF-SCORE:    0.00 PKD
ROOT
HETATM    1  O   UNL     1      -9.730  18.215  65.727  1.00  0.00    -0.503 OA 
HETATM    2  N   UNL     1      -8.840  18.966  66.158  1.00  0.00    -0.235 N  
HETATM    3  C   UNL     1      -8.155  18.534  67.339  1.00  0.00    -0.240 A  
HETATM    4  O   UNL     1      -8.457  20.013  65.627  1.00  0.00    -0.257 OA 
HETATM    5  N   UNL     1      -7.829  19.341  68.328  1.00  0.00    -0.306 NA 
HETATM    6  C   UNL     1      -7.158  18.543  69.219  1.00  0.00    -0.148 A  
HETATM    7  C   UNL     1      -7.068  17.251  68.751  1.00  0.00    -0.238 A  
HETATM    8  N   UNL     1      -7.734  17.249  67.548  1.00  0.00    -0.174 NA 
ENDROOT
BRANCH   8   9
HETATM    9  C   UNL     1      -7.828  16.111  66.651  1.00  0.00    -0.253 C  
BRANCH   9  10
HETATM   10  C   UNL     1      -9.195  15.460  66.697  1.00  0.00    -0.275 C  
HETATM   11  N   UNL     1      -9.547  14.756  65.571  1.00  0.00    -0.498 N  
HETATM   12  O   UNL     1      -9.919  15.561  67.686  1.00  0.00    -0.230 OA 
HETATM   13  H   UNL     1      -8.890  14.715  64.791  1.00  0.00     0.000 HD 
BRANCH  11  14
HETATM   14  C   UNL     1     -10.817  14.070  65.451  1.00  0.00    -0.328 C  
BRANCH  14  15
HETATM   15  C   UNL     1     -10.807  12.775  66.220  1.00  0.00    -0.299 A  
HETATM   16  C   UNL     1     -11.750  12.548  67.236  1.00  0.00    -0.431 A  
HETATM   17  C   UNL     1     -11.750  11.346  67.948  1.00  0.00    -0.300 A  
HETATM   18  C   UNL     1     -10.805  10.366  67.662  1.00  0.00    -0.361 A  
HETATM   19  C   UNL     1      -9.857  10.582  66.663  1.00  0.00    -0.246 A  
HETATM   20  C   UNL     1      -9.855  11.784  65.947  1.00  0.00    -0.265 A  
ENDBRANCH  14  15
ENDBRANCH  11  14
ENDBRANCH   9  10
ENDBRANCH   8   9
TORSDOF 4
ENDMDL
MODEL      158
REMARK 921   NORMALIZED FREE ENERGY PREDICTED BY IDOCK:   -4.17 KCAL/MOL
REMARK 922        TOTAL FREE ENERGY PREDICTED BY IDOCK:   -5.76 KCAL/MOL
REMARK 923 INTER-LIGAND FREE ENERGY PREDICTED BY IDOCK:   -5.15 KCAL/MOL
REMARK 924 INTRA-LIGAND FREE ENERGY PREDICTED BY IDOCK:   -0.61 KCAL/MOL
REMARK 927      BINDING AFFINITY PREDICTED BY RF-SCORE:    0.00 PKD
ROOT
HETATM    1  O   UNL     1      -9.848  15.943  68.571  1.00  0.00    -0.203 OA 
HETATM    2  N   UNL     1     -10.334  16.638  67.663  1.00  0.00    -0.297 N  
HETATM    3  C   UNL     1     -10.778  15.943  66.493  1.00  0.00    -0.258 A  
HETATM    4  O   UNL     1     -10.520  17.858  67.706  1.00  0.00    -0.371 OA 
HETATM    5  N   UNL     1     -10.582  16.381  65.266  1.00  0.00    -0.609 NA 
HETATM    6  C   UNL     1     -11.198  15.454  64.465  1.00  0.00    -0.299 A  
HETATM    7  C   UNL     1     -11.781  14.461  65.220  1.00  0.00    -0.364 A  
HETATM    8  N   UNL     1     -11.486  14.772  66.526  1.00  0.00    -0.349 NA 
ENDROOT
BRANCH   8   9
HETATM    9  C   UNL     1     -11.967  14.040  67.685  1.00  0.00    -0.368 C  
BRANCH   9  10
HETATM   10  C   UNL     1     -11.378  12.648  67.766  1.00  0.00    -0.297 C  
HETATM   11  N   UNL     1     -10.005  12.592  67.781  1.00  0.00    -0.212 N  
HETATM   12  O   UNL     1     -12.096  11.651  67.821  1.00  0.00    -0.613 OA 
HETATM   13  H   UNL     1      -9.477  13.464  67.736  1.00  0.00     0.000 HD 
BRANCH  11  14
HETATM   14  C   UNL     1      -9.280  11.340  67.859  1.00  0.00    -0.157 C  
BRANCH  14  15
HETATM   15  C   UNL     1      -7.988  11.510  68.613  1.00  0.00    -0.135 A  
HETATM   16  C   UNL     1      -7.511  10.481  69.441  1.00  0.00    -0.141 A  
HETATM   17  C   UNL     1      -6.309  10.629  70.138  1.00  0.00    -0.139 A  
HETATM   18  C   UNL     1      -5.578  11.808  70.024  1.00  0.00    -0.121 A  
HETATM   19  C   UNL     1      -6.046  12.842  69.214  1.00  0.00    -0.099 A  
HETATM   20  C   UNL     1      -7.248  12.696  68.515  1.00  0.00    -0.113 A  
ENDBRANCH  14  15
ENDBRANCH  11  14
ENDBRANCH   9  10
ENDBRANCH   8   9
TORSDOF 4
ENDMDL
MODEL      159
REMARK 921   NORMALIZED FREE ENERGY PREDICTED BY IDOCK:   -4.15 KCAL/MOL
REMARK 922        TOTAL FREE ENERGY PREDICTED BY IDOCK:   -5.74 KCAL/MOL
REMARK 923 INTER-LIGAND FREE ENERGY PREDICTED BY IDOCK:   -5.17 KCAL/MOL
REMARK 924 INTRA-LIGAND FREE ENERGY PREDICTED BY IDOCK:   -0.57 KCAL/MOL
REMARK 927      BINDING AFFINITY PREDICTED BY RF-SCORE:    0.00 PKD
ROOT
HETATM    1  O   UNL     1      -8.508   4.921  72.677  1.00  0.00    -0.117 OA 
HETATM    2  N   UNL     1      -7.914   6.010  72.614  1.00  0.00    -0.104 N  
HETATM    3  C   UNL     1      -8.145   6.799  71.442  1.00  0.00    -0.110 A  
HETATM    4  O   UNL     1      -7.194   6.493  73.493  1.00  0.00    -0.081 OA 
HETATM    5  N   UNL     1      -7.198   7.460  70.809  1.00  0.00    -0.067 NA 
HETATM    6  C   UNL     1      -7.848   8.108  69.790  1.00  0.00    -0.105 A  
HETATM    7  C   UNL     1      -9.199   7.845  69.824  1.00  0.00    -0.150 A  
HETATM    8  N   UNL     1      -9.379   6.982  70.879  1.00  0.00    -0.157 NA 
ENDROOT
BRANCH   8   9
HETATM    9  C   UNL     1     -10.665   6.493  71.344  1.00  0.00    -0.238 C  
BRANCH   9  10
HETATM   10  C   UNL     1     -11.453   7.563  72.071  1.00  0.00    -0.279 C  
HETATM   11  N   UNL     1     -12.408   8.202  71.316  1.00  0.00    -0.380 N  
HETATM   12  O   UNL     1     -11.243   7.820  73.254  1.00  0.00    -0.350 OA 
HETATM   13  H   UNL     1     -12.526   7.931  70.340  1.00  0.00     0.000 HD 
BRANCH  11  14
HETATM   14  C   UNL     1     -13.252   9.248  71.858  1.00  0.00    -0.423 C  
BRANCH  14  15
HETATM   15  C   UNL     1     -12.856  10.596  71.317  1.00  0.00    -0.535 A  
HETATM   16  C   UNL     1     -12.092  10.692  70.144  1.00  0.00    -0.414 A  
HETATM   17  C   UNL     1     -11.727  11.940  69.633  1.00  0.00    -0.413 A  
HETATM   18  C   UNL     1     -12.113  13.103  70.293  1.00  0.00    -0.399 A  
HETATM   19  C   UNL     1     -12.864  13.023  71.465  1.00  0.00    -0.386 A  
HETATM   20  C   UNL     1     -13.230  11.774  71.978  1.00  0.00    -0.460 A  
ENDBRANCH  14  15
ENDBRANCH  11  14
ENDBRANCH   9  10
ENDBRANCH   8   9
TORSDOF 4
ENDMDL
MODEL      160
REMARK 921   NORMALIZED FREE ENERGY PREDICTED BY IDOCK:   -4.15 KCAL/MOL
REMARK 922        TOTAL FREE ENERGY PREDICTED BY IDOCK:   -5.74 KCAL/MOL
REMARK 923 INTER-LIGAND FREE ENERGY PREDICTED BY IDOCK:   -5.73 KCAL/MOL
REMARK 924 INTRA-LIGAND FREE ENERGY PREDICTED BY IDOCK:   -0.01 KCAL/MOL
REMARK 927      BINDING AFFINITY PREDICTED BY RF-SCORE:    0.00 PKD
ROOT
HETATM    1  O   UNL     1     -11.818  14.465  69.392  1.00  0.00    -0.287 OA 
HETATM    2  N   UNL     1     -11.940  14.009  70.541  1.00  0.00    -0.325 N  
HETATM    3  C   UNL     1     -12.219  12.609  70.647  1.00  0.00    -0.285 A  
HETATM    4  O   UNL     1     -11.784  14.641  71.590  1.00  0.00    -0.326 OA 
HETATM    5  N   UNL     1     -13.080  12.100  71.505  1.00  0.00    -0.344 NA 
HETATM    6  C   UNL     1     -13.006  10.745  71.309  1.00  0.00    -0.402 A  
HETATM    7  C   UNL     1     -12.081  10.440  70.336  1.00  0.00    -0.315 A  
HETATM    8  N   UNL     1     -11.595  11.649  69.898  1.00  0.00    -0.302 NA 
ENDROOT
BRANCH   8   9
HETATM    9  C   UNL     1     -10.532  11.814  68.922  1.00  0.00    -0.154 C  
BRANCH   9  10
HETATM   10  C   UNL     1     -11.011  12.517  67.670  1.00  0.00    -0.242 C  
HETATM   11  N   UNL     1     -10.184  13.510  67.201  1.00  0.00    -0.245 N  
HETATM   12  O   UNL     1     -12.066  12.201  67.122  1.00  0.00    -0.575 OA 
HETATM   13  H   UNL     1      -9.323  13.712  67.708  1.00  0.00     0.000 HD 
BRANCH  11  14
HETATM   14  C   UNL     1     -10.492  14.278  66.012  1.00  0.00    -0.301 C  
BRANCH  14  15
HETATM   15  C   UNL     1      -9.924  15.669  66.105  1.00  0.00    -0.335 A  
HETATM   16  C   UNL     1     -10.776  16.785  66.093  1.00  0.00    -0.116 A  
HETATM   17  C   UNL     1     -10.256  18.078  66.187  1.00  0.00    -0.364 A  
HETATM   18  C   UNL     1      -8.881  18.270  66.283  1.00  0.00    -0.197 A  
HETATM   19  C   UNL     1      -8.022  17.172  66.286  1.00  0.00    -0.339 A  
HETATM   20  C   UNL     1      -8.540  15.877  66.193  1.00  0.00    -0.276 A  
ENDBRANCH  14  15
ENDBRANCH  11  14
ENDBRANCH   9  10
ENDBRANCH   8   9
TORSDOF 4
ENDMDL
MODEL      161
REMARK 921   NORMALIZED FREE ENERGY PREDICTED BY IDOCK:   -4.11 KCAL/MOL
REMARK 922        TOTAL FREE ENERGY PREDICTED BY IDOCK:   -5.69 KCAL/MOL
REMARK 923 INTER-LIGAND FREE ENERGY PREDICTED BY IDOCK:   -4.92 KCAL/MOL
REMARK 924 INTRA-LIGAND FREE ENERGY PREDICTED BY IDOCK:   -0.77 KCAL/MOL
REMARK 927      BINDING AFFINITY PREDICTED BY RF-SCORE:    0.00 PKD
ROOT
HETATM    1  O   UNL     1     -13.139  13.523  66.376  1.00  0.00     0.053 OA 
HETATM    2  N   UNL     1     -12.253  12.677  66.585  1.00  0.00    -0.174 N  
HETATM    3  C   UNL     1     -11.349  12.417  65.506  1.00  0.00    -0.346 A  
HETATM    4  O   UNL     1     -12.050  12.091  67.653  1.00  0.00    -0.547 OA 
HETATM    5  N   UNL     1     -10.930  11.211  65.180  1.00  0.00    -0.150 NA 
HETATM    6  C   UNL     1     -10.057  11.415  64.143  1.00  0.00    -0.309 A  
HETATM    7  C   UNL     1      -9.942  12.757  63.855  1.00  0.00     0.016 A  
HETATM    8  N   UNL     1     -10.796  13.394  64.724  1.00  0.00    -0.352 NA 
ENDROOT
BRANCH   8   9
HETATM    9  C   UNL     1     -10.945  14.834  64.837  1.00  0.00    -0.412 C  
BRANCH   9  10
HETATM   10  C   UNL     1     -10.250  15.385  66.066  1.00  0.00    -0.324 C  
HETATM   11  N   UNL     1     -11.084  15.903  67.028  1.00  0.00    -0.194 N  
HETATM   12  O   UNL     1      -9.026  15.353  66.177  1.00  0.00    -0.312 OA 
HETATM   13  H   UNL     1     -12.091  15.890  66.864  1.00  0.00     0.000 HD 
BRANCH  11  14
HETATM   14  C   UNL     1     -10.584  16.466  68.265  1.00  0.00    -0.318 C  
BRANCH  14  15
HETATM   15  C   UNL     1     -11.370  15.959  69.446  1.00  0.00    -0.349 A  
HETATM   16  C   UNL     1     -10.950  16.250  70.753  1.00  0.00    -0.105 A  
HETATM   17  C   UNL     1     -11.678  15.788  71.853  1.00  0.00    -0.572 A  
HETATM   18  C   UNL     1     -12.825  15.025  71.658  1.00  0.00    -0.420 A  
HETATM   19  C   UNL     1     -13.248  14.720  70.365  1.00  0.00    -0.089 A  
HETATM   20  C   UNL     1     -12.521  15.181  69.263  1.00  0.00    -0.014 A  
ENDBRANCH  14  15
ENDBRANCH  11  14
ENDBRANCH   9  10
ENDBRANCH   8   9
TORSDOF 4
ENDMDL
MODEL      162
REMARK 921   NORMALIZED FREE ENERGY PREDICTED BY IDOCK:   -4.10 KCAL/MOL
REMARK 922        TOTAL FREE ENERGY PREDICTED BY IDOCK:   -5.68 KCAL/MOL
REMARK 923 INTER-LIGAND FREE ENERGY PREDICTED BY IDOCK:   -5.08 KCAL/MOL
REMARK 924 INTRA-LIGAND FREE ENERGY PREDICTED BY IDOCK:   -0.59 KCAL/MOL
REMARK 927      BINDING AFFINITY PREDICTED BY RF-SCORE:    0.00 PKD
ROOT
HETATM    1  O   UNL     1      -8.881  10.073  69.689  1.00  0.00    -0.194 OA 
HETATM    2  N   UNL     1      -8.282   9.166  70.291  1.00  0.00    -0.140 N  
HETATM    3  C   UNL     1      -8.868   8.718  71.518  1.00  0.00    -0.225 A  
HETATM    4  O   UNL     1      -7.268   8.583  69.898  1.00  0.00    -0.050 OA 
HETATM    5  N   UNL     1      -8.171   8.439  72.600  1.00  0.00    -0.303 NA 
HETATM    6  C   UNL     1      -9.101   8.007  73.511  1.00  0.00    -0.259 A  
HETATM    7  C   UNL     1     -10.364   8.014  72.963  1.00  0.00    -0.280 A  
HETATM    8  N   UNL     1     -10.208   8.495  71.685  1.00  0.00    -0.239 NA 
ENDROOT
BRANCH   8   9
HETATM    9  C   UNL     1     -11.271   8.602  70.701  1.00  0.00    -0.252 C  
BRANCH   9  10
HETATM   10  C   UNL     1     -11.928   9.966  70.716  1.00  0.00    -0.323 C  
HETATM   11  N   UNL     1     -11.595  10.789  69.667  1.00  0.00    -0.289 N  
HETATM   12  O   UNL     1     -12.708  10.291  71.609  1.00  0.00    -0.392 OA 
HETATM   13  H   UNL     1     -10.942  10.446  68.961  1.00  0.00     0.000 HD 
BRANCH  11  14
HETATM   14  C   UNL     1     -12.136  12.125  69.528  1.00  0.00    -0.201 C  
BRANCH  14  15
HETATM   15  C   UNL     1     -11.623  12.789  68.277  1.00  0.00    -0.375 A  
HETATM   16  C   UNL     1     -11.055  14.071  68.338  1.00  0.00    -0.275 A  
HETATM   17  C   UNL     1     -10.570  14.690  67.183  1.00  0.00    -0.282 A  
HETATM   18  C   UNL     1     -10.657  14.039  65.956  1.00  0.00    -0.297 A  
HETATM   19  C   UNL     1     -11.228  12.770  65.879  1.00  0.00    -0.334 A  
HETATM   20  C   UNL     1     -11.713  12.148  67.034  1.00  0.00    -0.373 A  
ENDBRANCH  14  15
ENDBRANCH  11  14
ENDBRANCH   9  10
ENDBRANCH   8   9
TORSDOF 4
ENDMDL
MODEL      163
REMARK 921   NORMALIZED FREE ENERGY PREDICTED BY IDOCK:   -4.10 KCAL/MOL
REMARK 922        TOTAL FREE ENERGY PREDICTED BY IDOCK:   -5.67 KCAL/MOL
REMARK 923 INTER-LIGAND FREE ENERGY PREDICTED BY IDOCK:   -5.36 KCAL/MOL
REMARK 924 INTRA-LIGAND FREE ENERGY PREDICTED BY IDOCK:   -0.31 KCAL/MOL
REMARK 927      BINDING AFFINITY PREDICTED BY RF-SCORE:    0.00 PKD
ROOT
HETATM    1  O   UNL     1     -10.726  17.962  67.136  1.00  0.00    -0.331 OA 
HETATM    2  N   UNL     1     -10.169  17.016  66.554  1.00  0.00    -0.313 N  
HETATM    3  C   UNL     1      -9.112  16.363  67.264  1.00  0.00    -0.200 A  
HETATM    4  O   UNL     1     -10.486  16.558  65.453  1.00  0.00    -0.543 OA 
HETATM    5  N   UNL     1      -7.987  15.974  66.699  1.00  0.00    -0.260 NA 
HETATM    6  C   UNL     1      -7.286  15.362  67.706  1.00  0.00    -0.161 A  
HETATM    7  C   UNL     1      -8.005  15.370  68.880  1.00  0.00    -0.177 A  
HETATM    8  N   UNL     1      -9.172  16.038  68.592  1.00  0.00    -0.206 NA 
ENDROOT
BRANCH   8   9
HETATM    9  C   UNL     1     -10.277  16.221  69.516  1.00  0.00    -0.251 C  
BRANCH   9  10
HETATM   10  C   UNL     1     -11.297  15.106  69.414  1.00  0.00    -0.294 C  
HETATM   11  N   UNL     1     -10.793  13.882  69.043  1.00  0.00    -0.296 N  
HETATM   12  O   UNL     1     -12.486  15.302  69.657  1.00  0.00    -0.244 OA 
HETATM   13  H   UNL     1      -9.793  13.797  68.862  1.00  0.00     0.000 HD 
BRANCH  11  14
HETATM   14  C   UNL     1     -11.631  12.709  68.902  1.00  0.00    -0.317 C  
BRANCH  14  15
HETATM   15  C   UNL     1     -11.039  11.738  67.915  1.00  0.00    -0.302 A  
HETATM   16  C   UNL     1     -10.309  12.206  66.811  1.00  0.00    -0.237 A  
HETATM   17  C   UNL     1      -9.751  11.309  65.896  1.00  0.00    -0.258 A  
HETATM   18  C   UNL     1      -9.924   9.939  66.068  1.00  0.00    -0.338 A  
HETATM   19  C   UNL     1     -10.656   9.461  67.155  1.00  0.00    -0.294 A  
HETATM   20  C   UNL     1     -11.214  10.356  68.072  1.00  0.00    -0.340 A  
ENDBRANCH  14  15
ENDBRANCH  11  14
ENDBRANCH   9  10
ENDBRANCH   8   9
TORSDOF 4
ENDMDL
MODEL      164
REMARK 921   NORMALIZED FREE ENERGY PREDICTED BY IDOCK:   -4.07 KCAL/MOL
REMARK 922        TOTAL FREE ENERGY PREDICTED BY IDOCK:   -5.63 KCAL/MOL
REMARK 923 INTER-LIGAND FREE ENERGY PREDICTED BY IDOCK:   -5.37 KCAL/MOL
REMARK 924 INTRA-LIGAND FREE ENERGY PREDICTED BY IDOCK:   -0.26 KCAL/MOL
REMARK 927      BINDING AFFINITY PREDICTED BY RF-SCORE:    0.00 PKD
ROOT
HETATM    1  O   UNL     1     -10.095  10.705  65.096  1.00  0.00    -0.275 OA 
HETATM    2  N   UNL     1     -10.306  11.403  64.091  1.00  0.00    -0.313 N  
HETATM    3  C   UNL     1     -10.968  12.653  64.308  1.00  0.00    -0.366 A  
HETATM    4  O   UNL     1      -9.946  11.140  62.939  1.00  0.00    -0.300 OA 
HETATM    5  N   UNL     1     -11.912  13.125  63.518  1.00  0.00    -0.529 NA 
HETATM    6  C   UNL     1     -12.232  14.347  64.052  1.00  0.00    -0.265 A  
HETATM    7  C   UNL     1     -11.461  14.615  65.162  1.00  0.00    -0.375 A  
HETATM    8  N   UNL     1     -10.665  13.508  65.333  1.00  0.00    -0.295 NA 
ENDROOT
BRANCH   8   9
HETATM    9  C   UNL     1      -9.628  13.376  66.341  1.00  0.00    -0.257 C  
BRANCH   9  10
HETATM   10  C   UNL     1      -9.703  14.473  67.383  1.00  0.00    -0.222 C  
HETATM   11  N   UNL     1      -8.784  15.484  67.235  1.00  0.00    -0.184 N  
HETATM   12  O   UNL     1     -10.538  14.444  68.284  1.00  0.00    -0.234 OA 
HETATM   13  H   UNL     1      -8.124  15.440  66.459  1.00  0.00     0.000 HD 
BRANCH  11  14
HETATM   14  C   UNL     1      -8.720  16.612  68.142  1.00  0.00    -0.201 C  
BRANCH  14  15
HETATM   15  C   UNL     1      -7.860  17.712  67.578  1.00  0.00    -0.211 A  
HETATM   16  C   UNL     1      -7.939  19.012  68.102  1.00  0.00    -0.334 A  
HETATM   17  C   UNL     1      -7.138  20.035  67.587  1.00  0.00    -0.301 A  
HETATM   18  C   UNL     1      -6.260  19.773  66.539  1.00  0.00    -0.176 A  
HETATM   19  C   UNL     1      -6.179  18.489  66.003  1.00  0.00    -0.241 A  
HETATM   20  C   UNL     1      -6.979  17.463  66.517  1.00  0.00    -0.295 A  
ENDBRANCH  14  15
ENDBRANCH  11  14
ENDBRANCH   9  10
ENDBRANCH   8   9
TORSDOF 4
ENDMDL
MODEL      165
REMARK 921   NORMALIZED FREE ENERGY PREDICTED BY IDOCK:   -4.06 KCAL/MOL
REMARK 922        TOTAL FREE ENERGY PREDICTED BY IDOCK:   -5.63 KCAL/MOL
REMARK 923 INTER-LIGAND FREE ENERGY PREDICTED BY IDOCK:   -4.92 KCAL/MOL
REMARK 924 INTRA-LIGAND FREE ENERGY PREDICTED BY IDOCK:   -0.71 KCAL/MOL
REMARK 927      BINDING AFFINITY PREDICTED BY RF-SCORE:    0.00 PKD
ROOT
HETATM    1  O   UNL     1      -7.004  10.017  68.246  1.00  0.00    -0.067 OA 
HETATM    2  N   UNL     1      -7.643   9.850  67.194  1.00  0.00    -0.092 N  
HETATM    3  C   UNL     1      -8.761   8.959  67.259  1.00  0.00    -0.121 A  
HETATM    4  O   UNL     1      -7.434  10.425  66.121  1.00  0.00    -0.118 OA 
HETATM    5  N   UNL     1      -9.053   8.084  66.318  1.00  0.00    -0.180 NA 
HETATM    6  C   UNL     1     -10.206   7.481  66.750  1.00  0.00    -0.254 A  
HETATM    7  C   UNL     1     -10.617   8.012  67.953  1.00  0.00    -0.145 A  
HETATM    8  N   UNL     1      -9.667   8.948  68.285  1.00  0.00    -0.154 NA 
ENDROOT
BRANCH   8   9
HETATM    9  C   UNL     1      -9.729   9.822  69.444  1.00  0.00    -0.202 C  
BRANCH   9  10
HETATM   10  C   UNL     1     -10.541  11.071  69.174  1.00  0.00    -0.219 C  
HETATM   11  N   UNL     1      -9.821  12.153  68.727  1.00  0.00    -0.407 N  
HETATM   12  O   UNL     1     -11.759  11.092  69.342  1.00  0.00    -0.269 OA 
HETATM   13  H   UNL     1      -8.812  12.057  68.608  1.00  0.00     0.000 HD 
BRANCH  11  14
HETATM   14  C   UNL     1     -10.443  13.424  68.418  1.00  0.00    -0.250 C  
BRANCH  14  15
HETATM   15  C   UNL     1     -10.926  13.457  66.992  1.00  0.00    -0.298 A  
HETATM   16  C   UNL     1     -10.039  13.186  65.938  1.00  0.00    -0.292 A  
HETATM   17  C   UNL     1     -10.482  13.209  64.613  1.00  0.00    -0.411 A  
HETATM   18  C   UNL     1     -11.810  13.511  64.327  1.00  0.00    -0.471 A  
HETATM   19  C   UNL     1     -12.699  13.792  65.363  1.00  0.00    -0.513 A  
HETATM   20  C   UNL     1     -12.258  13.769  66.690  1.00  0.00    -0.454 A  
ENDBRANCH  14  15
ENDBRANCH  11  14
ENDBRANCH   9  10
ENDBRANCH   8   9
TORSDOF 4
ENDMDL
MODEL      166
REMARK 921   NORMALIZED FREE ENERGY PREDICTED BY IDOCK:   -4.04 KCAL/MOL
REMARK 922        TOTAL FREE ENERGY PREDICTED BY IDOCK:   -5.61 KCAL/MOL
REMARK 923 INTER-LIGAND FREE ENERGY PREDICTED BY IDOCK:   -4.95 KCAL/MOL
REMARK 924 INTRA-LIGAND FREE ENERGY PREDICTED BY IDOCK:   -0.65 KCAL/MOL
REMARK 927      BINDING AFFINITY PREDICTED BY RF-SCORE:    0.00 PKD
ROOT
HETATM    1  O   UNL     1      -8.845  11.614  65.962  1.00  0.00    -0.188 OA 
HETATM    2  N   UNL     1      -9.098  10.693  66.757  1.00  0.00    -0.151 N  
HETATM    3  C   UNL     1     -10.083  10.966  67.759  1.00  0.00    -0.177 A  
HETATM    4  O   UNL     1      -8.620   9.555  66.720  1.00  0.00    -0.126 OA 
HETATM    5  N   UNL     1      -9.971  10.582  69.014  1.00  0.00    -0.202 NA 
HETATM    6  C   UNL     1     -11.134  10.998  69.609  1.00  0.00    -0.256 A  
HETATM    7  C   UNL     1     -11.956  11.623  68.698  1.00  0.00    -0.248 A  
HETATM    8  N   UNL     1     -11.260  11.618  67.512  1.00  0.00    -0.273 NA 
ENDROOT
BRANCH   8   9
HETATM    9  C   UNL     1     -11.774  12.104  66.243  1.00  0.00    -0.320 C  
BRANCH   9  10
HETATM   10  C   UNL     1     -11.824  13.617  66.190  1.00  0.00    -0.392 C  
HETATM   11  N   UNL     1     -10.729  14.258  66.717  1.00  0.00    -0.284 N  
HETATM   12  O   UNL     1     -12.783  14.208  65.699  1.00  0.00    -0.514 OA 
HETATM   13  H   UNL     1      -9.970  13.698  67.104  1.00  0.00     0.000 HD 
BRANCH  11  14
HETATM   14  C   UNL     1     -10.614  15.702  66.743  1.00  0.00    -0.307 C  
BRANCH  14  15
HETATM   15  C   UNL     1      -9.171  16.129  66.772  1.00  0.00    -0.255 A  
HETATM   16  C   UNL     1      -8.202  15.310  67.373  1.00  0.00    -0.207 A  
HETATM   17  C   UNL     1      -6.860  15.697  67.398  1.00  0.00    -0.231 A  
HETATM   18  C   UNL     1      -6.473  16.909  66.832  1.00  0.00    -0.249 A  
HETATM   19  C   UNL     1      -7.426  17.737  66.241  1.00  0.00    -0.328 A  
HETATM   20  C   UNL     1      -8.770  17.351  66.214  1.00  0.00    -0.242 A  
ENDBRANCH  14  15
ENDBRANCH  11  14
ENDBRANCH   9  10
ENDBRANCH   8   9
TORSDOF 4
ENDMDL
MODEL      167
REMARK 921   NORMALIZED FREE ENERGY PREDICTED BY IDOCK:   -4.00 KCAL/MOL
REMARK 922        TOTAL FREE ENERGY PREDICTED BY IDOCK:   -5.55 KCAL/MOL
REMARK 923 INTER-LIGAND FREE ENERGY PREDICTED BY IDOCK:   -4.92 KCAL/MOL
REMARK 924 INTRA-LIGAND FREE ENERGY PREDICTED BY IDOCK:   -0.63 KCAL/MOL
REMARK 927      BINDING AFFINITY PREDICTED BY RF-SCORE:    0.00 PKD
ROOT
HETATM    1  O   UNL     1     -12.538  10.439  70.517  1.00  0.00    -0.316 OA 
HETATM    2  N   UNL     1     -12.614   9.545  71.377  1.00  0.00    -0.339 N  
HETATM    3  C   UNL     1     -11.834   8.368  71.145  1.00  0.00    -0.282 A  
HETATM    4  O   UNL     1     -13.252   9.609  72.431  1.00  0.00    -0.422 OA 
HETATM    5  N   UNL     1     -12.271   7.147  71.376  1.00  0.00    -0.342 NA 
HETATM    6  C   UNL     1     -11.209   6.335  71.071  1.00  0.00    -0.312 A  
HETATM    7  C   UNL     1     -10.121   7.078  70.671  1.00  0.00    -0.191 A  
HETATM    8  N   UNL     1     -10.540   8.387  70.700  1.00  0.00    -0.204 NA 
ENDROOT
BRANCH   8   9
HETATM    9  C   UNL     1      -9.696   9.537  70.428  1.00  0.00    -0.271 C  
BRANCH   9  10
HETATM   10  C   UNL     1      -9.689   9.906  68.959  1.00  0.00    -0.193 C  
HETATM   11  N   UNL     1     -10.455  10.997  68.625  1.00  0.00    -0.183 N  
HETATM   12  O   UNL     1      -9.031   9.265  68.142  1.00  0.00    -0.129 OA 
HETATM   13  H   UNL     1     -10.970  11.480  69.361  1.00  0.00     0.000 HD 
BRANCH  11  14
HETATM   14  C   UNL     1     -10.556  11.486  67.265  1.00  0.00    -0.228 C  
BRANCH  14  15
HETATM   15  C   UNL     1     -10.362  12.978  67.211  1.00  0.00    -0.238 A  
HETATM   16  C   UNL     1     -11.098  13.756  66.303  1.00  0.00    -0.302 A  
HETATM   17  C   UNL     1     -10.927  15.141  66.253  1.00  0.00    -0.335 A  
HETATM   18  C   UNL     1     -10.015  15.762  67.101  1.00  0.00    -0.242 A  
HETATM   19  C   UNL     1      -9.270  15.001  68.000  1.00  0.00    -0.183 A  
HETATM   20  C   UNL     1      -9.439  13.614  68.053  1.00  0.00    -0.209 A  
ENDBRANCH  14  15
ENDBRANCH  11  14
ENDBRANCH   9  10
ENDBRANCH   8   9
TORSDOF 4
ENDMDL
MODEL      168
REMARK 921   NORMALIZED FREE ENERGY PREDICTED BY IDOCK:   -3.99 KCAL/MOL
REMARK 922        TOTAL FREE ENERGY PREDICTED BY IDOCK:   -5.55 KCAL/MOL
REMARK 923 INTER-LIGAND FREE ENERGY PREDICTED BY IDOCK:   -5.12 KCAL/MOL
REMARK 924 INTRA-LIGAND FREE ENERGY PREDICTED BY IDOCK:   -0.43 KCAL/MOL
REMARK 927      BINDING AFFINITY PREDICTED BY RF-SCORE:    0.00 PKD
ROOT
HETATM    1  O   UNL     1     -12.130  13.523  68.667  1.00  0.00    -0.352 OA 
HETATM    2  N   UNL     1     -12.002  13.447  69.900  1.00  0.00    -0.334 N  
HETATM    3  C   UNL     1     -12.437  12.230  70.515  1.00  0.00    -0.189 A  
HETATM    4  O   UNL     1     -11.482  14.299  70.627  1.00  0.00    -0.209 OA 
HETATM    5  N   UNL     1     -13.099  12.185  71.654  1.00  0.00    -0.388 NA 
HETATM    6  C   UNL     1     -13.273  10.847  71.900  1.00  0.00    -0.403 A  
HETATM    7  C   UNL     1     -12.696  10.086  70.909  1.00  0.00    -0.325 A  
HETATM    8  N   UNL     1     -12.179  10.986  70.007  1.00  0.00    -0.337 NA 
ENDROOT
BRANCH   8   9
HETATM    9  C   UNL     1     -11.405  10.634  68.830  1.00  0.00    -0.274 C  
BRANCH   9  10
HETATM   10  C   UNL     1     -10.301   9.647  69.148  1.00  0.00    -0.207 C  
HETATM   11  N   UNL     1      -9.412  10.053  70.114  1.00  0.00    -0.396 N  
HETATM   12  O   UNL     1     -10.229   8.562  68.575  1.00  0.00    -0.190 OA 
HETATM   13  H   UNL     1      -9.540  10.968  70.547  1.00  0.00     0.000 HD 
BRANCH  11  14
HETATM   14  C   UNL     1      -8.299   9.228  70.539  1.00  0.00    -0.205 C  
BRANCH  14  15
HETATM   15  C   UNL     1      -8.735   8.225  71.575  1.00  0.00    -0.208 A  
HETATM   16  C   UNL     1      -8.099   6.977  71.663  1.00  0.00    -0.103 A  
HETATM   17  C   UNL     1      -8.494   6.045  72.626  1.00  0.00    -0.118 A  
HETATM   18  C   UNL     1      -9.532   6.345  73.502  1.00  0.00    -0.156 A  
HETATM   19  C   UNL     1     -10.179   7.578  73.420  1.00  0.00    -0.399 A  
HETATM   20  C   UNL     1      -9.785   8.513  72.457  1.00  0.00    -0.326 A  
ENDBRANCH  14  15
ENDBRANCH  11  14
ENDBRANCH   9  10
ENDBRANCH   8   9
TORSDOF 4
ENDMDL
MODEL      169
REMARK 921   NORMALIZED FREE ENERGY PREDICTED BY IDOCK:   -3.98 KCAL/MOL
REMARK 922        TOTAL FREE ENERGY PREDICTED BY IDOCK:   -5.53 KCAL/MOL
REMARK 923 INTER-LIGAND FREE ENERGY PREDICTED BY IDOCK:   -5.24 KCAL/MOL
REMARK 924 INTRA-LIGAND FREE ENERGY PREDICTED BY IDOCK:   -0.29 KCAL/MOL
REMARK 927      BINDING AFFINITY PREDICTED BY RF-SCORE:    0.00 PKD
ROOT
HETATM    1  O   UNL     1     -10.198   6.709  67.765  1.00  0.00    -0.144 OA 
HETATM    2  N   UNL     1      -9.635   7.327  66.847  1.00  0.00    -0.164 N  
HETATM    3  C   UNL     1      -9.688   8.756  66.911  1.00  0.00    -0.210 A  
HETATM    4  O   UNL     1      -8.988   6.821  65.925  1.00  0.00    -0.147 OA 
HETATM    5  N   UNL     1      -9.895   9.526  65.862  1.00  0.00    -0.285 NA 
HETATM    6  C   UNL     1      -9.822  10.805  66.351  1.00  0.00    -0.209 A  
HETATM    7  C   UNL     1      -9.554  10.801  67.702  1.00  0.00    -0.158 A  
HETATM    8  N   UNL     1      -9.491   9.474  68.060  1.00  0.00    -0.133 NA 
ENDROOT
BRANCH   8   9
HETATM    9  C   UNL     1      -9.150   8.985  69.383  1.00  0.00    -0.146 C  
BRANCH   9  10
HETATM   10  C   UNL     1     -10.250   9.248  70.390  1.00  0.00    -0.233 C  
HETATM   11  N   UNL     1     -11.457   9.627  69.854  1.00  0.00    -0.413 N  
HETATM   12  O   UNL     1     -10.057   9.117  71.598  1.00  0.00    -0.327 OA 
HETATM   13  H   UNL     1     -11.541   9.710  68.841  1.00  0.00     0.000 HD 
BRANCH  11  14
HETATM   14  C   UNL     1     -12.615   9.912  70.677  1.00  0.00    -0.173 C  
BRANCH  14  15
HETATM   15  C   UNL     1     -12.729  11.388  70.955  1.00  0.00    -0.447 A  
HETATM   16  C   UNL     1     -13.371  11.841  72.119  1.00  0.00    -0.334 A  
HETATM   17  C   UNL     1     -13.474  13.209  72.386  1.00  0.00    -0.643 A  
HETATM   18  C   UNL     1     -12.948  14.136  71.492  1.00  0.00    -0.417 A  
HETATM   19  C   UNL     1     -12.317  13.700  70.327  1.00  0.00    -0.392 A  
HETATM   20  C   UNL     1     -12.212  12.332  70.058  1.00  0.00    -0.267 A  
ENDBRANCH  14  15
ENDBRANCH  11  14
ENDBRANCH   9  10
ENDBRANCH   8   9
TORSDOF 4
ENDMDL
MODEL      170
REMARK 921   NORMALIZED FREE ENERGY PREDICTED BY IDOCK:   -3.98 KCAL/MOL
REMARK 922        TOTAL FREE ENERGY PREDICTED BY IDOCK:   -5.53 KCAL/MOL
REMARK 923 INTER-LIGAND FREE ENERGY PREDICTED BY IDOCK:   -5.00 KCAL/MOL
REMARK 924 INTRA-LIGAND FREE ENERGY PREDICTED BY IDOCK:   -0.53 KCAL/MOL
REMARK 927      BINDING AFFINITY PREDICTED BY RF-SCORE:    0.00 PKD
ROOT
HETATM    1  O   UNL     1      -9.986   9.831  65.223  1.00  0.00    -0.318 OA 
HETATM    2  N   UNL     1     -10.593  10.866  64.903  1.00  0.00    -0.277 N  
HETATM    3  C   UNL     1     -10.841  11.811  65.949  1.00  0.00    -0.291 A  
HETATM    4  O   UNL     1     -10.946  11.174  63.761  1.00  0.00    -0.363 OA 
HETATM    5  N   UNL     1     -11.976  12.466  66.087  1.00  0.00    -0.608 NA 
HETATM    6  C   UNL     1     -11.774  13.287  67.166  1.00  0.00    -0.376 A  
HETATM    7  C   UNL     1     -10.502  13.135  67.668  1.00  0.00    -0.221 A  
HETATM    8  N   UNL     1      -9.914  12.164  66.892  1.00  0.00    -0.202 NA 
ENDROOT
BRANCH   8   9
HETATM    9  C   UNL     1      -8.533  11.729  67.007  1.00  0.00    -0.175 C  
BRANCH   9  10
HETATM   10  C   UNL     1      -8.232  11.140  68.369  1.00  0.00    -0.144 C  
HETATM   11  N   UNL     1      -9.073  10.129  68.769  1.00  0.00    -0.146 N  
HETATM   12  O   UNL     1      -7.292  11.546  69.049  1.00  0.00    -0.115 OA 
HETATM   13  H   UNL     1      -9.830   9.843  68.147  1.00  0.00     0.000 HD 
BRANCH  11  14
HETATM   14  C   UNL     1      -8.923   9.453  70.042  1.00  0.00    -0.212 C  
BRANCH  14  15
HETATM   15  C   UNL     1      -9.509   8.067  69.990  1.00  0.00    -0.160 A  
HETATM   16  C   UNL     1     -10.398   7.711  68.964  1.00  0.00    -0.220 A  
HETATM   17  C   UNL     1     -10.939   6.424  68.906  1.00  0.00    -0.412 A  
HETATM   18  C   UNL     1     -10.606   5.485  69.878  1.00  0.00    -0.387 A  
HETATM   19  C   UNL     1      -9.733   5.827  70.909  1.00  0.00    -0.218 A  
HETATM   20  C   UNL     1      -9.189   7.115  70.968  1.00  0.00    -0.158 A  
ENDBRANCH  14  15
ENDBRANCH  11  14
ENDBRANCH   9  10
ENDBRANCH   8   9
TORSDOF 4
ENDMDL
MODEL      171
REMARK 921   NORMALIZED FREE ENERGY PREDICTED BY IDOCK:   -3.97 KCAL/MOL
REMARK 922        TOTAL FREE ENERGY PREDICTED BY IDOCK:   -5.51 KCAL/MOL
REMARK 923 INTER-LIGAND FREE ENERGY PREDICTED BY IDOCK:   -5.16 KCAL/MOL
REMARK 924 INTRA-LIGAND FREE ENERGY PREDICTED BY IDOCK:   -0.35 KCAL/MOL
REMARK 927      BINDING AFFINITY PREDICTED BY RF-SCORE:    0.00 PKD
ROOT
HETATM    1  O   UNL     1      -9.005   7.788  70.532  1.00  0.00    -0.147 OA 
HETATM    2  N   UNL     1      -9.580   8.363  71.472  1.00  0.00    -0.187 N  
HETATM    3  C   UNL     1     -11.007   8.261  71.506  1.00  0.00    -0.254 A  
HETATM    4  O   UNL     1      -9.027   8.959  72.401  1.00  0.00    -0.383 OA 
HETATM    5  N   UNL     1     -11.803   9.266  71.813  1.00  0.00    -0.374 NA 
HETATM    6  C   UNL     1     -13.065   8.733  71.775  1.00  0.00    -0.363 A  
HETATM    7  C   UNL     1     -13.024   7.393  71.458  1.00  0.00    -0.375 A  
HETATM    8  N   UNL     1     -11.694   7.102  71.264  1.00  0.00    -0.290 NA 
ENDROOT
BRANCH   8   9
HETATM    9  C   UNL     1     -11.163   5.779  70.988  1.00  0.00    -0.137 C  
BRANCH   9  10
HETATM   10  C   UNL     1     -10.767   5.615  69.535  1.00  0.00    -0.310 C  
HETATM   11  N   UNL     1     -11.312   6.535  68.672  1.00  0.00    -0.582 N  
HETATM   12  O   UNL     1     -10.005   4.720  69.177  1.00  0.00    -0.191 OA 
HETATM   13  H   UNL     1     -11.934   7.252  69.045  1.00  0.00     0.000 HD 
BRANCH  11  14
HETATM   14  C   UNL     1     -11.034   6.524  67.250  1.00  0.00    -0.400 C  
BRANCH  14  15
HETATM   15  C   UNL     1      -9.948   7.507  66.904  1.00  0.00    -0.318 A  
HETATM   16  C   UNL     1     -10.275   8.820  66.529  1.00  0.00    -0.314 A  
HETATM   17  C   UNL     1      -9.271   9.740  66.213  1.00  0.00    -0.207 A  
HETATM   18  C   UNL     1      -7.935   9.355  66.258  1.00  0.00    -0.111 A  
HETATM   19  C   UNL     1      -7.596   8.052  66.618  1.00  0.00    -0.093 A  
HETATM   20  C   UNL     1      -8.599   7.130  66.936  1.00  0.00    -0.124 A  
ENDBRANCH  14  15
ENDBRANCH  11  14
ENDBRANCH   9  10
ENDBRANCH   8   9
TORSDOF 4
ENDMDL
MODEL      172
REMARK 921   NORMALIZED FREE ENERGY PREDICTED BY IDOCK:   -3.95 KCAL/MOL
REMARK 922        TOTAL FREE ENERGY PREDICTED BY IDOCK:   -5.49 KCAL/MOL
REMARK 923 INTER-LIGAND FREE ENERGY PREDICTED BY IDOCK:   -5.08 KCAL/MOL
REMARK 924 INTRA-LIGAND FREE ENERGY PREDICTED BY IDOCK:   -0.41 KCAL/MOL
REMARK 927      BINDING AFFINITY PREDICTED BY RF-SCORE:    0.00 PKD
ROOT
HETATM    1  O   UNL     1      -7.911  14.620  67.519  1.00  0.00    -0.162 OA 
HETATM    2  N   UNL     1      -8.619  14.776  68.528  1.00  0.00    -0.163 N  
HETATM    3  C   UNL     1      -9.962  14.286  68.447  1.00  0.00    -0.240 A  
HETATM    4  O   UNL     1      -8.251  15.258  69.603  1.00  0.00    -0.234 OA 
HETATM    5  N   UNL     1     -11.004  14.934  68.927  1.00  0.00    -0.240 NA 
HETATM    6  C   UNL     1     -12.069  14.104  68.687  1.00  0.00    -0.285 A  
HETATM    7  C   UNL     1     -11.658  12.943  68.072  1.00  0.00    -0.342 A  
HETATM    8  N   UNL     1     -10.301  13.078  67.901  1.00  0.00    -0.226 NA 
ENDROOT
BRANCH   8   9
HETATM    9  C   UNL     1      -9.424  12.054  67.360  1.00  0.00    -0.177 C  
BRANCH   9  10
HETATM   10  C   UNL     1      -8.804  11.201  68.447  1.00  0.00    -0.157 C  
HETATM   11  N   UNL     1      -9.697  10.503  69.224  1.00  0.00    -0.290 N  
HETATM   12  O   UNL     1      -7.586  11.146  68.600  1.00  0.00    -0.110 OA 
HETATM   13  H   UNL     1     -10.694  10.597  69.033  1.00  0.00     0.000 HD 
BRANCH  11  14
HETATM   14  C   UNL     1      -9.271   9.637  70.305  1.00  0.00    -0.236 C  
BRANCH  14  15
HETATM   15  C   UNL     1     -10.382   8.712  70.726  1.00  0.00    -0.249 A  
HETATM   16  C   UNL     1     -11.266   9.087  71.751  1.00  0.00    -0.448 A  
HETATM   17  C   UNL     1     -12.303   8.236  72.141  1.00  0.00    -0.410 A  
HETATM   18  C   UNL     1     -12.462   7.001  71.520  1.00  0.00    -0.426 A  
HETATM   19  C   UNL     1     -11.586   6.611  70.508  1.00  0.00    -0.448 A  
HETATM   20  C   UNL     1     -10.547   7.461  70.116  1.00  0.00    -0.240 A  
ENDBRANCH  14  15
ENDBRANCH  11  14
ENDBRANCH   9  10
ENDBRANCH   8   9
TORSDOF 4
ENDMDL
MODEL      173
REMARK 921   NORMALIZED FREE ENERGY PREDICTED BY IDOCK:   -3.94 KCAL/MOL
REMARK 922        TOTAL FREE ENERGY PREDICTED BY IDOCK:   -5.49 KCAL/MOL
REMARK 923 INTER-LIGAND FREE ENERGY PREDICTED BY IDOCK:   -5.27 KCAL/MOL
REMARK 924 INTRA-LIGAND FREE ENERGY PREDICTED BY IDOCK:   -0.22 KCAL/MOL
REMARK 927      BINDING AFFINITY PREDICTED BY RF-SCORE:    0.00 PKD
ROOT
HETATM    1  O   UNL     1     -12.352  15.974  69.819  1.00  0.00    -0.206 OA 
HETATM    2  N   UNL     1     -12.330  15.666  71.023  1.00  0.00    -0.402 N  
HETATM    3  C   UNL     1     -12.782  14.349  71.355  1.00  0.00    -0.342 A  
HETATM    4  O   UNL     1     -11.899  16.370  71.941  1.00  0.00    -0.497 OA 
HETATM    5  N   UNL     1     -13.538  14.080  72.400  1.00  0.00    -0.512 NA 
HETATM    6  C   UNL     1     -13.695  12.718  72.373  1.00  0.00    -0.360 A  
HETATM    7  C   UNL     1     -13.013  12.166  71.311  1.00  0.00    -0.207 A  
HETATM    8  N   UNL     1     -12.446  13.228  70.647  1.00  0.00    -0.328 NA 
ENDROOT
BRANCH   8   9
HETATM    9  C   UNL     1     -11.563  13.115  69.499  1.00  0.00    -0.283 C  
BRANCH   9  10
HETATM   10  C   UNL     1     -11.350  11.675  69.082  1.00  0.00    -0.283 C  
HETATM   11  N   UNL     1     -10.302  11.034  69.698  1.00  0.00    -0.446 N  
HETATM   12  O   UNL     1     -12.080  11.134  68.254  1.00  0.00    -0.620 OA 
HETATM   13  H   UNL     1      -9.743  11.549  70.379  1.00  0.00     0.000 HD 
BRANCH  11  14
HETATM   14  C   UNL     1      -9.963   9.654  69.417  1.00  0.00    -0.197 C  
BRANCH  14  15
HETATM   15  C   UNL     1      -8.478   9.489  69.234  1.00  0.00    -0.139 A  
HETATM   16  C   UNL     1      -7.591   9.888  70.246  1.00  0.00    -0.172 A  
HETATM   17  C   UNL     1      -6.212   9.731  70.085  1.00  0.00    -0.070 A  
HETATM   18  C   UNL     1      -5.705   9.184  68.910  1.00  0.00    -0.040 A  
HETATM   19  C   UNL     1      -6.574   8.793  67.892  1.00  0.00    -0.061 A  
HETATM   20  C   UNL     1      -7.954   8.949  68.051  1.00  0.00    -0.102 A  
ENDBRANCH  14  15
ENDBRANCH  11  14
ENDBRANCH   9  10
ENDBRANCH   8   9
TORSDOF 4
ENDMDL
MODEL      174
REMARK 921   NORMALIZED FREE ENERGY PREDICTED BY IDOCK:   -3.94 KCAL/MOL
REMARK 922        TOTAL FREE ENERGY PREDICTED BY IDOCK:   -5.48 KCAL/MOL
REMARK 923 INTER-LIGAND FREE ENERGY PREDICTED BY IDOCK:   -5.09 KCAL/MOL
REMARK 924 INTRA-LIGAND FREE ENERGY PREDICTED BY IDOCK:   -0.39 KCAL/MOL
REMARK 927      BINDING AFFINITY PREDICTED BY RF-SCORE:    0.00 PKD
ROOT
HETATM    1  O   UNL     1     -11.914  11.929  69.844  1.00  0.00    -0.316 OA 
HETATM    2  N   UNL     1     -12.506  11.897  70.936  1.00  0.00    -0.353 N  
HETATM    3  C   UNL     1     -12.859  10.602  71.434  1.00  0.00    -0.451 A  
HETATM    4  O   UNL     1     -12.761  12.871  71.649  1.00  0.00    -0.289 OA 
HETATM    5  N   UNL     1     -14.011  10.332  72.013  1.00  0.00     0.082 NA 
HETATM    6  C   UNL     1     -13.917   9.013  72.375  1.00  0.00    -0.448 A  
HETATM    7  C   UNL     1     -12.691   8.493  72.024  1.00  0.00    -0.376 A  
HETATM    8  N   UNL     1     -12.023   9.519  71.397  1.00  0.00    -0.358 NA 
ENDROOT
BRANCH   8   9
HETATM    9  C   UNL     1     -10.652   9.452  70.924  1.00  0.00    -0.320 C  
BRANCH   9  10
HETATM   10  C   UNL     1     -10.284   8.066  70.435  1.00  0.00    -0.201 C  
HETATM   11  N   UNL     1      -9.504   7.330  71.294  1.00  0.00    -0.155 N  
HETATM   12  O   UNL     1     -10.672   7.647  69.347  1.00  0.00    -0.230 OA 
HETATM   13  H   UNL     1      -9.224   7.745  72.183  1.00  0.00     0.000 HD 
BRANCH  11  14
HETATM   14  C   UNL     1      -9.066   5.984  70.983  1.00  0.00    -0.143 C  
BRANCH  14  15
HETATM   15  C   UNL     1      -9.755   4.974  71.862  1.00  0.00    -0.212 A  
HETATM   16  C   UNL     1     -10.876   5.345  72.621  1.00  0.00    -0.307 A  
HETATM   17  C   UNL     1     -11.525   4.411  73.433  1.00  0.00    -0.297 A  
HETATM   18  C   UNL     1     -11.056   3.102  73.502  1.00  0.00    -0.316 A  
HETATM   19  C   UNL     1      -9.937   2.723  72.761  1.00  0.00    -0.212 A  
HETATM   20  C   UNL     1      -9.287   3.656  71.947  1.00  0.00    -0.189 A  
ENDBRANCH  14  15
ENDBRANCH  11  14
ENDBRANCH   9  10
ENDBRANCH   8   9
TORSDOF 4
ENDMDL
MODEL      175
REMARK 921   NORMALIZED FREE ENERGY PREDICTED BY IDOCK:   -3.93 KCAL/MOL
REMARK 922        TOTAL FREE ENERGY PREDICTED BY IDOCK:   -5.47 KCAL/MOL
REMARK 923 INTER-LIGAND FREE ENERGY PREDICTED BY IDOCK:   -5.06 KCAL/MOL
REMARK 924 INTRA-LIGAND FREE ENERGY PREDICTED BY IDOCK:   -0.41 KCAL/MOL
REMARK 927      BINDING AFFINITY PREDICTED BY RF-SCORE:    0.00 PKD
ROOT
HETATM    1  O   UNL     1      -9.286  16.189  67.224  1.00  0.00    -0.205 OA 
HETATM    2  N   UNL     1     -10.171  16.807  66.609  1.00  0.00    -0.301 N  
HETATM    3  C   UNL     1     -10.903  16.067  65.627  1.00  0.00    -0.266 A  
HETATM    4  O   UNL     1     -10.511  17.976  66.813  1.00  0.00    -0.354 OA 
HETATM    5  N   UNL     1     -11.242  16.554  64.450  1.00  0.00    -0.980 NA 
HETATM    6  C   UNL     1     -11.960  15.551  63.853  1.00  0.00     0.222 A  
HETATM    7  C   UNL     1     -12.067  14.460  64.686  1.00  0.00    -0.471 A  
HETATM    8  N   UNL     1     -11.363  14.793  65.819  1.00  0.00    -0.342 NA 
ENDROOT
BRANCH   8   9
HETATM    9  C   UNL     1     -11.267  13.969  67.012  1.00  0.00    -0.313 C  
BRANCH   9  10
HETATM   10  C   UNL     1     -10.627  12.626  66.728  1.00  0.00    -0.237 C  
HETATM   11  N   UNL     1     -11.369  11.532  67.104  1.00  0.00    -0.302 N  
HETATM   12  O   UNL     1      -9.524  12.544  66.191  1.00  0.00    -0.237 OA 
HETATM   13  H   UNL     1     -12.278  11.681  67.541  1.00  0.00     0.000 HD 
BRANCH  11  14
HETATM   14  C   UNL     1     -10.905  10.174  66.901  1.00  0.00    -0.106 C  
BRANCH  14  15
HETATM   15  C   UNL     1     -10.467   9.553  68.201  1.00  0.00    -0.268 A  
HETATM   16  C   UNL     1      -9.642  10.267  69.085  1.00  0.00    -0.229 A  
HETATM   17  C   UNL     1      -9.238   9.699  70.296  1.00  0.00    -0.285 A  
HETATM   18  C   UNL     1      -9.645   8.411  70.631  1.00  0.00    -0.195 A  
HETATM   19  C   UNL     1     -10.456   7.686  69.758  1.00  0.00    -0.232 A  
HETATM   20  C   UNL     1     -10.863   8.253  68.546  1.00  0.00     0.041 A  
ENDBRANCH  14  15
ENDBRANCH  11  14
ENDBRANCH   9  10
ENDBRANCH   8   9
TORSDOF 4
ENDMDL
MODEL      176
REMARK 921   NORMALIZED FREE ENERGY PREDICTED BY IDOCK:   -3.93 KCAL/MOL
REMARK 922        TOTAL FREE ENERGY PREDICTED BY IDOCK:   -5.47 KCAL/MOL
REMARK 923 INTER-LIGAND FREE ENERGY PREDICTED BY IDOCK:   -5.01 KCAL/MOL
REMARK 924 INTRA-LIGAND FREE ENERGY PREDICTED BY IDOCK:   -0.46 KCAL/MOL
REMARK 927      BINDING AFFINITY PREDICTED BY RF-SCORE:    0.00 PKD
ROOT
HETATM    1  O   UNL     1      -9.019   5.807  70.836  1.00  0.00    -0.142 OA 
HETATM    2  N   UNL     1      -9.919   5.696  71.685  1.00  0.00    -0.170 N  
HETATM    3  C   UNL     1     -10.782   6.826  71.855  1.00  0.00    -0.223 A  
HETATM    4  O   UNL     1     -10.169   4.683  72.346  1.00  0.00    -0.178 OA 
HETATM    5  N   UNL     1     -11.198   7.255  73.029  1.00  0.00    -0.297 NA 
HETATM    6  C   UNL     1     -12.027   8.308  72.739  1.00  0.00    -0.177 A  
HETATM    7  C   UNL     1     -12.120   8.500  71.379  1.00  0.00    -0.303 A  
HETATM    8  N   UNL     1     -11.296   7.554  70.817  1.00  0.00    -0.277 NA 
ENDROOT
BRANCH   8   9
HETATM    9  C   UNL     1     -11.139   7.328  69.391  1.00  0.00    -0.068 C  
BRANCH   9  10
HETATM   10  C   UNL     1     -10.508   8.514  68.691  1.00  0.00    -0.169 C  
HETATM   11  N   UNL     1     -11.391   9.455  68.219  1.00  0.00    -0.388 N  
HETATM   12  O   UNL     1      -9.288   8.611  68.572  1.00  0.00    -0.138 OA 
HETATM   13  H   UNL     1     -12.391   9.305  68.360  1.00  0.00     0.000 HD 
BRANCH  11  14
HETATM   14  C   UNL     1     -10.954  10.652  67.530  1.00  0.00    -0.310 C  
BRANCH  14  15
HETATM   15  C   UNL     1     -11.313  11.887  68.311  1.00  0.00    -0.335 A  
HETATM   16  C   UNL     1     -11.187  13.157  67.726  1.00  0.00    -0.308 A  
HETATM   17  C   UNL     1     -11.525  14.307  68.443  1.00  0.00    -0.331 A  
HETATM   18  C   UNL     1     -11.983  14.202  69.753  1.00  0.00    -0.396 A  
HETATM   19  C   UNL     1     -12.103  12.948  70.351  1.00  0.00    -0.385 A  
HETATM   20  C   UNL     1     -11.766  11.796  69.634  1.00  0.00    -0.413 A  
ENDBRANCH  14  15
ENDBRANCH  11  14
ENDBRANCH   9  10
ENDBRANCH   8   9
TORSDOF 4
ENDMDL
MODEL      177
REMARK 921   NORMALIZED FREE ENERGY PREDICTED BY IDOCK:   -3.91 KCAL/MOL
REMARK 922        TOTAL FREE ENERGY PREDICTED BY IDOCK:   -5.44 KCAL/MOL
REMARK 923 INTER-LIGAND FREE ENERGY PREDICTED BY IDOCK:   -5.09 KCAL/MOL
REMARK 924 INTRA-LIGAND FREE ENERGY PREDICTED BY IDOCK:   -0.35 KCAL/MOL
REMARK 927      BINDING AFFINITY PREDICTED BY RF-SCORE:    0.00 PKD
ROOT
HETATM    1  O   UNL     1     -12.523  13.413  67.646  1.00  0.00    -0.109 OA 
HETATM    2  N   UNL     1     -11.856  12.433  68.021  1.00  0.00    -0.352 N  
HETATM    3  C   UNL     1     -11.076  11.770  67.020  1.00  0.00    -0.304 A  
HETATM    4  O   UNL     1     -11.763  12.023  69.182  1.00  0.00    -0.287 OA 
HETATM    5  N   UNL     1     -10.966  10.460  66.932  1.00  0.00    -0.160 NA 
HETATM    6  C   UNL     1     -10.104  10.255  65.885  1.00  0.00    -0.251 A  
HETATM    7  C   UNL     1      -9.683  11.453  65.353  1.00  0.00    -0.230 A  
HETATM    8  N   UNL     1     -10.333  12.425  66.076  1.00  0.00    -0.245 NA 
ENDROOT
BRANCH   8   9
HETATM    9  C   UNL     1     -10.132  13.854  65.917  1.00  0.00    -0.317 C  
BRANCH   9  10
HETATM   10  C   UNL     1      -9.048  14.384  66.833  1.00  0.00    -0.251 C  
HETATM   11  N   UNL     1      -8.414  15.521  66.393  1.00  0.00    -0.383 N  
HETATM   12  O   UNL     1      -8.777  13.825  67.893  1.00  0.00    -0.162 OA 
HETATM   13  H   UNL     1      -8.698  15.930  65.503  1.00  0.00     0.000 HD 
BRANCH  11  14
HETATM   14  C   UNL     1      -7.357  16.161  67.150  1.00  0.00    -0.215 C  
BRANCH  14  15
HETATM   15  C   UNL     1      -7.471  17.660  67.076  1.00  0.00    -0.226 A  
HETATM   16  C   UNL     1      -7.232  18.330  65.866  1.00  0.00    -0.270 A  
HETATM   17  C   UNL     1      -7.343  19.721  65.790  1.00  0.00    -0.331 A  
HETATM   18  C   UNL     1      -7.683  20.456  66.922  1.00  0.00    -0.346 A  
HETATM   19  C   UNL     1      -7.912  19.805  68.133  1.00  0.00    -0.334 A  
HETATM   20  C   UNL     1      -7.802  18.413  68.211  1.00  0.00    -0.314 A  
ENDBRANCH  14  15
ENDBRANCH  11  14
ENDBRANCH   9  10
ENDBRANCH   8   9
TORSDOF 4
ENDMDL
MODEL      178
REMARK 921   NORMALIZED FREE ENERGY PREDICTED BY IDOCK:   -3.90 KCAL/MOL
REMARK 922        TOTAL FREE ENERGY PREDICTED BY IDOCK:   -5.43 KCAL/MOL
REMARK 923 INTER-LIGAND FREE ENERGY PREDICTED BY IDOCK:   -4.77 KCAL/MOL
REMARK 924 INTRA-LIGAND FREE ENERGY PREDICTED BY IDOCK:   -0.66 KCAL/MOL
REMARK 927      BINDING AFFINITY PREDICTED BY RF-SCORE:    0.00 PKD
ROOT
HETATM    1  O   UNL     1      -6.719  13.173  67.349  1.00  0.00    -0.166 OA 
HETATM    2  N   UNL     1      -7.133  12.004  67.271  1.00  0.00    -0.142 N  
HETATM    3  C   UNL     1      -8.376  11.722  67.922  1.00  0.00    -0.149 A  
HETATM    4  O   UNL     1      -6.600  11.089  66.637  1.00  0.00    -0.108 OA 
HETATM    5  N   UNL     1      -8.604  10.625  68.615  1.00  0.00    -0.136 NA 
HETATM    6  C   UNL     1      -9.910  10.734  69.018  1.00  0.00    -0.194 A  
HETATM    7  C   UNL     1     -10.474  11.899  68.548  1.00  0.00    -0.224 A  
HETATM    8  N   UNL     1      -9.471  12.542  67.862  1.00  0.00    -0.190 NA 
ENDROOT
BRANCH   8   9
HETATM    9  C   UNL     1      -9.630  13.782  67.123  1.00  0.00    -0.244 C  
BRANCH   9  10
HETATM   10  C   UNL     1      -9.691  14.987  68.038  1.00  0.00    -0.213 C  
HETATM   11  N   UNL     1      -8.544  15.742  68.091  1.00  0.00    -0.162 N  
HETATM   12  O   UNL     1     -10.709  15.258  68.674  1.00  0.00    -0.232 OA 
HETATM   13  H   UNL     1      -7.741  15.455  67.531  1.00  0.00     0.000 HD 
BRANCH  11  14
HETATM   14  C   UNL     1      -8.434  16.930  68.913  1.00  0.00    -0.202 C  
BRANCH  14  15
HETATM   15  C   UNL     1      -8.829  18.160  68.141  1.00  0.00    -0.289 A  
HETATM   16  C   UNL     1      -9.928  18.932  68.552  1.00  0.00    -0.463 A  
HETATM   17  C   UNL     1     -10.295  20.079  67.844  1.00  0.00    -0.506 A  
HETATM   18  C   UNL     1      -9.577  20.460  66.714  1.00  0.00    -0.512 A  
HETATM   19  C   UNL     1      -8.490  19.698  66.289  1.00  0.00    -0.383 A  
HETATM   20  C   UNL     1      -8.120  18.550  66.997  1.00  0.00    -0.254 A  
ENDBRANCH  14  15
ENDBRANCH  11  14
ENDBRANCH   9  10
ENDBRANCH   8   9
TORSDOF 4
ENDMDL
MODEL      179
REMARK 921   NORMALIZED FREE ENERGY PREDICTED BY IDOCK:   -3.87 KCAL/MOL
REMARK 922        TOTAL FREE ENERGY PREDICTED BY IDOCK:   -5.39 KCAL/MOL
REMARK 923 INTER-LIGAND FREE ENERGY PREDICTED BY IDOCK:   -5.09 KCAL/MOL
REMARK 924 INTRA-LIGAND FREE ENERGY PREDICTED BY IDOCK:   -0.30 KCAL/MOL
REMARK 927      BINDING AFFINITY PREDICTED BY RF-SCORE:    0.00 PKD
ROOT
HETATM    1  O   UNL     1     -10.228  10.681  64.474  1.00  0.00    -0.336 OA 
HETATM    2  N   UNL     1     -10.823  11.632  65.009  1.00  0.00    -0.294 N  
HETATM    3  C   UNL     1     -10.909  11.608  66.438  1.00  0.00    -0.287 A  
HETATM    4  O   UNL     1     -11.289  12.614  64.425  1.00  0.00    -0.311 OA 
HETATM    5  N   UNL     1     -11.992  11.945  67.108  1.00  0.00    -0.603 NA 
HETATM    6  C   UNL     1     -11.634  11.829  68.427  1.00  0.00    -0.318 A  
HETATM    7  C   UNL     1     -10.320  11.435  68.546  1.00  0.00    -0.205 A  
HETATM    8  N   UNL     1      -9.866  11.273  67.258  1.00  0.00    -0.181 NA 
ENDROOT
BRANCH   8   9
HETATM    9  C   UNL     1      -8.502  10.938  66.893  1.00  0.00    -0.135 C  
BRANCH   9  10
HETATM   10  C   UNL     1      -7.544  12.081  67.154  1.00  0.00    -0.146 C  
HETATM   11  N   UNL     1      -8.106  13.335  67.127  1.00  0.00    -0.348 N  
HETATM   12  O   UNL     1      -6.352  11.879  67.379  1.00  0.00    -0.097 OA 
HETATM   13  H   UNL     1      -9.105  13.422  66.937  1.00  0.00     0.000 HD 
BRANCH  11  14
HETATM   14  C   UNL     1      -7.332  14.537  67.360  1.00  0.00    -0.157 C  
BRANCH  14  15
HETATM   15  C   UNL     1      -8.172  15.769  67.151  1.00  0.00    -0.237 A  
HETATM   16  C   UNL     1      -9.514  15.790  67.560  1.00  0.00    -0.218 A  
HETATM   17  C   UNL     1     -10.297  16.933  67.375  1.00  0.00    -0.309 A  
HETATM   18  C   UNL     1      -9.750  18.061  66.771  1.00  0.00    -0.323 A  
HETATM   19  C   UNL     1      -8.421  18.051  66.349  1.00  0.00    -0.262 A  
HETATM   20  C   UNL     1      -7.636  16.909  66.535  1.00  0.00    -0.328 A  
ENDBRANCH  14  15
ENDBRANCH  11  14
ENDBRANCH   9  10
ENDBRANCH   8   9
TORSDOF 4
ENDMDL
MODEL      180
REMARK 921   NORMALIZED FREE ENERGY PREDICTED BY IDOCK:   -3.86 KCAL/MOL
REMARK 922        TOTAL FREE ENERGY PREDICTED BY IDOCK:   -5.38 KCAL/MOL
REMARK 923 INTER-LIGAND FREE ENERGY PREDICTED BY IDOCK:   -4.55 KCAL/MOL
REMARK 924 INTRA-LIGAND FREE ENERGY PREDICTED BY IDOCK:   -0.83 KCAL/MOL
REMARK 927      BINDING AFFINITY PREDICTED BY RF-SCORE:    0.00 PKD
ROOT
HETATM    1  O   UNL     1     -11.320   5.970  73.043  1.00  0.00    -0.234 OA 
HETATM    2  N   UNL     1     -10.675   5.100  73.652  1.00  0.00    -0.272 N  
HETATM    3  C   UNL     1      -9.254   5.120  73.480  1.00  0.00    -0.130 A  
HETATM    4  O   UNL     1     -11.144   4.266  74.431  1.00  0.00    -0.210 OA 
HETATM    5  N   UNL     1      -8.523   4.035  73.328  1.00  0.00    -0.089 NA 
HETATM    6  C   UNL     1      -7.233   4.494  73.247  1.00  0.00    -0.079 A  
HETATM    7  C   UNL     1      -7.191   5.865  73.368  1.00  0.00    -0.086 A  
HETATM    8  N   UNL     1      -8.501   6.263  73.495  1.00  0.00    -0.121 NA 
ENDROOT
BRANCH   8   9
HETATM    9  C   UNL     1      -8.937   7.628  73.730  1.00  0.00    -0.261 C  
BRANCH   9  10
HETATM   10  C   UNL     1      -8.949   8.450  72.458  1.00  0.00    -0.238 C  
HETATM   11  N   UNL     1     -10.166   8.533  71.824  1.00  0.00    -0.254 N  
HETATM   12  O   UNL     1      -7.932   9.002  72.043  1.00  0.00    -0.356 OA 
HETATM   13  H   UNL     1     -10.966   8.049  72.232  1.00  0.00     0.000 HD 
BRANCH  11  14
HETATM   14  C   UNL     1     -10.352   9.282  70.598  1.00  0.00    -0.263 C  
BRANCH  14  15
HETATM   15  C   UNL     1     -10.505   8.359  69.419  1.00  0.00    -0.222 A  
HETATM   16  C   UNL     1     -10.950   7.040  69.605  1.00  0.00    -0.268 A  
HETATM   17  C   UNL     1     -11.101   6.180  68.513  1.00  0.00    -0.352 A  
HETATM   18  C   UNL     1     -10.800   6.625  67.229  1.00  0.00    -0.456 A  
HETATM   19  C   UNL     1     -10.348   7.929  67.031  1.00  0.00    -0.411 A  
HETATM   20  C   UNL     1     -10.197   8.791  68.122  1.00  0.00    -0.250 A  
ENDBRANCH  14  15
ENDBRANCH  11  14
ENDBRANCH   9  10
ENDBRANCH   8   9
TORSDOF 4
ENDMDL
MODEL      181
REMARK 921   NORMALIZED FREE ENERGY PREDICTED BY IDOCK:   -3.85 KCAL/MOL
REMARK 922        TOTAL FREE ENERGY PREDICTED BY IDOCK:   -5.37 KCAL/MOL
REMARK 923 INTER-LIGAND FREE ENERGY PREDICTED BY IDOCK:   -4.57 KCAL/MOL
REMARK 924 INTRA-LIGAND FREE ENERGY PREDICTED BY IDOCK:   -0.80 KCAL/MOL
REMARK 927      BINDING AFFINITY PREDICTED BY RF-SCORE:    0.00 PKD
ROOT
HETATM    1  O   UNL     1     -11.037  11.833  65.493  1.00  0.00    -0.305 OA 
HETATM    2  N   UNL     1     -10.109  11.106  65.101  1.00  0.00    -0.264 N  
HETATM    3  C   UNL     1      -9.183  10.659  66.098  1.00  0.00    -0.172 A  
HETATM    4  O   UNL     1      -9.952  10.691  63.949  1.00  0.00    -0.312 OA 
HETATM    5  N   UNL     1      -7.880  10.604  65.909  1.00  0.00    -0.155 NA 
HETATM    6  C   UNL     1      -7.383  10.084  67.077  1.00  0.00    -0.091 A  
HETATM    7  C   UNL     1      -8.399   9.811  67.965  1.00  0.00    -0.110 A  
HETATM    8  N   UNL     1      -9.555  10.206  67.334  1.00  0.00    -0.152 NA 
ENDROOT
BRANCH   8   9
HETATM    9  C   UNL     1     -10.895  10.032  67.867  1.00  0.00    -0.271 C  
BRANCH   9  10
HETATM   10  C   UNL     1     -11.265  11.125  68.848  1.00  0.00    -0.256 C  
HETATM   11  N   UNL     1     -11.444  12.372  68.297  1.00  0.00    -0.286 N  
HETATM   12  O   UNL     1     -11.398  10.891  70.047  1.00  0.00    -0.288 OA 
HETATM   13  H   UNL     1     -11.319  12.487  67.291  1.00  0.00     0.000 HD 
BRANCH  11  14
HETATM   14  C   UNL     1     -11.803  13.527  69.093  1.00  0.00    -0.340 C  
BRANCH  14  15
HETATM   15  C   UNL     1     -11.018  14.740  68.671  1.00  0.00    -0.262 A  
HETATM   16  C   UNL     1     -11.563  16.025  68.823  1.00  0.00    -0.352 A  
HETATM   17  C   UNL     1     -10.836  17.155  68.440  1.00  0.00    -0.309 A  
HETATM   18  C   UNL     1      -9.564  17.013  67.894  1.00  0.00    -0.249 A  
HETATM   19  C   UNL     1      -9.014  15.743  67.727  1.00  0.00    -0.176 A  
HETATM   20  C   UNL     1      -9.740  14.610  68.111  1.00  0.00    -0.220 A  
ENDBRANCH  14  15
ENDBRANCH  11  14
ENDBRANCH   9  10
ENDBRANCH   8   9
TORSDOF 4
ENDMDL
MODEL      182
REMARK 921   NORMALIZED FREE ENERGY PREDICTED BY IDOCK:   -3.85 KCAL/MOL
REMARK 922        TOTAL FREE ENERGY PREDICTED BY IDOCK:   -5.37 KCAL/MOL
REMARK 923 INTER-LIGAND FREE ENERGY PREDICTED BY IDOCK:   -4.89 KCAL/MOL
REMARK 924 INTRA-LIGAND FREE ENERGY PREDICTED BY IDOCK:   -0.48 KCAL/MOL
REMARK 927      BINDING AFFINITY PREDICTED BY RF-SCORE:    0.00 PKD
ROOT
HETATM    1  O   UNL     1      -7.142  10.109  69.560  1.00  0.00    -0.074 OA 
HETATM    2  N   UNL     1      -7.598   9.423  68.630  1.00  0.00    -0.080 N  
HETATM    3  C   UNL     1      -8.328   8.249  68.999  1.00  0.00    -0.120 A  
HETATM    4  O   UNL     1      -7.527   9.696  67.428  1.00  0.00    -0.090 OA 
HETATM    5  N   UNL     1      -8.218   7.094  68.374  1.00  0.00    -0.124 NA 
HETATM    6  C   UNL     1      -9.111   6.269  69.007  1.00  0.00    -0.129 A  
HETATM    7  C   UNL     1      -9.773   6.940  70.011  1.00  0.00    -0.167 A  
HETATM    8  N   UNL     1      -9.246   8.210  70.014  1.00  0.00    -0.154 NA 
ENDROOT
BRANCH   8   9
HETATM    9  C   UNL     1      -9.703   9.299  70.860  1.00  0.00    -0.276 C  
BRANCH   9  10
HETATM   10  C   UNL     1     -10.986   9.920  70.349  1.00  0.00    -0.318 C  
HETATM   11  N   UNL     1     -11.829  10.406  71.319  1.00  0.00    -0.332 N  
HETATM   12  O   UNL     1     -11.232   9.981  69.146  1.00  0.00    -0.216 OA 
HETATM   13  H   UNL     1     -11.553  10.322  72.298  1.00  0.00     0.000 HD 
BRANCH  11  14
HETATM   14  C   UNL     1     -13.095  11.035  71.002  1.00  0.00    -0.167 C  
BRANCH  14  15
HETATM   15  C   UNL     1     -13.007  12.531  71.147  1.00  0.00    -0.237 A  
HETATM   16  C   UNL     1     -12.304  13.294  70.201  1.00  0.00    -0.306 A  
HETATM   17  C   UNL     1     -12.224  14.683  70.325  1.00  0.00    -0.389 A  
HETATM   18  C   UNL     1     -12.837  15.323  71.399  1.00  0.00    -0.485 A  
HETATM   19  C   UNL     1     -13.530  14.577  72.351  1.00  0.00    -0.543 A  
HETATM   20  C   UNL     1     -13.612  13.186  72.228  1.00  0.00    -0.677 A  
ENDBRANCH  14  15
ENDBRANCH  11  14
ENDBRANCH   9  10
ENDBRANCH   8   9
TORSDOF 4
ENDMDL
MODEL      183
REMARK 921   NORMALIZED FREE ENERGY PREDICTED BY IDOCK:   -3.85 KCAL/MOL
REMARK 922        TOTAL FREE ENERGY PREDICTED BY IDOCK:   -5.36 KCAL/MOL
REMARK 923 INTER-LIGAND FREE ENERGY PREDICTED BY IDOCK:   -4.91 KCAL/MOL
REMARK 924 INTRA-LIGAND FREE ENERGY PREDICTED BY IDOCK:   -0.45 KCAL/MOL
REMARK 927      BINDING AFFINITY PREDICTED BY RF-SCORE:    0.00 PKD
ROOT
HETATM    1  O   UNL     1     -12.879  15.934  70.346  1.00  0.00    -0.385 OA 
HETATM    2  N   UNL     1     -12.933  15.331  71.432  1.00  0.00    -0.394 N  
HETATM    3  C   UNL     1     -12.900  13.901  71.371  1.00  0.00    -0.361 A  
HETATM    4  O   UNL     1     -12.951  15.855  72.549  1.00  0.00    -0.446 OA 
HETATM    5  N   UNL     1     -13.653  13.123  72.121  1.00  0.00    -0.542 NA 
HETATM    6  C   UNL     1     -13.277  11.848  71.785  1.00  0.00    -0.321 A  
HETATM    7  C   UNL     1     -12.279  11.864  70.837  1.00  0.00    -0.249 A  
HETATM    8  N   UNL     1     -12.058  13.192  70.559  1.00  0.00    -0.346 NA 
ENDROOT
BRANCH   8   9
HETATM    9  C   UNL     1     -11.028  13.695  69.667  1.00  0.00     0.072 C  
BRANCH   9  10
HETATM   10  C   UNL     1     -11.307  13.349  68.220  1.00  0.00    -0.295 C  
HETATM   11  N   UNL     1     -10.513  12.360  67.690  1.00  0.00    -0.213 N  
HETATM   12  O   UNL     1     -12.192  13.918  67.584  1.00  0.00    -0.345 OA 
HETATM   13  H   UNL     1      -9.801  11.931  68.282  1.00  0.00     0.000 HD 
BRANCH  11  14
HETATM   14  C   UNL     1     -10.650  11.905  66.321  1.00  0.00    -0.253 C  
BRANCH  14  15
HETATM   15  C   UNL     1      -9.573  10.913  65.971  1.00  0.00    -0.248 A  
HETATM   16  C   UNL     1      -8.806  11.082  64.807  1.00  0.00    -0.041 A  
HETATM   17  C   UNL     1      -7.801  10.169  64.480  1.00  0.00    -0.141 A  
HETATM   18  C   UNL     1      -7.558   9.075  65.304  1.00  0.00    -0.098 A  
HETATM   19  C   UNL     1      -8.319   8.889  66.458  1.00  0.00    -0.115 A  
HETATM   20  C   UNL     1      -9.325   9.802  66.788  1.00  0.00    -0.190 A  
ENDBRANCH  14  15
ENDBRANCH  11  14
ENDBRANCH   9  10
ENDBRANCH   8   9
TORSDOF 4
ENDMDL
MODEL      184
REMARK 921   NORMALIZED FREE ENERGY PREDICTED BY IDOCK:   -3.84 KCAL/MOL
REMARK 922        TOTAL FREE ENERGY PREDICTED BY IDOCK:   -5.36 KCAL/MOL
REMARK 923 INTER-LIGAND FREE ENERGY PREDICTED BY IDOCK:   -4.91 KCAL/MOL
REMARK 924 INTRA-LIGAND FREE ENERGY PREDICTED BY IDOCK:   -0.45 KCAL/MOL
REMARK 927      BINDING AFFINITY PREDICTED BY RF-SCORE:    0.00 PKD
ROOT
HETATM    1  O   UNL     1     -14.409  14.864  71.272  1.00  0.00    -0.439 OA 
HETATM    2  N   UNL     1     -13.505  14.145  71.730  1.00  0.00    -0.364 N  
HETATM    3  C   UNL     1     -12.744  13.392  70.780  1.00  0.00    -0.228 A  
HETATM    4  O   UNL     1     -13.171  14.071  72.916  1.00  0.00    -0.530 OA 
HETATM    5  N   UNL     1     -12.370  12.143  70.972  1.00  0.00    -0.313 NA 
HETATM    6  C   UNL     1     -11.634  11.827  69.859  1.00  0.00    -0.274 A  
HETATM    7  C   UNL     1     -11.553  12.902  69.002  1.00  0.00    -0.322 A  
HETATM    8  N   UNL     1     -12.291  13.900  69.593  1.00  0.00    -0.306 NA 
ENDROOT
BRANCH   8   9
HETATM    9  C   UNL     1     -12.423  15.252  69.080  1.00  0.00     0.061 C  
BRANCH   9  10
HETATM   10  C   UNL     1     -11.273  16.139  69.507  1.00  0.00    -0.337 C  
HETATM   11  N   UNL     1     -10.488  16.614  68.484  1.00  0.00    -0.298 N  
HETATM   12  O   UNL     1     -11.077  16.409  70.690  1.00  0.00    -0.323 OA 
HETATM   13  H   UNL     1     -10.716  16.349  67.525  1.00  0.00     0.000 HD 
BRANCH  11  14
HETATM   14  C   UNL     1      -9.349  17.478  68.717  1.00  0.00    -0.239 C  
BRANCH  14  15
HETATM   15  C   UNL     1      -8.068  16.687  68.749  1.00  0.00    -0.247 A  
HETATM   16  C   UNL     1      -6.849  17.299  68.414  1.00  0.00    -0.191 A  
HETATM   17  C   UNL     1      -5.656  16.573  68.449  1.00  0.00    -0.117 A  
HETATM   18  C   UNL     1      -5.669  15.228  68.807  1.00  0.00    -0.089 A  
HETATM   19  C   UNL     1      -6.874  14.605  69.132  1.00  0.00    -0.126 A  
HETATM   20  C   UNL     1      -8.069  15.330  69.099  1.00  0.00    -0.228 A  
ENDBRANCH  14  15
ENDBRANCH  11  14
ENDBRANCH   9  10
ENDBRANCH   8   9
TORSDOF 4
ENDMDL
MODEL      185
REMARK 921   NORMALIZED FREE ENERGY PREDICTED BY IDOCK:   -3.81 KCAL/MOL
REMARK 922        TOTAL FREE ENERGY PREDICTED BY IDOCK:   -5.32 KCAL/MOL
REMARK 923 INTER-LIGAND FREE ENERGY PREDICTED BY IDOCK:   -5.55 KCAL/MOL
REMARK 924 INTRA-LIGAND FREE ENERGY PREDICTED BY IDOCK:    0.23 KCAL/MOL
REMARK 927      BINDING AFFINITY PREDICTED BY RF-SCORE:    0.00 PKD
ROOT
HETATM    1  O   UNL     1      -9.291  17.046  68.713  1.00  0.00    -0.260 OA 
HETATM    2  N   UNL     1     -10.067  17.412  67.813  1.00  0.00    -0.308 N  
HETATM    3  C   UNL     1     -10.438  16.423  66.848  1.00  0.00    -0.289 A  
HETATM    4  O   UNL     1     -10.586  18.528  67.716  1.00  0.00    -0.406 OA 
HETATM    5  N   UNL     1     -10.533  16.665  65.556  1.00  0.00    -0.568 NA 
HETATM    6  C   UNL     1     -10.955  15.479  65.012  1.00  0.00    -0.440 A  
HETATM    7  C   UNL     1     -11.130  14.525  65.988  1.00  0.00    -0.329 A  
HETATM    8  N   UNL     1     -10.773  15.135  67.167  1.00  0.00    -0.303 NA 
ENDROOT
BRANCH   8   9
HETATM    9  C   UNL     1     -10.874  14.528  68.483  1.00  0.00    -0.249 C  
BRANCH   9  10
HETATM   10  C   UNL     1     -11.519  13.159  68.431  1.00  0.00    -0.315 C  
HETATM   11  N   UNL     1     -10.956  12.215  69.257  1.00  0.00    -0.416 N  
HETATM   12  O   UNL     1     -12.481  12.932  67.701  1.00  0.00    -0.098 OA 
HETATM   13  H   UNL     1     -10.161  12.481  69.837  1.00  0.00     0.000 HD 
BRANCH  11  14
HETATM   14  C   UNL     1     -11.453  10.856  69.332  1.00  0.00    -0.302 C  
BRANCH  14  15
HETATM   15  C   UNL     1     -10.623   9.929  68.485  1.00  0.00    -0.248 A  
HETATM   16  C   UNL     1      -9.588   9.178  69.063  1.00  0.00    -0.156 A  
HETATM   17  C   UNL     1      -8.818   8.310  68.284  1.00  0.00    -0.140 A  
HETATM   18  C   UNL     1      -9.067   8.192  66.920  1.00  0.00    -0.185 A  
HETATM   19  C   UNL     1     -10.086   8.940  66.330  1.00  0.00    -0.333 A  
HETATM   20  C   UNL     1     -10.858   9.808  67.109  1.00  0.00    -0.207 A  
ENDBRANCH  14  15
ENDBRANCH  11  14
ENDBRANCH   9  10
ENDBRANCH   8   9
TORSDOF 4
ENDMDL
MODEL      186
REMARK 921   NORMALIZED FREE ENERGY PREDICTED BY IDOCK:   -3.80 KCAL/MOL
REMARK 922        TOTAL FREE ENERGY PREDICTED BY IDOCK:   -5.30 KCAL/MOL
REMARK 923 INTER-LIGAND FREE ENERGY PREDICTED BY IDOCK:   -4.53 KCAL/MOL
REMARK 924 INTRA-LIGAND FREE ENERGY PREDICTED BY IDOCK:   -0.77 KCAL/MOL
REMARK 927      BINDING AFFINITY PREDICTED BY RF-SCORE:    0.00 PKD
ROOT
HETATM    1  O   UNL     1     -11.427   5.935  72.508  1.00  0.00    -0.290 OA 
HETATM    2  N   UNL     1     -11.187   4.889  73.134  1.00  0.00    -0.317 N  
HETATM    3  C   UNL     1      -9.819   4.654  73.485  1.00  0.00    -0.140 A  
HETATM    4  O   UNL     1     -12.026   4.073  73.527  1.00  0.00    -0.025 OA 
HETATM    5  N   UNL     1      -9.239   3.474  73.404  1.00  0.00    -0.100 NA 
HETATM    6  C   UNL     1      -7.967   3.680  73.873  1.00  0.00    -0.075 A  
HETATM    7  C   UNL     1      -7.790   4.992  74.253  1.00  0.00    -0.097 A  
HETATM    8  N   UNL     1      -8.983   5.618  73.978  1.00  0.00    -0.123 NA 
ENDROOT
BRANCH   8   9
HETATM    9  C   UNL     1      -9.287   7.003  74.292  1.00  0.00    -0.227 C  
BRANCH   9  10
HETATM   10  C   UNL     1      -8.699   7.960  73.276  1.00  0.00    -0.236 C  
HETATM   11  N   UNL     1      -9.381   8.043  72.085  1.00  0.00    -0.171 N  
HETATM   12  O   UNL     1      -7.688   8.614  73.523  1.00  0.00    -0.389 OA 
HETATM   13  H   UNL     1     -10.216   7.471  71.956  1.00  0.00     0.000 HD 
BRANCH  11  14
HETATM   14  C   UNL     1      -8.956   8.913  71.008  1.00  0.00    -0.241 C  
BRANCH  14  15
HETATM   15  C   UNL     1     -10.115   9.706  70.464  1.00  0.00    -0.338 A  
HETATM   16  C   UNL     1      -9.970  10.455  69.285  1.00  0.00    -0.246 A  
HETATM   17  C   UNL     1     -11.043  11.186  68.772  1.00  0.00    -0.291 A  
HETATM   18  C   UNL     1     -12.268  11.186  69.434  1.00  0.00    -0.329 A  
HETATM   19  C   UNL     1     -12.423  10.455  70.611  1.00  0.00    -0.437 A  
HETATM   20  C   UNL     1     -11.350   9.721  71.126  1.00  0.00    -0.459 A  
ENDBRANCH  14  15
ENDBRANCH  11  14
ENDBRANCH   9  10
ENDBRANCH   8   9
TORSDOF 4
ENDMDL
MODEL      187
REMARK 921   NORMALIZED FREE ENERGY PREDICTED BY IDOCK:   -3.76 KCAL/MOL
REMARK 922        TOTAL FREE ENERGY PREDICTED BY IDOCK:   -5.26 KCAL/MOL
REMARK 923 INTER-LIGAND FREE ENERGY PREDICTED BY IDOCK:   -5.07 KCAL/MOL
REMARK 924 INTRA-LIGAND FREE ENERGY PREDICTED BY IDOCK:   -0.20 KCAL/MOL
REMARK 927      BINDING AFFINITY PREDICTED BY RF-SCORE:    0.00 PKD
ROOT
HETATM    1  O   UNL     1     -13.335   7.690  71.176  1.00  0.00    -0.243 OA 
HETATM    2  N   UNL     1     -12.671   8.297  72.033  1.00  0.00    -0.334 N  
HETATM    3  C   UNL     1     -11.275   7.987  72.098  1.00  0.00    -0.319 A  
HETATM    4  O   UNL     1     -13.097   9.177  72.787  1.00  0.00    -0.370 OA 
HETATM    5  N   UNL     1     -10.612   7.846  73.228  1.00  0.00    -0.284 NA 
HETATM    6  C   UNL     1      -9.318   7.607  72.842  1.00  0.00    -0.198 A  
HETATM    7  C   UNL     1      -9.203   7.622  71.470  1.00  0.00    -0.135 A  
HETATM    8  N   UNL     1     -10.475   7.845  70.998  1.00  0.00    -0.203 NA 
ENDROOT
BRANCH   8   9
HETATM    9  C   UNL     1     -10.824   8.019  69.599  1.00  0.00    -0.169 C  
BRANCH   9  10
HETATM   10  C   UNL     1     -10.419   9.381  69.075  1.00  0.00    -0.217 C  
HETATM   11  N   UNL     1     -11.070   9.789  67.935  1.00  0.00    -0.504 N  
HETATM   12  O   UNL     1      -9.570  10.061  69.648  1.00  0.00    -0.214 OA 
HETATM   13  H   UNL     1     -11.766   9.170  67.519  1.00  0.00     0.000 HD 
BRANCH  11  14
HETATM   14  C   UNL     1     -10.805  11.066  67.305  1.00  0.00    -0.281 C  
BRANCH  14  15
HETATM   15  C   UNL     1     -10.066  10.883  66.005  1.00  0.00    -0.303 A  
HETATM   16  C   UNL     1      -8.790  10.297  65.992  1.00  0.00    -0.166 A  
HETATM   17  C   UNL     1      -8.102  10.119  64.790  1.00  0.00    -0.153 A  
HETATM   18  C   UNL     1      -8.676  10.533  63.591  1.00  0.00    -0.184 A  
HETATM   19  C   UNL     1      -9.937  11.126  63.590  1.00  0.00    -0.411 A  
HETATM   20  C   UNL     1     -10.628  11.305  64.793  1.00  0.00    -0.376 A  
ENDBRANCH  14  15
ENDBRANCH  11  14
ENDBRANCH   9  10
ENDBRANCH   8   9
TORSDOF 4
ENDMDL
MODEL      188
REMARK 921   NORMALIZED FREE ENERGY PREDICTED BY IDOCK:   -3.75 KCAL/MOL
REMARK 922        TOTAL FREE ENERGY PREDICTED BY IDOCK:   -5.24 KCAL/MOL
REMARK 923 INTER-LIGAND FREE ENERGY PREDICTED BY IDOCK:   -4.70 KCAL/MOL
REMARK 924 INTRA-LIGAND FREE ENERGY PREDICTED BY IDOCK:   -0.54 KCAL/MOL
REMARK 927      BINDING AFFINITY PREDICTED BY RF-SCORE:    0.00 PKD
ROOT
HETATM    1  O   UNL     1     -13.752   7.133  71.487  1.00  0.00    -0.377 OA 
HETATM    2  N   UNL     1     -13.090   8.184  71.502  1.00  0.00    -0.311 N  
HETATM    3  C   UNL     1     -11.674   8.046  71.658  1.00  0.00    -0.283 A  
HETATM    4  O   UNL     1     -13.537   9.323  71.335  1.00  0.00    -0.365 OA 
HETATM    5  N   UNL     1     -10.944   8.835  72.420  1.00  0.00    -0.259 NA 
HETATM    6  C   UNL     1      -9.658   8.392  72.247  1.00  0.00    -0.304 A  
HETATM    7  C   UNL     1      -9.616   7.339  71.361  1.00  0.00    -0.160 A  
HETATM    8  N   UNL     1     -10.923   7.108  71.003  1.00  0.00    -0.247 NA 
ENDROOT
BRANCH   8   9
HETATM    9  C   UNL     1     -11.356   6.133  70.017  1.00  0.00    -0.373 C  
BRANCH   9  10
HETATM   10  C   UNL     1     -10.614   6.280  68.705  1.00  0.00    -0.262 C  
HETATM   11  N   UNL     1     -10.929   7.402  67.976  1.00  0.00    -0.473 N  
HETATM   12  O   UNL     1      -9.788   5.446  68.340  1.00  0.00    -0.132 OA 
HETATM   13  H   UNL     1     -11.623   8.051  68.348  1.00  0.00     0.000 HD 
BRANCH  11  14
HETATM   14  C   UNL     1     -10.309   7.697  66.701  1.00  0.00    -0.187 C  
BRANCH  14  15
HETATM   15  C   UNL     1      -9.332   8.836  66.825  1.00  0.00    -0.229 A  
HETATM   16  C   UNL     1      -9.172   9.750  65.772  1.00  0.00    -0.242 A  
HETATM   17  C   UNL     1      -8.272  10.813  65.884  1.00  0.00    -0.155 A  
HETATM   18  C   UNL     1      -7.517  10.967  67.043  1.00  0.00    -0.127 A  
HETATM   19  C   UNL     1      -7.657  10.061  68.092  1.00  0.00    -0.084 A  
HETATM   20  C   UNL     1      -8.558   8.997  67.983  1.00  0.00    -0.129 A  
ENDBRANCH  14  15
ENDBRANCH  11  14
ENDBRANCH   9  10
ENDBRANCH   8   9
TORSDOF 4
ENDMDL
MODEL      189
REMARK 921   NORMALIZED FREE ENERGY PREDICTED BY IDOCK:   -3.73 KCAL/MOL
REMARK 922        TOTAL FREE ENERGY PREDICTED BY IDOCK:   -5.22 KCAL/MOL
REMARK 923 INTER-LIGAND FREE ENERGY PREDICTED BY IDOCK:   -4.98 KCAL/MOL
REMARK 924 INTRA-LIGAND FREE ENERGY PREDICTED BY IDOCK:   -0.24 KCAL/MOL
REMARK 927      BINDING AFFINITY PREDICTED BY RF-SCORE:    0.00 PKD
ROOT
HETATM    1  O   UNL     1      -9.492   8.636  66.976  1.00  0.00    -0.153 OA 
HETATM    2  N   UNL     1      -9.012   9.384  66.109  1.00  0.00    -0.153 N  
HETATM    3  C   UNL     1      -9.916  10.302  65.484  1.00  0.00    -0.296 A  
HETATM    4  O   UNL     1      -7.822   9.445  65.785  1.00  0.00    -0.097 OA 
HETATM    5  N   UNL     1      -9.907  10.569  64.194  1.00  0.00    -0.329 NA 
HETATM    6  C   UNL     1     -10.884  11.518  64.030  1.00  0.00    -0.387 A  
HETATM    7  C   UNL     1     -11.471  11.832  65.235  1.00  0.00    -0.186 A  
HETATM    8  N   UNL     1     -10.856  11.027  66.165  1.00  0.00    -0.197 NA 
ENDROOT
BRANCH   8   9
HETATM    9  C   UNL     1     -11.101  11.071  67.595  1.00  0.00    -0.300 C  
BRANCH   9  10
HETATM   10  C   UNL     1     -10.552  12.332  68.230  1.00  0.00    -0.227 C  
HETATM   11  N   UNL     1     -11.487  13.296  68.522  1.00  0.00    -0.288 N  
HETATM   12  O   UNL     1      -9.352  12.460  68.465  1.00  0.00    -0.178 OA 
HETATM   13  H   UNL     1     -12.466  13.115  68.300  1.00  0.00     0.000 HD 
BRANCH  11  14
HETATM   14  C   UNL     1     -11.132  14.560  69.134  1.00  0.00    -0.263 C  
BRANCH  14  15
HETATM   15  C   UNL     1     -10.706  15.563  68.095  1.00  0.00    -0.282 A  
HETATM   16  C   UNL     1     -10.539  16.913  68.441  1.00  0.00    -0.365 A  
HETATM   17  C   UNL     1     -10.137  17.848  67.483  1.00  0.00    -0.343 A  
HETATM   18  C   UNL     1      -9.908  17.446  66.171  1.00  0.00    -0.260 A  
HETATM   19  C   UNL     1     -10.081  16.110  65.811  1.00  0.00    -0.390 A  
HETATM   20  C   UNL     1     -10.482  15.173  66.768  1.00  0.00    -0.283 A  
ENDBRANCH  14  15
ENDBRANCH  11  14
ENDBRANCH   9  10
ENDBRANCH   8   9
TORSDOF 4
ENDMDL
MODEL      190
REMARK 921   NORMALIZED FREE ENERGY PREDICTED BY IDOCK:   -3.72 KCAL/MOL
REMARK 922        TOTAL FREE ENERGY PREDICTED BY IDOCK:   -5.21 KCAL/MOL
REMARK 923 INTER-LIGAND FREE ENERGY PREDICTED BY IDOCK:   -4.78 KCAL/MOL
REMARK 924 INTRA-LIGAND FREE ENERGY PREDICTED BY IDOCK:   -0.43 KCAL/MOL
REMARK 927      BINDING AFFINITY PREDICTED BY RF-SCORE:    0.00 PKD
ROOT
HETATM    1  O   UNL     1     -11.492  12.204  67.806  1.00  0.00    -0.287 OA 
HETATM    2  N   UNL     1     -10.714  11.292  67.480  1.00  0.00    -0.217 N  
HETATM    3  C   UNL     1      -9.921  10.724  68.527  1.00  0.00    -0.178 A  
HETATM    4  O   UNL     1     -10.611  10.797  66.353  1.00  0.00    -0.246 OA 
HETATM    5  N   UNL     1      -8.649  10.407  68.389  1.00  0.00    -0.123 NA 
HETATM    6  C   UNL     1      -8.295   9.859  69.594  1.00  0.00    -0.172 A  
HETATM    7  C   UNL     1      -9.368   9.833  70.457  1.00  0.00    -0.054 A  
HETATM    8  N   UNL     1     -10.407  10.413  69.768  1.00  0.00    -0.233 NA 
ENDROOT
BRANCH   8   9
HETATM    9  C   UNL     1     -11.768  10.531  70.260  1.00  0.00    -0.332 C  
BRANCH   9  10
HETATM   10  C   UNL     1     -12.147   9.381  71.170  1.00  0.00    -0.328 C  
HETATM   11  N   UNL     1     -12.261   8.158  70.554  1.00  0.00    -0.469 N  
HETATM   12  O   UNL     1     -12.328   9.551  72.374  1.00  0.00    -0.241 OA 
HETATM   13  H   UNL     1     -12.091   8.096  69.550  1.00  0.00     0.000 HD 
BRANCH  11  14
HETATM   14  C   UNL     1     -12.612   6.954  71.279  1.00  0.00    -0.345 C  
BRANCH  14  15
HETATM   15  C   UNL     1     -11.390   6.126  71.575  1.00  0.00    -0.340 A  
HETATM   16  C   UNL     1     -10.622   5.597  70.526  1.00  0.00    -0.354 A  
HETATM   17  C   UNL     1      -9.483   4.834  70.794  1.00  0.00    -0.228 A  
HETATM   18  C   UNL     1      -9.107   4.582  72.110  1.00  0.00    -0.153 A  
HETATM   19  C   UNL     1      -9.867   5.091  73.162  1.00  0.00    -0.175 A  
HETATM   20  C   UNL     1     -11.006   5.857  72.896  1.00  0.00    -0.303 A  
ENDBRANCH  14  15
ENDBRANCH  11  14
ENDBRANCH   9  10
ENDBRANCH   8   9
TORSDOF 4
ENDMDL
MODEL      191
REMARK 921   NORMALIZED FREE ENERGY PREDICTED BY IDOCK:   -3.69 KCAL/MOL
REMARK 922        TOTAL FREE ENERGY PREDICTED BY IDOCK:   -5.17 KCAL/MOL
REMARK 923 INTER-LIGAND FREE ENERGY PREDICTED BY IDOCK:   -4.64 KCAL/MOL
REMARK 924 INTRA-LIGAND FREE ENERGY PREDICTED BY IDOCK:   -0.53 KCAL/MOL
REMARK 927      BINDING AFFINITY PREDICTED BY RF-SCORE:    0.00 PKD
ROOT
HETATM    1  O   UNL     1      -8.392  14.375  67.162  1.00  0.00    -0.201 OA 
HETATM    2  N   UNL     1      -9.524  14.361  67.673  1.00  0.00    -0.210 N  
HETATM    3  C   UNL     1     -10.599  13.925  66.834  1.00  0.00    -0.280 A  
HETATM    4  O   UNL     1      -9.790  14.631  68.848  1.00  0.00    -0.223 OA 
HETATM    5  N   UNL     1     -11.785  14.499  66.812  1.00  0.00    -0.383 NA 
HETATM    6  C   UNL     1     -12.515  13.752  65.924  1.00  0.00    -0.468 A  
HETATM    7  C   UNL     1     -11.764  12.712  65.423  1.00  0.00    -0.387 A  
HETATM    8  N   UNL     1     -10.522  12.845  65.998  1.00  0.00    -0.272 NA 
ENDROOT
BRANCH   8   9
HETATM    9  C   UNL     1      -9.420  11.916  65.821  1.00  0.00    -0.196 C  
BRANCH   9  10
HETATM   10  C   UNL     1      -9.377  10.866  66.912  1.00  0.00    -0.168 C  
HETATM   11  N   UNL     1     -10.244   9.813  66.745  1.00  0.00    -0.232 N  
HETATM   12  O   UNL     1      -8.608  10.965  67.866  1.00  0.00    -0.126 OA 
HETATM   13  H   UNL     1     -10.849   9.799  65.924  1.00  0.00     0.000 HD 
BRANCH  11  14
HETATM   14  C   UNL     1     -10.328   8.721  67.693  1.00  0.00    -0.254 C  
BRANCH  14  15
HETATM   15  C   UNL     1     -10.162   7.392  67.004  1.00  0.00    -0.357 A  
HETATM   16  C   UNL     1     -11.144   6.397  67.138  1.00  0.00    -0.422 A  
HETATM   17  C   UNL     1     -10.999   5.165  66.496  1.00  0.00     0.028 A  
HETATM   18  C   UNL     1      -9.870   4.911  65.723  1.00  0.00    -0.186 A  
HETATM   19  C   UNL     1      -8.882   5.886  65.589  1.00  0.00    -0.126 A  
HETATM   20  C   UNL     1      -9.026   7.120  66.231  1.00  0.00    -0.181 A  
ENDBRANCH  14  15
ENDBRANCH  11  14
ENDBRANCH   9  10
ENDBRANCH   8   9
TORSDOF 4
ENDMDL
MODEL      192
REMARK 921   NORMALIZED FREE ENERGY PREDICTED BY IDOCK:   -3.69 KCAL/MOL
REMARK 922        TOTAL FREE ENERGY PREDICTED BY IDOCK:   -5.17 KCAL/MOL
REMARK 923 INTER-LIGAND FREE ENERGY PREDICTED BY IDOCK:   -4.70 KCAL/MOL
REMARK 924 INTRA-LIGAND FREE ENERGY PREDICTED BY IDOCK:   -0.47 KCAL/MOL
REMARK 927      BINDING AFFINITY PREDICTED BY RF-SCORE:    0.00 PKD
ROOT
HETATM    1  O   UNL     1     -10.099  10.013  65.938  1.00  0.00    -0.264 OA 
HETATM    2  N   UNL     1     -10.656  11.000  66.446  1.00  0.00    -0.262 N  
HETATM    3  C   UNL     1     -11.016  10.891  67.827  1.00  0.00    -0.283 A  
HETATM    4  O   UNL     1     -10.870  12.078  65.884  1.00  0.00    -0.268 OA 
HETATM    5  N   UNL     1     -12.153  11.334  68.322  1.00  0.00    -0.623 NA 
HETATM    6  C   UNL     1     -12.072  11.077  69.666  1.00  0.00    -0.340 A  
HETATM    7  C   UNL     1     -10.868  10.488  69.981  1.00  0.00    -0.259 A  
HETATM    8  N   UNL     1     -10.202  10.351  68.786  1.00  0.00    -0.177 NA 
ENDROOT
BRANCH   8   9
HETATM    9  C   UNL     1      -8.847   9.847  68.641  1.00  0.00    -0.128 C  
BRANCH   9  10
HETATM   10  C   UNL     1      -7.809  10.902  68.957  1.00  0.00    -0.138 C  
HETATM   11  N   UNL     1      -8.106  12.169  68.513  1.00  0.00    -0.242 N  
HETATM   12  O   UNL     1      -6.782  10.625  69.575  1.00  0.00    -0.073 OA 
HETATM   13  H   UNL     1      -8.980  12.321  68.010  1.00  0.00     0.000 HD 
BRANCH  11  14
HETATM   14  C   UNL     1      -7.222  13.295  68.735  1.00  0.00    -0.088 C  
BRANCH  14  15
HETATM   15  C   UNL     1      -7.604  14.461  67.862  1.00  0.00    -0.158 A  
HETATM   16  C   UNL     1      -6.704  15.521  67.663  1.00  0.00    -0.205 A  
HETATM   17  C   UNL     1      -7.050  16.602  66.848  1.00  0.00    -0.264 A  
HETATM   18  C   UNL     1      -8.298  16.642  66.234  1.00  0.00    -0.360 A  
HETATM   19  C   UNL     1      -9.205  15.601  66.432  1.00  0.00    -0.346 A  
HETATM   20  C   UNL     1      -8.861  14.517  67.246  1.00  0.00    -0.221 A  
ENDBRANCH  14  15
ENDBRANCH  11  14
ENDBRANCH   9  10
ENDBRANCH   8   9
TORSDOF 4
ENDMDL
MODEL      193
REMARK 921   NORMALIZED FREE ENERGY PREDICTED BY IDOCK:   -3.68 KCAL/MOL
REMARK 922        TOTAL FREE ENERGY PREDICTED BY IDOCK:   -5.16 KCAL/MOL
REMARK 923 INTER-LIGAND FREE ENERGY PREDICTED BY IDOCK:   -4.59 KCAL/MOL
REMARK 924 INTRA-LIGAND FREE ENERGY PREDICTED BY IDOCK:   -0.57 KCAL/MOL
REMARK 927      BINDING AFFINITY PREDICTED BY RF-SCORE:    0.00 PKD
ROOT
HETATM    1  O   UNL     1      -8.478  16.098  65.814  1.00  0.00    -0.202 OA 
HETATM    2  N   UNL     1      -8.141  15.581  66.892  1.00  0.00    -0.243 N  
HETATM    3  C   UNL     1      -9.165  15.446  67.884  1.00  0.00    -0.180 A  
HETATM    4  O   UNL     1      -7.026  15.124  67.157  1.00  0.00    -0.229 OA 
HETATM    5  N   UNL     1      -8.974  15.684  69.166  1.00  0.00    -0.241 NA 
HETATM    6  C   UNL     1     -10.176  15.391  69.756  1.00  0.00    -0.268 A  
HETATM    7  C   UNL     1     -11.090  14.959  68.821  1.00  0.00    -0.264 A  
HETATM    8  N   UNL     1     -10.436  15.019  67.613  1.00  0.00    -0.244 NA 
ENDROOT
BRANCH   8   9
HETATM    9  C   UNL     1     -10.990  14.578  66.345  1.00  0.00    -0.324 C  
BRANCH   9  10
HETATM   10  C   UNL     1     -11.027  13.068  66.232  1.00  0.00    -0.284 C  
HETATM   11  N   UNL     1      -9.806  12.443  66.323  1.00  0.00    -0.243 N  
HETATM   12  O   UNL     1     -12.086  12.464  66.079  1.00  0.00    -0.600 OA 
HETATM   13  H   UNL     1      -8.970  13.014  66.454  1.00  0.00     0.000 HD 
BRANCH  11  14
HETATM   14  C   UNL     1      -9.663  11.004  66.239  1.00  0.00    -0.207 C  
BRANCH  14  15
HETATM   15  C   UNL     1      -9.791  10.368  67.598  1.00  0.00    -0.197 A  
HETATM   16  C   UNL     1      -8.681  10.301  68.455  1.00  0.00    -0.130 A  
HETATM   17  C   UNL     1      -8.794   9.718  69.720  1.00  0.00    -0.241 A  
HETATM   18  C   UNL     1     -10.012   9.190  70.137  1.00  0.00    -0.231 A  
HETATM   19  C   UNL     1     -11.120   9.241  69.293  1.00  0.00    -0.031 A  
HETATM   20  C   UNL     1     -11.009   9.824  68.026  1.00  0.00    -0.236 A  
ENDBRANCH  14  15
ENDBRANCH  11  14
ENDBRANCH   9  10
ENDBRANCH   8   9
TORSDOF 4
ENDMDL
MODEL      194
REMARK 921   NORMALIZED FREE ENERGY PREDICTED BY IDOCK:   -3.68 KCAL/MOL
REMARK 922        TOTAL FREE ENERGY PREDICTED BY IDOCK:   -5.16 KCAL/MOL
REMARK 923 INTER-LIGAND FREE ENERGY PREDICTED BY IDOCK:   -4.52 KCAL/MOL
REMARK 924 INTRA-LIGAND FREE ENERGY PREDICTED BY IDOCK:   -0.64 KCAL/MOL
REMARK 927      BINDING AFFINITY PREDICTED BY RF-SCORE:    0.00 PKD
ROOT
HETATM    1  O   UNL     1      -8.912  10.648  67.488  1.00  0.00    -0.135 OA 
HETATM    2  N   UNL     1      -7.988  11.043  66.758  1.00  0.00    -0.145 N  
HETATM    3  C   UNL     1      -7.904  10.452  65.457  1.00  0.00    -0.152 A  
HETATM    4  O   UNL     1      -7.180  11.935  67.033  1.00  0.00    -0.144 OA 
HETATM    5  N   UNL     1      -6.769  10.098  64.889  1.00  0.00    -0.126 NA 
HETATM    6  C   UNL     1      -7.132   9.629  63.652  1.00  0.00    -0.110 A  
HETATM    7  C   UNL     1      -8.494   9.719  63.473  1.00  0.00    -0.184 A  
HETATM    8  N   UNL     1      -8.987  10.230  64.650  1.00  0.00    -0.193 NA 
ENDROOT
BRANCH   8   9
HETATM    9  C   UNL     1     -10.378  10.572  64.891  1.00  0.00    -0.237 C  
BRANCH   9  10
HETATM   10  C   UNL     1     -10.629  12.060  64.768  1.00  0.00    -0.297 C  
HETATM   11  N   UNL     1     -11.002  12.690  65.931  1.00  0.00    -0.271 N  
HETATM   12  O   UNL     1     -10.495  12.645  63.695  1.00  0.00    -0.414 OA 
HETATM   13  H   UNL     1     -11.089  12.137  66.784  1.00  0.00     0.000 HD 
BRANCH  11  14
HETATM   14  C   UNL     1     -11.277  14.111  65.989  1.00  0.00    -0.319 C  
BRANCH  14  15
HETATM   15  C   UNL     1     -11.108  14.638  67.390  1.00  0.00    -0.331 A  
HETATM   16  C   UNL     1     -12.052  14.329  68.382  1.00  0.00    -0.297 A  
HETATM   17  C   UNL     1     -11.897  14.808  69.685  1.00  0.00    -0.362 A  
HETATM   18  C   UNL     1     -10.804  15.608  70.008  1.00  0.00    -0.340 A  
HETATM   19  C   UNL     1      -9.864  15.930  69.030  1.00  0.00    -0.234 A  
HETATM   20  C   UNL     1     -10.017  15.451  67.726  1.00  0.00    -0.225 A  
ENDBRANCH  14  15
ENDBRANCH  11  14
ENDBRANCH   9  10
ENDBRANCH   8   9
TORSDOF 4
ENDMDL
MODEL      195
REMARK 921   NORMALIZED FREE ENERGY PREDICTED BY IDOCK:   -3.67 KCAL/MOL
REMARK 922        TOTAL FREE ENERGY PREDICTED BY IDOCK:   -5.15 KCAL/MOL
REMARK 923 INTER-LIGAND FREE ENERGY PREDICTED BY IDOCK:   -4.82 KCAL/MOL
REMARK 924 INTRA-LIGAND FREE ENERGY PREDICTED BY IDOCK:   -0.32 KCAL/MOL
REMARK 927      BINDING AFFINITY PREDICTED BY RF-SCORE:    0.00 PKD
ROOT
HETATM    1  O   UNL     1     -12.059  14.178  68.682  1.00  0.00    -0.343 OA 
HETATM    2  N   UNL     1     -11.875  14.084  69.907  1.00  0.00    -0.310 N  
HETATM    3  C   UNL     1     -12.318  12.874  70.531  1.00  0.00    -0.283 A  
HETATM    4  O   UNL     1     -11.295  14.912  70.617  1.00  0.00    -0.265 OA 
HETATM    5  N   UNL     1     -12.926  12.836  71.699  1.00  0.00    -0.352 NA 
HETATM    6  C   UNL     1     -13.129  11.502  71.941  1.00  0.00    -0.387 A  
HETATM    7  C   UNL     1     -12.625  10.734  70.915  1.00  0.00    -0.401 A  
HETATM    8  N   UNL     1     -12.123  11.628  69.999  1.00  0.00    -0.324 NA 
ENDROOT
BRANCH   8   9
HETATM    9  C   UNL     1     -11.417  11.266  68.783  1.00  0.00    -0.293 C  
BRANCH   9  10
HETATM   10  C   UNL     1     -10.457  10.116  69.002  1.00  0.00    -0.219 C  
HETATM   11  N   UNL     1     -10.853   8.912  68.471  1.00  0.00    -0.442 N  
HETATM   12  O   UNL     1      -9.398  10.272  69.608  1.00  0.00    -0.205 OA 
HETATM   13  H   UNL     1     -11.744   8.862  67.978  1.00  0.00     0.000 HD 
BRANCH  11  14
HETATM   14  C   UNL     1     -10.050   7.711  68.588  1.00  0.00    -0.190 C  
BRANCH  14  15
HETATM   15  C   UNL     1      -9.050   7.619  67.466  1.00  0.00    -0.131 A  
HETATM   16  C   UNL     1      -9.266   8.315  66.265  1.00  0.00    -0.258 A  
HETATM   17  C   UNL     1      -8.338   8.239  65.224  1.00  0.00    -0.175 A  
HETATM   18  C   UNL     1      -7.193   7.462  65.365  1.00  0.00    -0.069 A  
HETATM   19  C   UNL     1      -6.970   6.758  66.548  1.00  0.00    -0.063 A  
HETATM   20  C   UNL     1      -7.897   6.832  67.593  1.00  0.00    -0.112 A  
ENDBRANCH  14  15
ENDBRANCH  11  14
ENDBRANCH   9  10
ENDBRANCH   8   9
TORSDOF 4
ENDMDL
MODEL      196
REMARK 921   NORMALIZED FREE ENERGY PREDICTED BY IDOCK:   -3.66 KCAL/MOL
REMARK 922        TOTAL FREE ENERGY PREDICTED BY IDOCK:   -5.14 KCAL/MOL
REMARK 923 INTER-LIGAND FREE ENERGY PREDICTED BY IDOCK:   -4.57 KCAL/MOL
REMARK 924 INTRA-LIGAND FREE ENERGY PREDICTED BY IDOCK:   -0.56 KCAL/MOL
REMARK 927      BINDING AFFINITY PREDICTED BY RF-SCORE:    0.00 PKD
ROOT
HETATM    1  O   UNL     1      -8.982   8.562  72.950  1.00  0.00    -0.300 OA 
HETATM    2  N   UNL     1      -7.986   8.403  72.225  1.00  0.00    -0.132 N  
HETATM    3  C   UNL     1      -7.835   7.114  71.620  1.00  0.00    -0.097 A  
HETATM    4  O   UNL     1      -7.156   9.270  71.936  1.00  0.00    -0.319 OA 
HETATM    5  N   UNL     1      -6.681   6.487  71.519  1.00  0.00    -0.057 NA 
HETATM    6  C   UNL     1      -6.973   5.330  70.844  1.00  0.00    -0.056 A  
HETATM    7  C   UNL     1      -8.311   5.271  70.525  1.00  0.00    -0.112 A  
HETATM    8  N   UNL     1      -8.864   6.415  71.049  1.00  0.00    -0.139 NA 
ENDROOT
BRANCH   8   9
HETATM    9  C   UNL     1     -10.250   6.820  70.886  1.00  0.00    -0.195 C  
BRANCH   9  10
HETATM   10  C   UNL     1     -10.597   7.095  69.438  1.00  0.00    -0.233 C  
HETATM   11  N   UNL     1     -10.068   8.252  68.918  1.00  0.00    -0.194 N  
HETATM   12  O   UNL     1     -11.299   6.321  68.790  1.00  0.00    -0.356 OA 
HETATM   13  H   UNL     1      -9.491   8.842  69.518  1.00  0.00     0.000 HD 
BRANCH  11  14
HETATM   14  C   UNL     1     -10.299   8.663  67.548  1.00  0.00    -0.269 C  
BRANCH  14  15
HETATM   15  C   UNL     1     -10.722  10.107  67.481  1.00  0.00    -0.347 A  
HETATM   16  C   UNL     1     -10.483  10.862  66.322  1.00  0.00    -0.304 A  
HETATM   17  C   UNL     1     -10.880  12.199  66.251  1.00  0.00    -0.317 A  
HETATM   18  C   UNL     1     -11.509  12.799  67.338  1.00  0.00    -0.396 A  
HETATM   19  C   UNL     1     -11.743  12.064  68.499  1.00  0.00    -0.387 A  
HETATM   20  C   UNL     1     -11.348  10.724  68.573  1.00  0.00    -0.360 A  
ENDBRANCH  14  15
ENDBRANCH  11  14
ENDBRANCH   9  10
ENDBRANCH   8   9
TORSDOF 4
ENDMDL
MODEL      197
REMARK 921   NORMALIZED FREE ENERGY PREDICTED BY IDOCK:   -3.65 KCAL/MOL
REMARK 922        TOTAL FREE ENERGY PREDICTED BY IDOCK:   -5.12 KCAL/MOL
REMARK 923 INTER-LIGAND FREE ENERGY PREDICTED BY IDOCK:   -4.63 KCAL/MOL
REMARK 924 INTRA-LIGAND FREE ENERGY PREDICTED BY IDOCK:   -0.49 KCAL/MOL
REMARK 927      BINDING AFFINITY PREDICTED BY RF-SCORE:    0.00 PKD
ROOT
HETATM    1  O   UNL     1     -10.420  16.607  65.270  1.00  0.00    -0.612 OA 
HETATM    2  N   UNL     1     -10.221  16.910  66.458  1.00  0.00    -0.310 N  
HETATM    3  C   UNL     1     -10.673  15.973  67.441  1.00  0.00    -0.306 A  
HETATM    4  O   UNL     1      -9.620  17.911  66.859  1.00  0.00    -0.279 OA 
HETATM    5  N   UNL     1     -11.266  16.323  68.564  1.00  0.00    -0.365 NA 
HETATM    6  C   UNL     1     -11.485  15.141  69.224  1.00  0.00    -0.311 A  
HETATM    7  C   UNL     1     -11.004  14.076  68.496  1.00  0.00    -0.256 A  
HETATM    8  N   UNL     1     -10.502  14.619  67.337  1.00  0.00    -0.253 NA 
ENDROOT
BRANCH   8   9
HETATM    9  C   UNL     1      -9.817  13.872  66.297  1.00  0.00    -0.306 C  
BRANCH   9  10
HETATM   10  C   UNL     1      -8.790  12.915  66.864  1.00  0.00    -0.187 C  
HETATM   11  N   UNL     1      -7.570  13.474  67.164  1.00  0.00    -0.369 N  
HETATM   12  O   UNL     1      -9.052  11.727  67.043  1.00  0.00    -0.176 OA 
HETATM   13  H   UNL     1      -7.430  14.470  66.991  1.00  0.00     0.000 HD 
BRANCH  11  14
HETATM   14  C   UNL     1      -6.478  12.700  67.718  1.00  0.00    -0.128 C  
BRANCH  14  15
HETATM   15  C   UNL     1      -6.062  13.237  69.062  1.00  0.00    -0.088 A  
HETATM   16  C   UNL     1      -5.761  12.356  70.113  1.00  0.00    -0.157 A  
HETATM   17  C   UNL     1      -5.368  12.848  71.361  1.00  0.00    -0.126 A  
HETATM   18  C   UNL     1      -5.281  14.220  71.573  1.00  0.00    -0.165 A  
HETATM   19  C   UNL     1      -5.587  15.106  70.541  1.00  0.00    -0.136 A  
HETATM   20  C   UNL     1      -5.980  14.617  69.291  1.00  0.00    -0.103 A  
ENDBRANCH  14  15
ENDBRANCH  11  14
ENDBRANCH   9  10
ENDBRANCH   8   9
TORSDOF 4
ENDMDL
MODEL      198
REMARK 921   NORMALIZED FREE ENERGY PREDICTED BY IDOCK:   -3.63 KCAL/MOL
REMARK 922        TOTAL FREE ENERGY PREDICTED BY IDOCK:   -5.10 KCAL/MOL
REMARK 923 INTER-LIGAND FREE ENERGY PREDICTED BY IDOCK:   -4.41 KCAL/MOL
REMARK 924 INTRA-LIGAND FREE ENERGY PREDICTED BY IDOCK:   -0.69 KCAL/MOL
REMARK 927      BINDING AFFINITY PREDICTED BY RF-SCORE:    0.00 PKD
ROOT
HETATM    1  O   UNL     1     -10.295   7.286  66.528  1.00  0.00    -0.179 OA 
HETATM    2  N   UNL     1      -9.081   7.548  66.471  1.00  0.00    -0.160 N  
HETATM    3  C   UNL     1      -8.677   8.494  65.476  1.00  0.00    -0.174 A  
HETATM    4  O   UNL     1      -8.211   7.110  67.229  1.00  0.00    -0.116 OA 
HETATM    5  N   UNL     1      -7.592   8.360  64.740  1.00  0.00    -0.096 NA 
HETATM    6  C   UNL     1      -7.557   9.492  63.966  1.00  0.00    -0.122 A  
HETATM    7  C   UNL     1      -8.621  10.317  64.252  1.00  0.00    -0.192 A  
HETATM    8  N   UNL     1      -9.351   9.655  65.211  1.00  0.00    -0.244 NA 
ENDROOT
BRANCH   8   9
HETATM    9  C   UNL     1     -10.528  10.188  65.876  1.00  0.00    -0.071 C  
BRANCH   9  10
HETATM   10  C   UNL     1     -10.236  10.611  67.300  1.00  0.00    -0.208 C  
HETATM   11  N   UNL     1     -10.755   9.790  68.273  1.00  0.00    -0.290 N  
HETATM   12  O   UNL     1      -9.573  11.616  67.547  1.00  0.00    -0.168 OA 
HETATM   13  H   UNL     1     -11.293   8.971  67.990  1.00  0.00     0.000 HD 
BRANCH  11  14
HETATM   14  C   UNL     1     -10.567  10.048  69.686  1.00  0.00    -0.252 C  
BRANCH  14  15
HETATM   15  C   UNL     1     -10.914   8.834  70.508  1.00  0.00    -0.272 A  
HETATM   16  C   UNL     1     -11.142   8.955  71.888  1.00  0.00    -0.442 A  
HETATM   17  C   UNL     1     -11.471   7.834  72.654  1.00  0.00    -0.430 A  
HETATM   18  C   UNL     1     -11.566   6.582  72.053  1.00  0.00    -0.354 A  
HETATM   19  C   UNL     1     -11.332   6.446  70.685  1.00  0.00    -0.419 A  
HETATM   20  C   UNL     1     -11.003   7.567  69.916  1.00  0.00    -0.223 A  
ENDBRANCH  14  15
ENDBRANCH  11  14
ENDBRANCH   9  10
ENDBRANCH   8   9
TORSDOF 4
ENDMDL
MODEL      199
REMARK 921   NORMALIZED FREE ENERGY PREDICTED BY IDOCK:   -3.63 KCAL/MOL
REMARK 922        TOTAL FREE ENERGY PREDICTED BY IDOCK:   -5.10 KCAL/MOL
REMARK 923 INTER-LIGAND FREE ENERGY PREDICTED BY IDOCK:   -4.73 KCAL/MOL
REMARK 924 INTRA-LIGAND FREE ENERGY PREDICTED BY IDOCK:   -0.37 KCAL/MOL
REMARK 927      BINDING AFFINITY PREDICTED BY RF-SCORE:    0.00 PKD
ROOT
HETATM    1  O   UNL     1     -11.384  11.714  69.403  1.00  0.00    -0.251 OA 
HETATM    2  N   UNL     1     -11.158  10.519  69.150  1.00  0.00    -0.233 N  
HETATM    3  C   UNL     1     -10.542  10.236  67.889  1.00  0.00    -0.239 A  
HETATM    4  O   UNL     1     -11.362   9.568  69.911  1.00  0.00    -0.217 OA 
HETATM    5  N   UNL     1     -10.889   9.227  67.118  1.00  0.00    -0.147 NA 
HETATM    6  C   UNL     1     -10.031   9.293  66.051  1.00  0.00    -0.255 A  
HETATM    7  C   UNL     1      -9.151  10.343  66.193  1.00  0.00    -0.160 A  
HETATM    8  N   UNL     1      -9.502  10.960  67.371  1.00  0.00    -0.155 NA 
ENDROOT
BRANCH   8   9
HETATM    9  C   UNL     1      -8.793  12.077  67.969  1.00  0.00    -0.179 C  
BRANCH   9  10
HETATM   10  C   UNL     1      -9.545  13.382  67.810  1.00  0.00    -0.213 C  
HETATM   11  N   UNL     1      -9.710  14.108  68.965  1.00  0.00    -0.411 N  
HETATM   12  O   UNL     1      -9.964  13.750  66.714  1.00  0.00    -0.256 OA 
HETATM   13  H   UNL     1      -9.331  13.738  69.837  1.00  0.00     0.000 HD 
BRANCH  11  14
HETATM   14  C   UNL     1     -10.403  15.380  68.989  1.00  0.00    -0.243 C  
BRANCH  14  15
HETATM   15  C   UNL     1      -9.434  16.526  68.862  1.00  0.00    -0.260 A  
HETATM   16  C   UNL     1      -8.073  16.338  69.151  1.00  0.00    -0.215 A  
HETATM   17  C   UNL     1      -7.168  17.395  69.029  1.00  0.00    -0.224 A  
HETATM   18  C   UNL     1      -7.613  18.651  68.627  1.00  0.00    -0.341 A  
HETATM   19  C   UNL     1      -8.964  18.855  68.347  1.00  0.00    -0.377 A  
HETATM   20  C   UNL     1      -9.872  17.798  68.468  1.00  0.00    -0.355 A  
ENDBRANCH  14  15
ENDBRANCH  11  14
ENDBRANCH   9  10
ENDBRANCH   8   9
TORSDOF 4
ENDMDL
MODEL      200
REMARK 921   NORMALIZED FREE ENERGY PREDICTED BY IDOCK:   -3.63 KCAL/MOL
REMARK 922        TOTAL FREE ENERGY PREDICTED BY IDOCK:   -5.10 KCAL/MOL
REMARK 923 INTER-LIGAND FREE ENERGY PREDICTED BY IDOCK:   -4.62 KCAL/MOL
REMARK 924 INTRA-LIGAND FREE ENERGY PREDICTED BY IDOCK:   -0.48 KCAL/MOL
REMARK 927      BINDING AFFINITY PREDICTED BY RF-SCORE:    0.00 PKD
ROOT
HETATM    1  O   UNL     1     -10.715  10.376  66.096  1.00  0.00    -0.131 OA 
HETATM    2  N   UNL     1     -10.475  10.510  67.308  1.00  0.00    -0.235 N  
HETATM    3  C   UNL     1      -9.420  11.412  67.655  1.00  0.00    -0.162 A  
HETATM    4  O   UNL     1     -11.103   9.983  68.232  1.00  0.00    -0.247 OA 
HETATM    5  N   UNL     1      -8.533  11.169  68.599  1.00  0.00    -0.154 NA 
HETATM    6  C   UNL     1      -7.748  12.292  68.635  1.00  0.00    -0.076 A  
HETATM    7  C   UNL     1      -8.178  13.223  67.716  1.00  0.00    -0.168 A  
HETATM    8  N   UNL     1      -9.243  12.638  67.072  1.00  0.00    -0.206 NA 
ENDROOT
BRANCH   8   9
HETATM    9  C   UNL     1     -10.068  13.288  66.068  1.00  0.00    -0.299 C  
BRANCH   9  10
HETATM   10  C   UNL     1     -10.723  14.547  66.596  1.00  0.00    -0.305 C  
HETATM   11  N   UNL     1     -10.124  15.724  66.214  1.00  0.00    -0.284 N  
HETATM   12  O   UNL     1     -11.723  14.498  67.309  1.00  0.00    -0.380 OA 
HETATM   13  H   UNL     1      -9.297  15.683  65.617  1.00  0.00     0.000 HD 
BRANCH  11  14
HETATM   14  C   UNL     1     -10.625  17.019  66.627  1.00  0.00    -0.182 C  
BRANCH  14  15
HETATM   15  C   UNL     1      -9.569  17.795  67.369  1.00  0.00    -0.264 A  
HETATM   16  C   UNL     1      -8.422  17.146  67.853  1.00  0.00    -0.212 A  
HETATM   17  C   UNL     1      -7.436  17.862  68.536  1.00  0.00    -0.270 A  
HETATM   18  C   UNL     1      -7.589  19.228  68.750  1.00  0.00    -0.393 A  
HETATM   19  C   UNL     1      -8.727  19.884  68.284  1.00  0.00    -0.263 A  
HETATM   20  C   UNL     1      -9.716  19.169  67.599  1.00  0.00    -0.391 A  
ENDBRANCH  14  15
ENDBRANCH  11  14
ENDBRANCH   9  10
ENDBRANCH   8   9
TORSDOF 4
ENDMDL
MODEL      201
REMARK 921   NORMALIZED FREE ENERGY PREDICTED BY IDOCK:   -3.62 KCAL/MOL
REMARK 922        TOTAL FREE ENERGY PREDICTED BY IDOCK:   -5.09 KCAL/MOL
REMARK 923 INTER-LIGAND FREE ENERGY PREDICTED BY IDOCK:   -4.57 KCAL/MOL
REMARK 924 INTRA-LIGAND FREE ENERGY PREDICTED BY IDOCK:   -0.52 KCAL/MOL
REMARK 927      BINDING AFFINITY PREDICTED BY RF-SCORE:    0.00 PKD
ROOT
HETATM    1  O   UNL     1      -9.979   4.138  69.938  1.00  0.00    -0.209 OA 
HETATM    2  N   UNL     1      -9.658   3.573  68.879  1.00  0.00    -0.135 N  
HETATM    3  C   UNL     1      -9.424   4.418  67.748  1.00  0.00    -0.163 A  
HETATM    4  O   UNL     1      -9.468   2.361  68.735  1.00  0.00    -0.174 OA 
HETATM    5  N   UNL     1      -9.830   4.133  66.528  1.00  0.00    -0.215 NA 
HETATM    6  C   UNL     1      -9.363   5.166  65.756  1.00  0.00    -0.154 A  
HETATM    7  C   UNL     1      -8.658   6.069  66.519  1.00  0.00    -0.124 A  
HETATM    8  N   UNL     1      -8.721   5.591  67.807  1.00  0.00    -0.108 NA 
ENDROOT
BRANCH   8   9
HETATM    9  C   UNL     1      -8.045   6.182  68.948  1.00  0.00    -0.108 C  
BRANCH   9  10
HETATM   10  C   UNL     1      -8.354   7.658  69.092  1.00  0.00    -0.131 C  
HETATM   11  N   UNL     1      -9.629   7.952  69.513  1.00  0.00    -0.160 N  
HETATM   12  O   UNL     1      -7.506   8.515  68.852  1.00  0.00    -0.087 OA 
HETATM   13  H   UNL     1     -10.275   7.184  69.696  1.00  0.00     0.000 HD 
BRANCH  11  14
HETATM   14  C   UNL     1     -10.087   9.313  69.705  1.00  0.00    -0.204 C  
BRANCH  14  15
HETATM   15  C   UNL     1     -11.292   9.354  70.608  1.00  0.00    -0.352 A  
HETATM   16  C   UNL     1     -11.959  10.567  70.842  1.00  0.00    -0.481 A  
HETATM   17  C   UNL     1     -13.082  10.611  71.673  1.00  0.00    -0.555 A  
HETATM   18  C   UNL     1     -13.542   9.449  72.285  1.00  0.00    -0.532 A  
HETATM   19  C   UNL     1     -12.883   8.239  72.069  1.00  0.00    -0.369 A  
HETATM   20  C   UNL     1     -11.759   8.193  71.237  1.00  0.00    -0.310 A  
ENDBRANCH  14  15
ENDBRANCH  11  14
ENDBRANCH   9  10
ENDBRANCH   8   9
TORSDOF 4
ENDMDL
MODEL      202
REMARK 921   NORMALIZED FREE ENERGY PREDICTED BY IDOCK:   -3.61 KCAL/MOL
REMARK 922        TOTAL FREE ENERGY PREDICTED BY IDOCK:   -5.08 KCAL/MOL
REMARK 923 INTER-LIGAND FREE ENERGY PREDICTED BY IDOCK:   -4.57 KCAL/MOL
REMARK 924 INTRA-LIGAND FREE ENERGY PREDICTED BY IDOCK:   -0.51 KCAL/MOL
REMARK 927      BINDING AFFINITY PREDICTED BY RF-SCORE:    0.00 PKD
ROOT
HETATM    1  O   UNL     1      -8.032  10.338  66.920  1.00  0.00    -0.110 OA 
HETATM    2  N   UNL     1      -8.923   9.644  66.403  1.00  0.00    -0.149 N  
HETATM    3  C   UNL     1      -9.406   8.541  67.177  1.00  0.00    -0.152 A  
HETATM    4  O   UNL     1      -9.466   9.858  65.314  1.00  0.00    -0.228 OA 
HETATM    5  N   UNL     1      -9.672   7.355  66.669  1.00  0.00    -0.203 NA 
HETATM    6  C   UNL     1     -10.147   6.623  67.727  1.00  0.00    -0.148 A  
HETATM    7  C   UNL     1     -10.179   7.383  68.875  1.00  0.00    -0.196 A  
HETATM    8  N   UNL     1      -9.678   8.612  68.516  1.00  0.00    -0.159 NA 
ENDROOT
BRANCH   8   9
HETATM    9  C   UNL     1      -9.598   9.766  69.394  1.00  0.00    -0.207 C  
BRANCH   9  10
HETATM   10  C   UNL     1     -10.837  10.633  69.311  1.00  0.00    -0.239 C  
HETATM   11  N   UNL     1     -10.772  11.663  68.403  1.00  0.00    -0.206 N  
HETATM   12  O   UNL     1     -11.823  10.409  70.010  1.00  0.00    -0.267 OA 
HETATM   13  H   UNL     1      -9.920  11.783  67.856  1.00  0.00     0.000 HD 
BRANCH  11  14
HETATM   14  C   UNL     1     -11.871  12.584  68.196  1.00  0.00    -0.317 C  
BRANCH  14  15
HETATM   15  C   UNL     1     -11.696  13.830  69.023  1.00  0.00    -0.372 A  
HETATM   16  C   UNL     1     -11.732  13.760  70.425  1.00  0.00    -0.242 A  
HETATM   17  C   UNL     1     -11.563  14.911  71.198  1.00  0.00    -0.347 A  
HETATM   18  C   UNL     1     -11.366  16.143  70.581  1.00  0.00    -0.394 A  
HETATM   19  C   UNL     1     -11.338  16.229  69.190  1.00  0.00    -0.291 A  
HETATM   20  C   UNL     1     -11.507  15.078  68.413  1.00  0.00    -0.340 A  
ENDBRANCH  14  15
ENDBRANCH  11  14
ENDBRANCH   9  10
ENDBRANCH   8   9
TORSDOF 4
ENDMDL
MODEL      203
REMARK 921   NORMALIZED FREE ENERGY PREDICTED BY IDOCK:   -3.61 KCAL/MOL
REMARK 922        TOTAL FREE ENERGY PREDICTED BY IDOCK:   -5.07 KCAL/MOL
REMARK 923 INTER-LIGAND FREE ENERGY PREDICTED BY IDOCK:   -4.59 KCAL/MOL
REMARK 924 INTRA-LIGAND FREE ENERGY PREDICTED BY IDOCK:   -0.48 KCAL/MOL
REMARK 927      BINDING AFFINITY PREDICTED BY RF-SCORE:    0.00 PKD
ROOT
HETATM    1  O   UNL     1      -8.746   5.631  65.723  1.00  0.00    -0.142 OA 
HETATM    2  N   UNL     1      -8.014   5.823  64.737  1.00  0.00    -0.118 N  
HETATM    3  C   UNL     1      -8.140   7.092  64.086  1.00  0.00    -0.029 A  
HETATM    4  O   UNL     1      -7.155   5.046  64.311  1.00  0.00    -0.048 OA 
HETATM    5  N   UNL     1      -8.135   7.243  62.777  1.00  0.00    -0.112 NA 
HETATM    6  C   UNL     1      -8.229   8.597  62.584  1.00  0.00    -0.194 A  
HETATM    7  C   UNL     1      -8.274   9.263  63.788  1.00  0.00    -0.166 A  
HETATM    8  N   UNL     1      -8.239   8.283  64.752  1.00  0.00    -0.154 NA 
ENDROOT
BRANCH   8   9
HETATM    9  C   UNL     1      -8.187   8.525  66.183  1.00  0.00    -0.115 C  
BRANCH   9  10
HETATM   10  C   UNL     1      -9.446   9.193  66.695  1.00  0.00    -0.185 C  
HETATM   11  N   UNL     1      -9.368  10.558  66.837  1.00  0.00    -0.158 N  
HETATM   12  O   UNL     1     -10.457   8.543  66.952  1.00  0.00    -0.308 OA 
HETATM   13  H   UNL     1      -8.495  11.028  66.600  1.00  0.00     0.000 HD 
BRANCH  11  14
HETATM   14  C   UNL     1     -10.483  11.353  67.312  1.00  0.00    -0.206 C  
BRANCH  14  15
HETATM   15  C   UNL     1     -11.094  12.151  66.191  1.00  0.00    -0.354 A  
HETATM   16  C   UNL     1     -11.960  13.219  66.473  1.00  0.00    -0.448 A  
HETATM   17  C   UNL     1     -12.525  13.968  65.437  1.00  0.00    -0.520 A  
HETATM   18  C   UNL     1     -12.238  13.653  64.112  1.00  0.00    -0.450 A  
HETATM   19  C   UNL     1     -11.387  12.588  63.818  1.00  0.00    -0.534 A  
HETATM   20  C   UNL     1     -10.820  11.838  64.853  1.00  0.00    -0.353 A  
ENDBRANCH  14  15
ENDBRANCH  11  14
ENDBRANCH   9  10
ENDBRANCH   8   9
TORSDOF 4
ENDMDL
MODEL      204
REMARK 921   NORMALIZED FREE ENERGY PREDICTED BY IDOCK:   -3.61 KCAL/MOL
REMARK 922        TOTAL FREE ENERGY PREDICTED BY IDOCK:   -5.07 KCAL/MOL
REMARK 923 INTER-LIGAND FREE ENERGY PREDICTED BY IDOCK:   -4.85 KCAL/MOL
REMARK 924 INTRA-LIGAND FREE ENERGY PREDICTED BY IDOCK:   -0.22 KCAL/MOL
REMARK 927      BINDING AFFINITY PREDICTED BY RF-SCORE:    0.00 PKD
ROOT
HETATM    1  O   UNL     1     -11.020  10.028  71.184  1.00  0.00    -0.302 OA 
HETATM    2  N   UNL     1     -12.203  10.406  71.146  1.00  0.00    -0.368 N  
HETATM    3  C   UNL     1     -12.420  11.811  70.979  1.00  0.00    -0.309 A  
HETATM    4  O   UNL     1     -13.197   9.675  71.180  1.00  0.00    -0.356 OA 
HETATM    5  N   UNL     1     -13.343  12.488  71.631  1.00  0.00    -0.295 NA 
HETATM    6  C   UNL     1     -13.243  13.767  71.145  1.00  0.00    -0.207 A  
HETATM    7  C   UNL     1     -12.262  13.851  70.182  1.00  0.00    -0.358 A  
HETATM    8  N   UNL     1     -11.721  12.590  70.097  1.00  0.00    -0.239 NA 
ENDROOT
BRANCH   8   9
HETATM    9  C   UNL     1     -10.699  12.185  69.148  1.00  0.00    -0.061 C  
BRANCH   9  10
HETATM   10  C   UNL     1     -11.130  10.993  68.319  1.00  0.00    -0.257 C  
HETATM   11  N   UNL     1     -10.348   9.871  68.455  1.00  0.00    -0.187 N  
HETATM   12  O   UNL     1     -12.118  11.045  67.589  1.00  0.00    -0.447 OA 
HETATM   13  H   UNL     1      -9.546   9.904  69.085  1.00  0.00     0.000 HD 
BRANCH  11  14
HETATM   14  C   UNL     1     -10.623   8.643  67.737  1.00  0.00    -0.183 C  
BRANCH  14  15
HETATM   15  C   UNL     1     -10.268   7.440  68.570  1.00  0.00    -0.201 A  
HETATM   16  C   UNL     1      -8.982   6.882  68.497  1.00  0.00    -0.122 A  
HETATM   17  C   UNL     1      -8.644   5.770  69.272  1.00  0.00    -0.111 A  
HETATM   18  C   UNL     1      -9.589   5.198  70.118  1.00  0.00    -0.247 A  
HETATM   19  C   UNL     1     -10.874   5.734  70.193  1.00  0.00    -0.383 A  
HETATM   20  C   UNL     1     -11.213   6.848  69.419  1.00  0.00    -0.215 A  
ENDBRANCH  14  15
ENDBRANCH  11  14
ENDBRANCH   9  10
ENDBRANCH   8   9
TORSDOF 4
ENDMDL
MODEL      205
REMARK 921   NORMALIZED FREE ENERGY PREDICTED BY IDOCK:   -3.58 KCAL/MOL
REMARK 922        TOTAL FREE ENERGY PREDICTED BY IDOCK:   -5.04 KCAL/MOL
REMARK 923 INTER-LIGAND FREE ENERGY PREDICTED BY IDOCK:   -4.75 KCAL/MOL
REMARK 924 INTRA-LIGAND FREE ENERGY PREDICTED BY IDOCK:   -0.28 KCAL/MOL
REMARK 927      BINDING AFFINITY PREDICTED BY RF-SCORE:    0.00 PKD
ROOT
HETATM    1  O   UNL     1     -10.452  18.562  67.954  1.00  0.00    -0.386 OA 
HETATM    2  N   UNL     1      -9.976  18.200  66.866  1.00  0.00    -0.324 N  
HETATM    3  C   UNL     1      -8.660  17.638  66.899  1.00  0.00    -0.242 A  
HETATM    4  O   UNL     1     -10.557  18.228  65.777  1.00  0.00    -0.554 OA 
HETATM    5  N   UNL     1      -7.732  17.902  66.002  1.00  0.00    -0.497 NA 
HETATM    6  C   UNL     1      -6.660  17.133  66.375  1.00  0.00    -0.216 A  
HETATM    7  C   UNL     1      -6.955  16.390  67.496  1.00  0.00    -0.148 A  
HETATM    8  N   UNL     1      -8.239  16.739  67.841  1.00  0.00    -0.184 NA 
ENDROOT
BRANCH   8   9
HETATM    9  C   UNL     1      -9.002  16.142  68.923  1.00  0.00    -0.247 C  
BRANCH   9  10
HETATM   10  C   UNL     1      -9.896  15.019  68.441  1.00  0.00    -0.222 C  
HETATM   11  N   UNL     1      -9.511  14.430  67.260  1.00  0.00    -0.209 N  
HETATM   12  O   UNL     1     -10.886  14.670  69.080  1.00  0.00    -0.230 OA 
HETATM   13  H   UNL     1      -8.674  14.773  66.789  1.00  0.00     0.000 HD 
BRANCH  11  14
HETATM   14  C   UNL     1     -10.252  13.339  66.661  1.00  0.00    -0.265 C  
BRANCH  14  15
HETATM   15  C   UNL     1      -9.786  12.011  67.195  1.00  0.00    -0.203 A  
HETATM   16  C   UNL     1     -10.583  11.293  68.100  1.00  0.00    -0.225 A  
HETATM   17  C   UNL     1     -10.159  10.056  68.594  1.00  0.00    -0.187 A  
HETATM   18  C   UNL     1      -8.933   9.530  68.197  1.00  0.00    -0.123 A  
HETATM   19  C   UNL     1      -8.127  10.238  67.306  1.00  0.00    -0.120 A  
HETATM   20  C   UNL     1      -8.549  11.475  66.810  1.00  0.00    -0.170 A  
ENDBRANCH  14  15
ENDBRANCH  11  14
ENDBRANCH   9  10
ENDBRANCH   8   9
TORSDOF 4
ENDMDL
MODEL      206
REMARK 921   NORMALIZED FREE ENERGY PREDICTED BY IDOCK:   -3.58 KCAL/MOL
REMARK 922        TOTAL FREE ENERGY PREDICTED BY IDOCK:   -5.03 KCAL/MOL
REMARK 923 INTER-LIGAND FREE ENERGY PREDICTED BY IDOCK:   -4.45 KCAL/MOL
REMARK 924 INTRA-LIGAND FREE ENERGY PREDICTED BY IDOCK:   -0.58 KCAL/MOL
REMARK 927      BINDING AFFINITY PREDICTED BY RF-SCORE:    0.00 PKD
ROOT
HETATM    1  O   UNL     1      -7.530  12.638  68.756  1.00  0.00    -0.106 OA 
HETATM    2  N   UNL     1      -6.934  12.872  67.691  1.00  0.00    -0.138 N  
HETATM    3  C   UNL     1      -6.565  11.737  66.901  1.00  0.00    -0.114 A  
HETATM    4  O   UNL     1      -6.689  13.991  67.232  1.00  0.00    -0.244 OA 
HETATM    5  N   UNL     1      -5.408  11.625  66.282  1.00  0.00    -0.309 NA 
HETATM    6  C   UNL     1      -5.485  10.430  65.615  1.00  0.00    -0.093 A  
HETATM    7  C   UNL     1      -6.706   9.828  65.825  1.00  0.00    -0.093 A  
HETATM    8  N   UNL     1      -7.388  10.667  66.674  1.00  0.00    -0.122 NA 
ENDROOT
BRANCH   8   9
HETATM    9  C   UNL     1      -8.760  10.475  67.110  1.00  0.00    -0.130 C  
BRANCH   9  10
HETATM   10  C   UNL     1      -9.726  11.374  66.367  1.00  0.00    -0.204 C  
HETATM   11  N   UNL     1     -10.657  12.010  67.152  1.00  0.00    -0.219 N  
HETATM   12  O   UNL     1      -9.658  11.516  65.147  1.00  0.00    -0.233 OA 
HETATM   13  H   UNL     1     -10.647  11.844  68.159  1.00  0.00     0.000 HD 
BRANCH  11  14
HETATM   14  C   UNL     1     -11.652  12.908  66.602  1.00  0.00    -0.372 C  
BRANCH  14  15
HETATM   15  C   UNL     1     -11.196  14.341  66.693  1.00  0.00    -0.337 A  
HETATM   16  C   UNL     1     -10.646  14.981  65.571  1.00  0.00    -0.380 A  
HETATM   17  C   UNL     1     -10.228  16.312  65.647  1.00  0.00    -0.368 A  
HETATM   18  C   UNL     1     -10.345  17.013  66.844  1.00  0.00    -0.303 A  
HETATM   19  C   UNL     1     -10.881  16.386  67.968  1.00  0.00    -0.342 A  
HETATM   20  C   UNL     1     -11.300  15.054  67.895  1.00  0.00    -0.344 A  
ENDBRANCH  14  15
ENDBRANCH  11  14
ENDBRANCH   9  10
ENDBRANCH   8   9
TORSDOF 4
ENDMDL
MODEL      207
REMARK 921   NORMALIZED FREE ENERGY PREDICTED BY IDOCK:   -3.56 KCAL/MOL
REMARK 922        TOTAL FREE ENERGY PREDICTED BY IDOCK:   -5.01 KCAL/MOL
REMARK 923 INTER-LIGAND FREE ENERGY PREDICTED BY IDOCK:   -4.64 KCAL/MOL
REMARK 924 INTRA-LIGAND FREE ENERGY PREDICTED BY IDOCK:   -0.37 KCAL/MOL
REMARK 927      BINDING AFFINITY PREDICTED BY RF-SCORE:    0.00 PKD
ROOT
HETATM    1  O   UNL     1     -12.291  11.153  70.148  1.00  0.00    -0.304 OA 
HETATM    2  N   UNL     1     -12.589  10.421  71.107  1.00  0.00    -0.373 N  
HETATM    3  C   UNL     1     -12.140   9.063  71.038  1.00  0.00    -0.251 A  
HETATM    4  O   UNL     1     -13.182  10.775  72.130  1.00  0.00    -0.473 OA 
HETATM    5  N   UNL     1     -12.876   8.033  71.402  1.00  0.00    -0.301 NA 
HETATM    6  C   UNL     1     -12.062   6.944  71.224  1.00  0.00    -0.373 A  
HETATM    7  C   UNL     1     -10.822   7.329  70.764  1.00  0.00    -0.241 A  
HETATM    8  N   UNL     1     -10.889   8.695  70.625  1.00  0.00    -0.223 NA 
ENDROOT
BRANCH   8   9
HETATM    9  C   UNL     1      -9.778   9.547  70.239  1.00  0.00    -0.263 C  
BRANCH   9  10
HETATM   10  C   UNL     1      -9.584   9.585  68.737  1.00  0.00    -0.157 C  
HETATM   11  N   UNL     1      -9.036   8.450  68.189  1.00  0.00    -0.138 N  
HETATM   12  O   UNL     1      -9.906  10.568  68.075  1.00  0.00    -0.145 OA 
HETATM   13  H   UNL     1      -8.797   7.672  68.804  1.00  0.00     0.000 HD 
BRANCH  11  14
HETATM   14  C   UNL     1      -8.787   8.318  66.768  1.00  0.00    -0.140 C  
BRANCH  14  15
HETATM   15  C   UNL     1      -9.149   6.940  66.280  1.00  0.00    -0.170 A  
HETATM   16  C   UNL     1      -8.383   6.318  65.282  1.00  0.00    -0.138 A  
HETATM   17  C   UNL     1      -8.710   5.037  64.830  1.00  0.00    -0.150 A  
HETATM   18  C   UNL     1      -9.809   4.370  65.363  1.00  0.00    -0.220 A  
HETATM   19  C   UNL     1     -10.585   4.980  66.348  1.00  0.00    -0.317 A  
HETATM   20  C   UNL     1     -10.259   6.262  66.802  1.00  0.00    -0.262 A  
ENDBRANCH  14  15
ENDBRANCH  11  14
ENDBRANCH   9  10
ENDBRANCH   8   9
TORSDOF 4
ENDMDL
MODEL      208
REMARK 921   NORMALIZED FREE ENERGY PREDICTED BY IDOCK:   -3.56 KCAL/MOL
REMARK 922        TOTAL FREE ENERGY PREDICTED BY IDOCK:   -5.01 KCAL/MOL
REMARK 923 INTER-LIGAND FREE ENERGY PREDICTED BY IDOCK:   -4.47 KCAL/MOL
REMARK 924 INTRA-LIGAND FREE ENERGY PREDICTED BY IDOCK:   -0.54 KCAL/MOL
REMARK 927      BINDING AFFINITY PREDICTED BY RF-SCORE:    0.00 PKD
ROOT
HETATM    1  O   UNL     1     -10.633   7.517  67.462  1.00  0.00    -0.252 OA 
HETATM    2  N   UNL     1      -9.479   7.477  67.003  1.00  0.00    -0.153 N  
HETATM    3  C   UNL     1      -8.642   8.606  67.276  1.00  0.00    -0.125 A  
HETATM    4  O   UNL     1      -8.978   6.531  66.388  1.00  0.00    -0.140 OA 
HETATM    5  N   UNL     1      -7.830   9.143  66.389  1.00  0.00    -0.099 NA 
HETATM    6  C   UNL     1      -7.193  10.151  67.067  1.00  0.00    -0.091 A  
HETATM    7  C   UNL     1      -7.617  10.206  68.376  1.00  0.00    -0.087 A  
HETATM    8  N   UNL     1      -8.568   9.221  68.496  1.00  0.00    -0.127 NA 
ENDROOT
BRANCH   8   9
HETATM    9  C   UNL     1      -9.238   8.858  69.733  1.00  0.00    -0.165 C  
BRANCH   9  10
HETATM   10  C   UNL     1     -10.413   9.765  70.032  1.00  0.00    -0.270 C  
HETATM   11  N   UNL     1     -10.966  10.389  68.940  1.00  0.00    -0.232 N  
HETATM   12  O   UNL     1     -10.832   9.911  71.179  1.00  0.00    -0.309 OA 
HETATM   13  H   UNL     1     -10.565  10.214  68.018  1.00  0.00     0.000 HD 
BRANCH  11  14
HETATM   14  C   UNL     1     -12.098  11.286  69.050  1.00  0.00    -0.257 C  
BRANCH  14  15
HETATM   15  C   UNL     1     -11.819  12.595  68.360  1.00  0.00    -0.347 A  
HETATM   16  C   UNL     1     -11.665  13.772  69.110  1.00  0.00    -0.379 A  
HETATM   17  C   UNL     1     -11.400  14.988  68.476  1.00  0.00    -0.317 A  
HETATM   18  C   UNL     1     -11.295  15.044  67.090  1.00  0.00    -0.323 A  
HETATM   19  C   UNL     1     -11.455  13.885  66.332  1.00  0.00    -0.354 A  
HETATM   20  C   UNL     1     -11.721  12.666  66.964  1.00  0.00    -0.438 A  
ENDBRANCH  14  15
ENDBRANCH  11  14
ENDBRANCH   9  10
ENDBRANCH   8   9
TORSDOF 4
ENDMDL
MODEL      209
REMARK 921   NORMALIZED FREE ENERGY PREDICTED BY IDOCK:   -3.56 KCAL/MOL
REMARK 922        TOTAL FREE ENERGY PREDICTED BY IDOCK:   -5.01 KCAL/MOL
REMARK 923 INTER-LIGAND FREE ENERGY PREDICTED BY IDOCK:   -4.97 KCAL/MOL
REMARK 924 INTRA-LIGAND FREE ENERGY PREDICTED BY IDOCK:   -0.04 KCAL/MOL
REMARK 927      BINDING AFFINITY PREDICTED BY RF-SCORE:    0.00 PKD
ROOT
HETATM    1  O   UNL     1      -9.049  15.171  65.335  1.00  0.00     0.187 OA 
HETATM    2  N   UNL     1     -10.275  15.242  65.520  1.00  0.00    -0.364 N  
HETATM    3  C   UNL     1     -10.907  14.081  66.071  1.00  0.00    -0.295 A  
HETATM    4  O   UNL     1     -10.979  16.237  65.327  1.00  0.00    -0.325 OA 
HETATM    5  N   UNL     1     -12.073  13.624  65.664  1.00  0.00    -0.397 NA 
HETATM    6  C   UNL     1     -12.325  12.547  66.475  1.00  0.00     0.271 A  
HETATM    7  C   UNL     1     -11.308  12.369  67.386  1.00  0.00    -0.321 A  
HETATM    8  N   UNL     1     -10.386  13.349  67.104  1.00  0.00    -0.245 NA 
ENDROOT
BRANCH   8   9
HETATM    9  C   UNL     1      -9.176  13.597  67.867  1.00  0.00    -0.203 C  
BRANCH   9  10
HETATM   10  C   UNL     1      -9.309  14.805  68.771  1.00  0.00    -0.198 C  
HETATM   11  N   UNL     1     -10.279  15.707  68.405  1.00  0.00    -0.219 N  
HETATM   12  O   UNL     1      -8.594  14.945  69.761  1.00  0.00    -0.013 OA 
HETATM   13  H   UNL     1     -10.835  15.520  67.570  1.00  0.00     0.000 HD 
BRANCH  11  14
HETATM   14  C   UNL     1     -10.540  16.915  69.162  1.00  0.00    -0.330 C  
BRANCH  14  15
HETATM   15  C   UNL     1      -9.951  18.120  68.477  1.00  0.00    -0.408 A  
HETATM   16  C   UNL     1     -10.677  18.794  67.482  1.00  0.00    -0.474 A  
HETATM   17  C   UNL     1     -10.139  19.917  66.849  1.00  0.00    -0.579 A  
HETATM   18  C   UNL     1      -8.870  20.371  67.194  1.00  0.00    -0.435 A  
HETATM   19  C   UNL     1      -8.134  19.705  68.173  1.00  0.00    -0.353 A  
HETATM   20  C   UNL     1      -8.670  18.581  68.809  1.00  0.00    -0.268 A  
ENDBRANCH  14  15
ENDBRANCH  11  14
ENDBRANCH   9  10
ENDBRANCH   8   9
TORSDOF 4
ENDMDL
MODEL      210
REMARK 921   NORMALIZED FREE ENERGY PREDICTED BY IDOCK:   -3.55 KCAL/MOL
REMARK 922        TOTAL FREE ENERGY PREDICTED BY IDOCK:   -5.00 KCAL/MOL
REMARK 923 INTER-LIGAND FREE ENERGY PREDICTED BY IDOCK:   -4.54 KCAL/MOL
REMARK 924 INTRA-LIGAND FREE ENERGY PREDICTED BY IDOCK:   -0.46 KCAL/MOL
REMARK 927      BINDING AFFINITY PREDICTED BY RF-SCORE:    0.00 PKD
ROOT
HETATM    1  O   UNL     1      -6.734  10.276  66.284  1.00  0.00    -0.091 OA 
HETATM    2  N   UNL     1      -7.552   9.620  65.618  1.00  0.00    -0.104 N  
HETATM    3  C   UNL     1      -8.696   9.122  66.320  1.00  0.00    -0.140 A  
HETATM    4  O   UNL     1      -7.495   9.413  64.402  1.00  0.00    -0.103 OA 
HETATM    5  N   UNL     1      -9.197   7.918  66.136  1.00  0.00    -0.178 NA 
HETATM    6  C   UNL     1     -10.295   7.870  66.957  1.00  0.00    -0.341 A  
HETATM    7  C   UNL     1     -10.461   9.061  67.626  1.00  0.00    -0.260 A  
HETATM    8  N   UNL     1      -9.412   9.856  67.227  1.00  0.00    -0.151 NA 
ENDROOT
BRANCH   8   9
HETATM    9  C   UNL     1      -9.221  11.241  67.619  1.00  0.00    -0.156 C  
BRANCH   9  10
HETATM   10  C   UNL     1     -10.332  12.136  67.109  1.00  0.00    -0.214 C  
HETATM   11  N   UNL     1     -10.733  13.124  67.976  1.00  0.00    -0.227 N  
HETATM   12  O   UNL     1     -10.820  11.978  65.992  1.00  0.00    -0.268 OA 
HETATM   13  H   UNL     1     -10.277  13.195  68.886  1.00  0.00     0.000 HD 
BRANCH  11  14
HETATM   14  C   UNL     1     -11.780  14.069  67.645  1.00  0.00    -0.377 C  
BRANCH  14  15
HETATM   15  C   UNL     1     -11.201  15.404  67.259  1.00  0.00    -0.270 A  
HETATM   16  C   UNL     1     -11.086  16.428  68.212  1.00  0.00    -0.337 A  
HETATM   17  C   UNL     1     -10.543  17.667  67.862  1.00  0.00    -0.390 A  
HETATM   18  C   UNL     1     -10.120  17.899  66.557  1.00  0.00    -0.370 A  
HETATM   19  C   UNL     1     -10.238  16.895  65.597  1.00  0.00    -0.227 A  
HETATM   20  C   UNL     1     -10.780  15.653  65.945  1.00  0.00    -0.336 A  
ENDBRANCH  14  15
ENDBRANCH  11  14
ENDBRANCH   9  10
ENDBRANCH   8   9
TORSDOF 4
ENDMDL
MODEL      211
REMARK 921   NORMALIZED FREE ENERGY PREDICTED BY IDOCK:   -3.54 KCAL/MOL
REMARK 922        TOTAL FREE ENERGY PREDICTED BY IDOCK:   -4.99 KCAL/MOL
REMARK 923 INTER-LIGAND FREE ENERGY PREDICTED BY IDOCK:   -4.51 KCAL/MOL
REMARK 924 INTRA-LIGAND FREE ENERGY PREDICTED BY IDOCK:   -0.47 KCAL/MOL
REMARK 927      BINDING AFFINITY PREDICTED BY RF-SCORE:    0.00 PKD
ROOT
HETATM    1  O   UNL     1     -10.337   9.013  66.321  1.00  0.00    -0.247 OA 
HETATM    2  N   UNL     1      -9.361   9.368  65.639  1.00  0.00    -0.229 N  
HETATM    3  C   UNL     1      -9.620  10.310  64.593  1.00  0.00    -0.312 A  
HETATM    4  O   UNL     1      -8.189   9.027  65.823  1.00  0.00    -0.111 OA 
HETATM    5  N   UNL     1      -9.074  10.238  63.396  1.00  0.00    -0.237 NA 
HETATM    6  C   UNL     1      -9.545  11.342  62.733  1.00  0.00    -0.296 A  
HETATM    7  C   UNL     1     -10.368  12.089  63.546  1.00  0.00    -0.461 A  
HETATM    8  N   UNL     1     -10.429  11.404  64.737  1.00  0.00    -0.291 NA 
ENDROOT
BRANCH   8   9
HETATM    9  C   UNL     1     -11.123  11.864  65.926  1.00  0.00    -0.316 C  
BRANCH   9  10
HETATM   10  C   UNL     1     -10.608  13.204  66.406  1.00  0.00    -0.286 C  
HETATM   11  N   UNL     1      -9.245  13.289  66.558  1.00  0.00    -0.401 N  
HETATM   12  O   UNL     1     -11.373  14.141  66.630  1.00  0.00    -0.322 OA 
HETATM   13  H   UNL     1      -8.675  12.469  66.348  1.00  0.00     0.000 HD 
BRANCH  11  14
HETATM   14  C   UNL     1      -8.588  14.500  67.005  1.00  0.00    -0.217 C  
BRANCH  14  15
HETATM   15  C   UNL     1      -7.651  14.216  68.149  1.00  0.00    -0.136 A  
HETATM   16  C   UNL     1      -7.281  15.242  69.032  1.00  0.00    -0.151 A  
HETATM   17  C   UNL     1      -6.418  14.984  70.100  1.00  0.00    -0.136 A  
HETATM   18  C   UNL     1      -5.909  13.702  70.290  1.00  0.00    -0.155 A  
HETATM   19  C   UNL     1      -6.260  12.676  69.415  1.00  0.00    -0.113 A  
HETATM   20  C   UNL     1      -7.125  12.932  68.346  1.00  0.00    -0.099 A  
ENDBRANCH  14  15
ENDBRANCH  11  14
ENDBRANCH   9  10
ENDBRANCH   8   9
TORSDOF 4
ENDMDL
MODEL      212
REMARK 921   NORMALIZED FREE ENERGY PREDICTED BY IDOCK:   -3.53 KCAL/MOL
REMARK 922        TOTAL FREE ENERGY PREDICTED BY IDOCK:   -4.97 KCAL/MOL
REMARK 923 INTER-LIGAND FREE ENERGY PREDICTED BY IDOCK:   -4.47 KCAL/MOL
REMARK 924 INTRA-LIGAND FREE ENERGY PREDICTED BY IDOCK:   -0.50 KCAL/MOL
REMARK 927      BINDING AFFINITY PREDICTED BY RF-SCORE:    0.00 PKD
ROOT
HETATM    1  O   UNL     1      -9.208  15.598  65.902  1.00  0.00    -0.340 OA 
HETATM    2  N   UNL     1      -9.242  16.572  66.672  1.00  0.00    -0.234 N  
HETATM    3  C   UNL     1      -9.906  16.374  67.925  1.00  0.00    -0.238 A  
HETATM    4  O   UNL     1      -8.707  17.667  66.477  1.00  0.00    -0.254 OA 
HETATM    5  N   UNL     1     -10.701  17.266  68.478  1.00  0.00    -0.339 NA 
HETATM    6  C   UNL     1     -11.078  16.704  69.670  1.00  0.00    -0.144 A  
HETATM    7  C   UNL     1     -10.490  15.470  69.839  1.00  0.00    -0.313 A  
HETATM    8  N   UNL     1      -9.753  15.255  68.698  1.00  0.00    -0.205 NA 
ENDROOT
BRANCH   8   9
HETATM    9  C   UNL     1      -8.894  14.107  68.466  1.00  0.00    -0.173 C  
BRANCH   9  10
HETATM   10  C   UNL     1      -9.670  12.904  67.972  1.00  0.00    -0.224 C  
HETATM   11  N   UNL     1      -9.283  12.420  66.745  1.00  0.00    -0.208 N  
HETATM   12  O   UNL     1     -10.573  12.406  68.641  1.00  0.00    -0.226 OA 
HETATM   13  H   UNL     1      -8.521  12.886  66.251  1.00  0.00     0.000 HD 
BRANCH  11  14
HETATM   14  C   UNL     1      -9.918  11.274  66.129  1.00  0.00    -0.228 C  
BRANCH  14  15
HETATM   15  C   UNL     1      -9.253  10.925  64.823  1.00  0.00    -0.227 A  
HETATM   16  C   UNL     1      -8.094  10.133  64.808  1.00  0.00    -0.153 A  
HETATM   17  C   UNL     1      -7.477   9.800  63.600  1.00  0.00    -0.130 A  
HETATM   18  C   UNL     1      -8.004  10.261  62.398  1.00  0.00    -0.170 A  
HETATM   19  C   UNL     1      -9.149  11.057  62.398  1.00  0.00    -0.328 A  
HETATM   20  C   UNL     1      -9.769  11.391  63.607  1.00  0.00    -0.337 A  
ENDBRANCH  14  15
ENDBRANCH  11  14
ENDBRANCH   9  10
ENDBRANCH   8   9
TORSDOF 4
ENDMDL
MODEL      213
REMARK 921   NORMALIZED FREE ENERGY PREDICTED BY IDOCK:   -3.51 KCAL/MOL
REMARK 922        TOTAL FREE ENERGY PREDICTED BY IDOCK:   -4.95 KCAL/MOL
REMARK 923 INTER-LIGAND FREE ENERGY PREDICTED BY IDOCK:   -4.86 KCAL/MOL
REMARK 924 INTRA-LIGAND FREE ENERGY PREDICTED BY IDOCK:   -0.09 KCAL/MOL
REMARK 927      BINDING AFFINITY PREDICTED BY RF-SCORE:    0.00 PKD
ROOT
HETATM    1  O   UNL     1      -8.622  10.301  65.967  1.00  0.00    -0.137 OA 
HETATM    2  N   UNL     1      -8.320  10.366  67.171  1.00  0.00    -0.125 N  
HETATM    3  C   UNL     1      -7.849  11.632  67.644  1.00  0.00    -0.135 A  
HETATM    4  O   UNL     1      -8.447   9.459  67.998  1.00  0.00    -0.119 OA 
HETATM    5  N   UNL     1      -6.843  11.768  68.484  1.00  0.00    -0.069 NA 
HETATM    6  C   UNL     1      -6.758  13.118  68.708  1.00  0.00    -0.100 A  
HETATM    7  C   UNL     1      -7.732  13.794  68.009  1.00  0.00    -0.152 A  
HETATM    8  N   UNL     1      -8.417  12.831  67.307  1.00  0.00    -0.187 NA 
ENDROOT
BRANCH   8   9
HETATM    9  C   UNL     1      -9.590  13.075  66.486  1.00  0.00    -0.260 C  
BRANCH   9  10
HETATM   10  C   UNL     1     -10.869  13.044  67.294  1.00  0.00    -0.252 C  
HETATM   11  N   UNL     1     -10.730  13.358  68.625  1.00  0.00    -0.253 N  
HETATM   12  O   UNL     1     -11.948  12.762  66.776  1.00  0.00    -0.399 OA 
HETATM   13  H   UNL     1      -9.801  13.585  68.982  1.00  0.00     0.000 HD 
BRANCH  11  14
HETATM   14  C   UNL     1     -11.854  13.379  69.539  1.00  0.00    -0.332 C  
BRANCH  14  15
HETATM   15  C   UNL     1     -12.062  12.029  70.171  1.00  0.00    -0.377 A  
HETATM   16  C   UNL     1     -11.401  10.899  69.663  1.00  0.00    -0.362 A  
HETATM   17  C   UNL     1     -11.584   9.645  70.249  1.00  0.00    -0.255 A  
HETATM   18  C   UNL     1     -12.436   9.503  71.341  1.00  0.00    -0.450 A  
HETATM   19  C   UNL     1     -13.106  10.614  71.850  1.00  0.00    -0.563 A  
HETATM   20  C   UNL     1     -12.924  11.872  71.265  1.00  0.00    -0.334 A  
ENDBRANCH  14  15
ENDBRANCH  11  14
ENDBRANCH   9  10
ENDBRANCH   8   9
TORSDOF 4
ENDMDL
MODEL      214
REMARK 921   NORMALIZED FREE ENERGY PREDICTED BY IDOCK:   -3.51 KCAL/MOL
REMARK 922        TOTAL FREE ENERGY PREDICTED BY IDOCK:   -4.94 KCAL/MOL
REMARK 923 INTER-LIGAND FREE ENERGY PREDICTED BY IDOCK:   -4.46 KCAL/MOL
REMARK 924 INTRA-LIGAND FREE ENERGY PREDICTED BY IDOCK:   -0.49 KCAL/MOL
REMARK 927      BINDING AFFINITY PREDICTED BY RF-SCORE:    0.00 PKD
ROOT
HETATM    1  O   UNL     1      -8.890   9.292  71.181  1.00  0.00    -0.257 OA 
HETATM    2  N   UNL     1      -9.443   8.584  72.039  1.00  0.00    -0.269 N  
HETATM    3  C   UNL     1     -10.678   7.967  71.660  1.00  0.00    -0.232 A  
HETATM    4  O   UNL     1      -8.995   8.322  73.159  1.00  0.00    -0.248 OA 
HETATM    5  N   UNL     1     -11.724   7.881  72.456  1.00  0.00    -0.372 NA 
HETATM    6  C   UNL     1     -12.657   7.187  71.728  1.00  0.00    -0.346 A  
HETATM    7  C   UNL     1     -12.158   6.841  70.493  1.00  0.00    -0.274 A  
HETATM    8  N   UNL     1     -10.889   7.368  70.448  1.00  0.00    -0.239 NA 
ENDROOT
BRANCH   8   9
HETATM    9  C   UNL     1      -9.949   7.183  69.357  1.00  0.00    -0.164 C  
BRANCH   9  10
HETATM   10  C   UNL     1     -10.463   7.765  68.056  1.00  0.00    -0.185 C  
HETATM   11  N   UNL     1     -10.202   9.102  67.869  1.00  0.00    -0.204 N  
HETATM   12  O   UNL     1     -11.061   7.072  67.237  1.00  0.00    -0.318 OA 
HETATM   13  H   UNL     1      -9.695   9.610  68.594  1.00  0.00     0.000 HD 
BRANCH  11  14
HETATM   14  C   UNL     1     -10.620   9.814  66.679  1.00  0.00    -0.108 C  
BRANCH  14  15
HETATM   15  C   UNL     1      -9.494   9.911  65.684  1.00  0.00    -0.295 A  
HETATM   16  C   UNL     1      -9.759  10.230  64.343  1.00  0.00    -0.381 A  
HETATM   17  C   UNL     1      -8.718  10.329  63.416  1.00  0.00    -0.209 A  
HETATM   18  C   UNL     1      -7.405  10.101  63.817  1.00  0.00    -0.113 A  
HETATM   19  C   UNL     1      -7.128   9.774  65.143  1.00  0.00    -0.121 A  
HETATM   20  C   UNL     1      -8.168   9.675  66.072  1.00  0.00    -0.119 A  
ENDBRANCH  14  15
ENDBRANCH  11  14
ENDBRANCH   9  10
ENDBRANCH   8   9
TORSDOF 4
ENDMDL
MODEL      215
REMARK 921   NORMALIZED FREE ENERGY PREDICTED BY IDOCK:   -3.50 KCAL/MOL
REMARK 922        TOTAL FREE ENERGY PREDICTED BY IDOCK:   -4.94 KCAL/MOL
REMARK 923 INTER-LIGAND FREE ENERGY PREDICTED BY IDOCK:   -4.47 KCAL/MOL
REMARK 924 INTRA-LIGAND FREE ENERGY PREDICTED BY IDOCK:   -0.47 KCAL/MOL
REMARK 927      BINDING AFFINITY PREDICTED BY RF-SCORE:    0.00 PKD
ROOT
HETATM    1  O   UNL     1     -12.408  14.117  64.945  1.00  0.00    -0.421 OA 
HETATM    2  N   UNL     1     -12.039  12.991  64.571  1.00  0.00    -0.387 N  
HETATM    3  C   UNL     1     -10.872  12.457  65.204  1.00  0.00    -0.297 A  
HETATM    4  O   UNL     1     -12.621  12.275  63.751  1.00  0.00    -0.622 OA 
HETATM    5  N   UNL     1      -9.925  11.806  64.559  1.00  0.00    -0.252 NA 
HETATM    6  C   UNL     1      -9.034  11.434  65.532  1.00  0.00    -0.088 A  
HETATM    7  C   UNL     1      -9.459  11.853  66.773  1.00  0.00    -0.201 A  
HETATM    8  N   UNL     1     -10.634  12.531  66.550  1.00  0.00    -0.239 NA 
ENDROOT
BRANCH   8   9
HETATM    9  C   UNL     1     -11.485  13.085  67.588  1.00  0.00    -0.324 C  
BRANCH   9  10
HETATM   10  C   UNL     1     -10.942  14.388  68.136  1.00  0.00    -0.254 C  
HETATM   11  N   UNL     1     -10.043  14.260  69.168  1.00  0.00    -0.415 N  
HETATM   12  O   UNL     1     -11.289  15.472  67.672  1.00  0.00    -0.324 OA 
HETATM   13  H   UNL     1      -9.801  13.325  69.496  1.00  0.00     0.000 HD 
BRANCH  11  14
HETATM   14  C   UNL     1      -9.425  15.406  69.804  1.00  0.00    -0.149 C  
BRANCH  14  15
HETATM   15  C   UNL     1      -7.934  15.403  69.592  1.00  0.00    -0.138 A  
HETATM   16  C   UNL     1      -7.144  14.374  70.129  1.00  0.00     0.179 A  
HETATM   17  C   UNL     1      -5.762  14.362  69.931  1.00  0.00    -0.110 A  
HETATM   18  C   UNL     1      -5.153  15.380  69.203  1.00  0.00    -0.095 A  
HETATM   19  C   UNL     1      -5.924  16.414  68.673  1.00  0.00    -0.121 A  
HETATM   20  C   UNL     1      -7.308  16.428  68.870  1.00  0.00    -0.214 A  
ENDBRANCH  14  15
ENDBRANCH  11  14
ENDBRANCH   9  10
ENDBRANCH   8   9
TORSDOF 4
ENDMDL
MODEL      216
REMARK 921   NORMALIZED FREE ENERGY PREDICTED BY IDOCK:   -3.50 KCAL/MOL
REMARK 922        TOTAL FREE ENERGY PREDICTED BY IDOCK:   -4.94 KCAL/MOL
REMARK 923 INTER-LIGAND FREE ENERGY PREDICTED BY IDOCK:   -4.62 KCAL/MOL
REMARK 924 INTRA-LIGAND FREE ENERGY PREDICTED BY IDOCK:   -0.32 KCAL/MOL
REMARK 927      BINDING AFFINITY PREDICTED BY RF-SCORE:    0.00 PKD
ROOT
HETATM    1  O   UNL     1     -11.465  13.343  67.523  1.00  0.00    -0.289 OA 
HETATM    2  N   UNL     1     -11.753  12.617  66.557  1.00  0.00    -0.386 N  
HETATM    3  C   UNL     1     -10.910  11.481  66.338  1.00  0.00    -0.285 A  
HETATM    4  O   UNL     1     -12.727  12.757  65.812  1.00  0.00    -0.493 OA 
HETATM    5  N   UNL     1     -10.511  11.088  65.145  1.00  0.00    -0.279 NA 
HETATM    6  C   UNL     1      -9.776   9.955  65.381  1.00  0.00    -0.306 A  
HETATM    7  C   UNL     1      -9.748   9.658  66.726  1.00  0.00    -0.197 A  
HETATM    8  N   UNL     1     -10.463  10.660  67.338  1.00  0.00    -0.219 NA 
ENDROOT
BRANCH   8   9
HETATM    9  C   UNL     1     -10.767  10.718  68.757  1.00  0.00    -0.208 C  
BRANCH   9  10
HETATM   10  C   UNL     1      -9.753   9.961  69.589  1.00  0.00    -0.229 C  
HETATM   11  N   UNL     1     -10.236   8.844  70.227  1.00  0.00    -0.192 N  
HETATM   12  O   UNL     1      -8.584  10.333  69.668  1.00  0.00    -0.170 OA 
HETATM   13  H   UNL     1     -11.219   8.597  70.111  1.00  0.00     0.000 HD 
BRANCH  11  14
HETATM   14  C   UNL     1      -9.399   8.004  71.060  1.00  0.00    -0.149 C  
BRANCH  14  15
HETATM   15  C   UNL     1      -9.450   6.570  70.605  1.00  0.00    -0.173 A  
HETATM   16  C   UNL     1      -9.834   5.557  71.499  1.00  0.00    -0.221 A  
HETATM   17  C   UNL     1      -9.890   4.225  71.081  1.00  0.00    -0.250 A  
HETATM   18  C   UNL     1      -9.555   3.890  69.772  1.00  0.00    -0.271 A  
HETATM   19  C   UNL     1      -9.163   4.884  68.877  1.00  0.00    -0.164 A  
HETATM   20  C   UNL     1      -9.106   6.218  69.293  1.00  0.00    -0.134 A  
ENDBRANCH  14  15
ENDBRANCH  11  14
ENDBRANCH   9  10
ENDBRANCH   8   9
TORSDOF 4
ENDMDL
MODEL      217
REMARK 921   NORMALIZED FREE ENERGY PREDICTED BY IDOCK:   -3.50 KCAL/MOL
REMARK 922        TOTAL FREE ENERGY PREDICTED BY IDOCK:   -4.93 KCAL/MOL
REMARK 923 INTER-LIGAND FREE ENERGY PREDICTED BY IDOCK:   -4.51 KCAL/MOL
REMARK 924 INTRA-LIGAND FREE ENERGY PREDICTED BY IDOCK:   -0.43 KCAL/MOL
REMARK 927      BINDING AFFINITY PREDICTED BY RF-SCORE:    0.00 PKD
ROOT
HETATM    1  O   UNL     1     -10.805   6.642  66.835  1.00  0.00    -0.341 OA 
HETATM    2  N   UNL     1      -9.714   6.439  67.395  1.00  0.00    -0.118 N  
HETATM    3  C   UNL     1      -8.819   7.553  67.473  1.00  0.00    -0.127 A  
HETATM    4  O   UNL     1      -9.364   5.386  67.936  1.00  0.00    -0.109 OA 
HETATM    5  N   UNL     1      -7.520   7.461  67.273  1.00  0.00    -0.101 NA 
HETATM    6  C   UNL     1      -7.045   8.728  67.489  1.00  0.00    -0.079 A  
HETATM    7  C   UNL     1      -8.066   9.584  67.837  1.00  0.00    -0.106 A  
HETATM    8  N   UNL     1      -9.211   8.823  67.802  1.00  0.00    -0.134 NA 
ENDROOT
BRANCH   8   9
HETATM    9  C   UNL     1     -10.533   9.291  68.179  1.00  0.00    -0.215 C  
BRANCH   9  10
HETATM   10  C   UNL     1     -10.692   9.404  69.680  1.00  0.00    -0.235 C  
HETATM   11  N   UNL     1     -11.791   8.765  70.203  1.00  0.00    -0.439 N  
HETATM   12  O   UNL     1      -9.880  10.022  70.365  1.00  0.00    -0.199 OA 
HETATM   13  H   UNL     1     -12.419   8.269  69.570  1.00  0.00     0.000 HD 
BRANCH  11  14
HETATM   14  C   UNL     1     -12.090   8.771  71.620  1.00  0.00    -0.337 C  
BRANCH  14  15
HETATM   15  C   UNL     1     -11.433   7.609  72.316  1.00  0.00    -0.366 A  
HETATM   16  C   UNL     1     -10.484   7.833  73.327  1.00  0.00    -0.358 A  
HETATM   17  C   UNL     1      -9.875   6.760  73.981  1.00  0.00    -0.334 A  
HETATM   18  C   UNL     1     -10.200   5.453  73.627  1.00  0.00    -0.237 A  
HETATM   19  C   UNL     1     -11.133   5.216  72.619  1.00  0.00    -0.298 A  
HETATM   20  C   UNL     1     -11.744   6.289  71.963  1.00  0.00    -0.374 A  
ENDBRANCH  14  15
ENDBRANCH  11  14
ENDBRANCH   9  10
ENDBRANCH   8   9
TORSDOF 4
ENDMDL
MODEL      218
REMARK 921   NORMALIZED FREE ENERGY PREDICTED BY IDOCK:   -3.49 KCAL/MOL
REMARK 922        TOTAL FREE ENERGY PREDICTED BY IDOCK:   -4.93 KCAL/MOL
REMARK 923 INTER-LIGAND FREE ENERGY PREDICTED BY IDOCK:   -4.56 KCAL/MOL
REMARK 924 INTRA-LIGAND FREE ENERGY PREDICTED BY IDOCK:   -0.36 KCAL/MOL
REMARK 927      BINDING AFFINITY PREDICTED BY RF-SCORE:    0.00 PKD
ROOT
HETATM    1  O   UNL     1     -10.708   7.386  66.921  1.00  0.00    -0.346 OA 
HETATM    2  N   UNL     1      -9.556   7.242  66.477  1.00  0.00    -0.173 N  
HETATM    3  C   UNL     1      -8.950   8.396  65.885  1.00  0.00    -0.178 A  
HETATM    4  O   UNL     1      -8.874   6.216  66.556  1.00  0.00    -0.124 OA 
HETATM    5  N   UNL     1      -8.231   8.357  64.782  1.00  0.00    -0.161 NA 
HETATM    6  C   UNL     1      -7.809   9.648  64.598  1.00  0.00    -0.133 A  
HETATM    7  C   UNL     1      -8.266  10.464  65.608  1.00  0.00    -0.158 A  
HETATM    8  N   UNL     1      -9.020   9.653  66.422  1.00  0.00    -0.149 NA 
ENDROOT
BRANCH   8   9
HETATM    9  C   UNL     1      -9.640  10.069  67.668  1.00  0.00    -0.148 C  
BRANCH   9  10
HETATM   10  C   UNL     1     -10.600  11.224  67.470  1.00  0.00    -0.218 C  
HETATM   11  N   UNL     1     -10.464  12.259  68.363  1.00  0.00    -0.228 N  
HETATM   12  O   UNL     1     -11.429  11.218  66.562  1.00  0.00    -0.335 OA 
HETATM   13  H   UNL     1      -9.749  12.193  69.087  1.00  0.00     0.000 HD 
BRANCH  11  14
HETATM   14  C   UNL     1     -11.299  13.442  68.312  1.00  0.00    -0.295 C  
BRANCH  14  15
HETATM   15  C   UNL     1     -11.686  13.890  69.697  1.00  0.00    -0.370 A  
HETATM   16  C   UNL     1     -12.766  13.286  70.361  1.00  0.00    -0.103 A  
HETATM   17  C   UNL     1     -13.125  13.692  71.648  1.00  0.00    -0.455 A  
HETATM   18  C   UNL     1     -12.419  14.710  72.281  1.00  0.00    -0.387 A  
HETATM   19  C   UNL     1     -11.351  15.326  71.629  1.00  0.00    -0.440 A  
HETATM   20  C   UNL     1     -10.988  14.921  70.341  1.00  0.00    -0.160 A  
ENDBRANCH  14  15
ENDBRANCH  11  14
ENDBRANCH   9  10
ENDBRANCH   8   9
TORSDOF 4
ENDMDL
MODEL      219
REMARK 921   NORMALIZED FREE ENERGY PREDICTED BY IDOCK:   -3.49 KCAL/MOL
REMARK 922        TOTAL FREE ENERGY PREDICTED BY IDOCK:   -4.92 KCAL/MOL
REMARK 923 INTER-LIGAND FREE ENERGY PREDICTED BY IDOCK:   -4.74 KCAL/MOL
REMARK 924 INTRA-LIGAND FREE ENERGY PREDICTED BY IDOCK:   -0.18 KCAL/MOL
REMARK 927      BINDING AFFINITY PREDICTED BY RF-SCORE:    0.00 PKD
ROOT
HETATM    1  O   UNL     1      -9.246   9.315  66.020  1.00  0.00    -0.173 OA 
HETATM    2  N   UNL     1      -9.657   8.465  66.828  1.00  0.00    -0.200 N  
HETATM    3  C   UNL     1      -9.734   8.871  68.198  1.00  0.00    -0.160 A  
HETATM    4  O   UNL     1     -10.056   7.332  66.544  1.00  0.00    -0.188 OA 
HETATM    5  N   UNL     1      -9.379   8.102  69.207  1.00  0.00    -0.152 NA 
HETATM    6  C   UNL     1      -9.655   8.847  70.325  1.00  0.00    -0.186 A  
HETATM    7  C   UNL     1     -10.194  10.066  69.982  1.00  0.00    -0.255 A  
HETATM    8  N   UNL     1     -10.221  10.083  68.607  1.00  0.00    -0.172 NA 
ENDROOT
BRANCH   8   9
HETATM    9  C   UNL     1     -10.787  11.148  67.798  1.00  0.00    -0.239 C  
BRANCH   9  10
HETATM   10  C   UNL     1     -11.123  12.373  68.623  1.00  0.00    -0.257 C  
HETATM   11  N   UNL     1     -10.241  13.420  68.505  1.00  0.00    -0.269 N  
HETATM   12  O   UNL     1     -12.125  12.409  69.335  1.00  0.00    -0.265 OA 
HETATM   13  H   UNL     1      -9.433  13.315  67.890  1.00  0.00     0.000 HD 
BRANCH  11  14
HETATM   14  C   UNL     1     -10.416  14.666  69.222  1.00  0.00    -0.209 C  
BRANCH  14  15
HETATM   15  C   UNL     1     -10.368  15.842  68.282  1.00  0.00    -0.239 A  
HETATM   16  C   UNL     1     -10.301  17.150  68.786  1.00  0.00    -0.353 A  
HETATM   17  C   UNL     1     -10.250  18.244  67.919  1.00  0.00    -0.400 A  
HETATM   18  C   UNL     1     -10.274  18.044  66.542  1.00  0.00    -0.383 A  
HETATM   19  C   UNL     1     -10.351  16.751  66.027  1.00  0.00    -0.346 A  
HETATM   20  C   UNL     1     -10.402  15.654  66.893  1.00  0.00    -0.293 A  
ENDBRANCH  14  15
ENDBRANCH  11  14
ENDBRANCH   9  10
ENDBRANCH   8   9
TORSDOF 4
ENDMDL
MODEL      220
REMARK 921   NORMALIZED FREE ENERGY PREDICTED BY IDOCK:   -3.48 KCAL/MOL
REMARK 922        TOTAL FREE ENERGY PREDICTED BY IDOCK:   -4.92 KCAL/MOL
REMARK 923 INTER-LIGAND FREE ENERGY PREDICTED BY IDOCK:   -4.99 KCAL/MOL
REMARK 924 INTRA-LIGAND FREE ENERGY PREDICTED BY IDOCK:    0.07 KCAL/MOL
REMARK 927      BINDING AFFINITY PREDICTED BY RF-SCORE:    0.00 PKD
ROOT
HETATM    1  O   UNL     1      -8.003  11.297  67.163  1.00  0.00    -0.136 OA 
HETATM    2  N   UNL     1      -9.054  11.811  66.746  1.00  0.00    -0.188 N  
HETATM    3  C   UNL     1      -9.661  12.797  67.587  1.00  0.00    -0.205 A  
HETATM    4  O   UNL     1      -9.583  11.590  65.652  1.00  0.00    -0.223 OA 
HETATM    5  N   UNL     1     -10.960  12.880  67.792  1.00  0.00    -0.236 NA 
HETATM    6  C   UNL     1     -11.113  13.973  68.607  1.00  0.00    -0.264 A  
HETATM    7  C   UNL     1      -9.897  14.557  68.879  1.00  0.00    -0.191 A  
HETATM    8  N   UNL     1      -8.963  13.779  68.236  1.00  0.00    -0.185 NA 
ENDROOT
BRANCH   8   9
HETATM    9  C   UNL     1      -7.540  14.064  68.178  1.00  0.00    -0.141 C  
BRANCH   9  10
HETATM   10  C   UNL     1      -7.261  15.532  67.935  1.00  0.00    -0.141 C  
HETATM   11  N   UNL     1      -7.545  16.365  68.991  1.00  0.00    -0.225 N  
HETATM   12  O   UNL     1      -6.806  15.928  66.864  1.00  0.00    -0.238 OA 
HETATM   13  H   UNL     1      -7.918  15.961  69.850  1.00  0.00     0.000 HD 
BRANCH  11  14
HETATM   14  C   UNL     1      -7.333  17.797  68.927  1.00  0.00    -0.245 C  
BRANCH  14  15
HETATM   15  C   UNL     1      -8.520  18.492  68.312  1.00  0.00    -0.341 A  
HETATM   16  C   UNL     1      -9.804  17.939  68.432  1.00  0.00    -0.355 A  
HETATM   17  C   UNL     1     -10.910  18.582  67.870  1.00  0.00    -0.240 A  
HETATM   18  C   UNL     1     -10.743  19.777  67.177  1.00  0.00    -0.547 A  
HETATM   19  C   UNL     1      -9.471  20.333  67.041  1.00  0.00    -0.546 A  
HETATM   20  C   UNL     1      -8.363  19.691  67.603  1.00  0.00    -0.343 A  
ENDBRANCH  14  15
ENDBRANCH  11  14
ENDBRANCH   9  10
ENDBRANCH   8   9
TORSDOF 4
ENDMDL
MODEL      221
REMARK 921   NORMALIZED FREE ENERGY PREDICTED BY IDOCK:   -3.48 KCAL/MOL
REMARK 922        TOTAL FREE ENERGY PREDICTED BY IDOCK:   -4.91 KCAL/MOL
REMARK 923 INTER-LIGAND FREE ENERGY PREDICTED BY IDOCK:   -4.38 KCAL/MOL
REMARK 924 INTRA-LIGAND FREE ENERGY PREDICTED BY IDOCK:   -0.52 KCAL/MOL
REMARK 927      BINDING AFFINITY PREDICTED BY RF-SCORE:    0.00 PKD
ROOT
HETATM    1  O   UNL     1      -9.393   4.415  72.840  1.00  0.00    -0.124 OA 
HETATM    2  N   UNL     1      -8.339   4.984  72.511  1.00  0.00    -0.116 N  
HETATM    3  C   UNL     1      -8.260   5.455  71.162  1.00  0.00    -0.119 A  
HETATM    4  O   UNL     1      -7.386   5.229  73.258  1.00  0.00    -0.088 OA 
HETATM    5  N   UNL     1      -7.181   5.348  70.414  1.00  0.00    -0.061 NA 
HETATM    6  C   UNL     1      -7.515   5.959  69.233  1.00  0.00    -0.084 A  
HETATM    7  C   UNL     1      -8.801   6.449  69.280  1.00  0.00    -0.128 A  
HETATM    8  N   UNL     1      -9.282   6.100  70.520  1.00  0.00    -0.156 NA 
ENDROOT
BRANCH   8   9
HETATM    9  C   UNL     1     -10.581   6.481  71.045  1.00  0.00    -0.231 C  
BRANCH   9  10
HETATM   10  C   UNL     1     -10.693   7.975  71.263  1.00  0.00    -0.229 C  
HETATM   11  N   UNL     1     -11.539   8.632  70.402  1.00  0.00    -0.457 N  
HETATM   12  O   UNL     1     -10.068   8.540  72.159  1.00  0.00    -0.276 OA 
HETATM   13  H   UNL     1     -12.026   8.094  69.685  1.00  0.00     0.000 HD 
BRANCH  11  14
HETATM   14  C   UNL     1     -11.763  10.061  70.475  1.00  0.00    -0.318 C  
BRANCH  14  15
HETATM   15  C   UNL     1     -11.466  10.723  69.156  1.00  0.00    -0.368 A  
HETATM   16  C   UNL     1     -11.963  12.007  68.879  1.00  0.00    -0.303 A  
HETATM   17  C   UNL     1     -11.685  12.630  67.660  1.00  0.00    -0.420 A  
HETATM   18  C   UNL     1     -10.917  11.974  66.702  1.00  0.00    -0.330 A  
HETATM   19  C   UNL     1     -10.425  10.695  66.959  1.00  0.00    -0.295 A  
HETATM   20  C   UNL     1     -10.702  10.070  68.179  1.00  0.00    -0.282 A  
ENDBRANCH  14  15
ENDBRANCH  11  14
ENDBRANCH   9  10
ENDBRANCH   8   9
TORSDOF 4
ENDMDL
MODEL      222
REMARK 921   NORMALIZED FREE ENERGY PREDICTED BY IDOCK:   -3.46 KCAL/MOL
REMARK 922        TOTAL FREE ENERGY PREDICTED BY IDOCK:   -4.88 KCAL/MOL
REMARK 923 INTER-LIGAND FREE ENERGY PREDICTED BY IDOCK:   -4.24 KCAL/MOL
REMARK 924 INTRA-LIGAND FREE ENERGY PREDICTED BY IDOCK:   -0.65 KCAL/MOL
REMARK 927      BINDING AFFINITY PREDICTED BY RF-SCORE:    0.00 PKD
ROOT
HETATM    1  O   UNL     1      -6.703   8.580  67.417  1.00  0.00    -0.061 OA 
HETATM    2  N   UNL     1      -6.950   8.634  68.633  1.00  0.00    -0.063 N  
HETATM    3  C   UNL     1      -6.389   9.739  69.351  1.00  0.00    -0.044 A  
HETATM    4  O   UNL     1      -7.679   7.859  69.258  1.00  0.00    -0.095 OA 
HETATM    5  N   UNL     1      -5.857   9.633  70.551  1.00  0.00    -0.053 NA 
HETATM    6  C   UNL     1      -5.493  10.913  70.883  1.00  0.00    -0.108 A  
HETATM    7  C   UNL     1      -5.825  11.794  69.879  1.00  0.00    -0.135 A  
HETATM    8  N   UNL     1      -6.382  11.025  68.884  1.00  0.00    -0.048 NA 
ENDROOT
BRANCH   8   9
HETATM    9  C   UNL     1      -6.956  11.543  67.655  1.00  0.00    -0.091 C  
BRANCH   9  10
HETATM   10  C   UNL     1      -8.448  11.776  67.775  1.00  0.00    -0.147 C  
HETATM   11  N   UNL     1      -9.238  10.864  67.116  1.00  0.00    -0.148 N  
HETATM   12  O   UNL     1      -8.898  12.716  68.427  1.00  0.00    -0.180 OA 
HETATM   13  H   UNL     1      -8.790  10.108  66.598  1.00  0.00     0.000 HD 
BRANCH  11  14
HETATM   14  C   UNL     1     -10.685  10.939  67.131  1.00  0.00    -0.270 C  
BRANCH  14  15
HETATM   15  C   UNL     1     -11.190  11.854  66.048  1.00  0.00    -0.377 A  
HETATM   16  C   UNL     1     -12.007  12.950  66.371  1.00  0.00    -0.462 A  
HETATM   17  C   UNL     1     -12.473  13.807  65.371  1.00  0.00    -0.532 A  
HETATM   18  C   UNL     1     -12.138  13.574  64.040  1.00  0.00    -0.494 A  
HETATM   19  C   UNL     1     -11.337  12.484  63.705  1.00  0.00    -0.555 A  
HETATM   20  C   UNL     1     -10.868  11.625  64.704  1.00  0.00    -0.373 A  
ENDBRANCH  14  15
ENDBRANCH  11  14
ENDBRANCH   9  10
ENDBRANCH   8   9
TORSDOF 4
ENDMDL
MODEL      223
REMARK 921   NORMALIZED FREE ENERGY PREDICTED BY IDOCK:   -3.46 KCAL/MOL
REMARK 922        TOTAL FREE ENERGY PREDICTED BY IDOCK:   -4.88 KCAL/MOL
REMARK 923 INTER-LIGAND FREE ENERGY PREDICTED BY IDOCK:   -4.73 KCAL/MOL
REMARK 924 INTRA-LIGAND FREE ENERGY PREDICTED BY IDOCK:   -0.15 KCAL/MOL
REMARK 927      BINDING AFFINITY PREDICTED BY RF-SCORE:    0.00 PKD
ROOT
HETATM    1  O   UNL     1      -9.120  14.303  68.442  1.00  0.00    -0.186 OA 
HETATM    2  N   UNL     1      -9.553  14.043  67.306  1.00  0.00    -0.232 N  
HETATM    3  C   UNL     1      -9.873  12.673  67.043  1.00  0.00    -0.225 A  
HETATM    4  O   UNL     1      -9.784  14.865  66.415  1.00  0.00    -0.254 OA 
HETATM    5  N   UNL     1      -9.590  12.063  65.909  1.00  0.00    -0.235 NA 
HETATM    6  C   UNL     1     -10.104  10.800  66.057  1.00  0.00    -0.249 A  
HETATM    7  C   UNL     1     -10.713  10.658  67.284  1.00  0.00    -0.285 A  
HETATM    8  N   UNL     1     -10.540  11.864  67.922  1.00  0.00    -0.195 NA 
ENDROOT
BRANCH   8   9
HETATM    9  C   UNL     1     -11.090  12.203  69.222  1.00  0.00    -0.167 C  
BRANCH   9  10
HETATM   10  C   UNL     1     -11.818  11.037  69.857  1.00  0.00    -0.353 C  
HETATM   11  N   UNL     1     -11.208  10.498  70.965  1.00  0.00    -0.256 N  
HETATM   12  O   UNL     1     -12.881  10.621  69.401  1.00  0.00    -0.144 OA 
HETATM   13  H   UNL     1     -10.328  10.901  71.286  1.00  0.00     0.000 HD 
BRANCH  11  14
HETATM   14  C   UNL     1     -11.772   9.380  71.694  1.00  0.00    -0.398 C  
BRANCH  14  15
HETATM   15  C   UNL     1     -10.812   8.221  71.732  1.00  0.00    -0.332 A  
HETATM   16  C   UNL     1      -9.507   8.398  72.219  1.00  0.00    -0.367 A  
HETATM   17  C   UNL     1      -8.614   7.325  72.265  1.00  0.00    -0.131 A  
HETATM   18  C   UNL     1      -9.010   6.069  71.816  1.00  0.00    -0.138 A  
HETATM   19  C   UNL     1     -10.300   5.881  71.320  1.00  0.00    -0.276 A  
HETATM   20  C   UNL     1     -11.196   6.953  71.275  1.00  0.00    -0.306 A  
ENDBRANCH  14  15
ENDBRANCH  11  14
ENDBRANCH   9  10
ENDBRANCH   8   9
TORSDOF 4
ENDMDL
MODEL      224
REMARK 921   NORMALIZED FREE ENERGY PREDICTED BY IDOCK:   -3.45 KCAL/MOL
REMARK 922        TOTAL FREE ENERGY PREDICTED BY IDOCK:   -4.87 KCAL/MOL
REMARK 923 INTER-LIGAND FREE ENERGY PREDICTED BY IDOCK:   -4.51 KCAL/MOL
REMARK 924 INTRA-LIGAND FREE ENERGY PREDICTED BY IDOCK:   -0.36 KCAL/MOL
REMARK 927      BINDING AFFINITY PREDICTED BY RF-SCORE:    0.00 PKD
ROOT
HETATM    1  O   UNL     1      -8.328   8.958  71.196  1.00  0.00    -0.164 OA 
HETATM    2  N   UNL     1      -8.599   7.749  71.101  1.00  0.00    -0.128 N  
HETATM    3  C   UNL     1      -9.985   7.397  71.163  1.00  0.00    -0.185 A  
HETATM    4  O   UNL     1      -7.788   6.840  70.901  1.00  0.00    -0.095 OA 
HETATM    5  N   UNL     1     -10.444   6.354  71.824  1.00  0.00    -0.211 NA 
HETATM    6  C   UNL     1     -11.794   6.358  71.585  1.00  0.00    -0.306 A  
HETATM    7  C   UNL     1     -12.144   7.405  70.761  1.00  0.00    -0.200 A  
HETATM    8  N   UNL     1     -10.974   8.083  70.512  1.00  0.00    -0.246 NA 
ENDROOT
BRANCH   8   9
HETATM    9  C   UNL     1     -10.847   9.222  69.619  1.00  0.00    -0.212 C  
BRANCH   9  10
HETATM   10  C   UNL     1     -11.393  10.493  70.234  1.00  0.00    -0.327 C  
HETATM   11  N   UNL     1     -11.556  11.543  69.362  1.00  0.00    -0.292 N  
HETATM   12  O   UNL     1     -11.672  10.557  71.430  1.00  0.00    -0.259 OA 
HETATM   13  H   UNL     1     -11.305  11.412  68.382  1.00  0.00     0.000 HD 
BRANCH  11  14
HETATM   14  C   UNL     1     -12.071  12.829  69.785  1.00  0.00    -0.237 C  
BRANCH  14  15
HETATM   15  C   UNL     1     -11.307  13.956  69.141  1.00  0.00    -0.331 A  
HETATM   16  C   UNL     1     -11.510  15.280  69.560  1.00  0.00    -0.318 A  
HETATM   17  C   UNL     1     -10.800  16.329  68.971  1.00  0.00    -0.315 A  
HETATM   18  C   UNL     1      -9.889  16.068  67.952  1.00  0.00    -0.226 A  
HETATM   19  C   UNL     1      -9.685  14.758  67.518  1.00  0.00    -0.213 A  
HETATM   20  C   UNL     1     -10.394  13.707  68.107  1.00  0.00    -0.245 A  
ENDBRANCH  14  15
ENDBRANCH  11  14
ENDBRANCH   9  10
ENDBRANCH   8   9
TORSDOF 4
ENDMDL
MODEL      225
REMARK 921   NORMALIZED FREE ENERGY PREDICTED BY IDOCK:   -3.44 KCAL/MOL
REMARK 922        TOTAL FREE ENERGY PREDICTED BY IDOCK:   -4.86 KCAL/MOL
REMARK 923 INTER-LIGAND FREE ENERGY PREDICTED BY IDOCK:   -4.29 KCAL/MOL
REMARK 924 INTRA-LIGAND FREE ENERGY PREDICTED BY IDOCK:   -0.57 KCAL/MOL
REMARK 927      BINDING AFFINITY PREDICTED BY RF-SCORE:    0.00 PKD
ROOT
HETATM    1  O   UNL     1      -8.573   3.996  69.018  1.00  0.00    -0.079 OA 
HETATM    2  N   UNL     1      -9.389   3.804  69.936  1.00  0.00    -0.161 N  
HETATM    3  C   UNL     1     -10.090   4.955  70.418  1.00  0.00    -0.245 A  
HETATM    4  O   UNL     1      -9.687   2.709  70.421  1.00  0.00    -0.103 OA 
HETATM    5  N   UNL     1     -10.330   5.181  71.694  1.00  0.00    -0.211 NA 
HETATM    6  C   UNL     1     -11.054   6.345  71.710  1.00  0.00    -0.265 A  
HETATM    7  C   UNL     1     -11.262   6.812  70.432  1.00  0.00    -0.328 A  
HETATM    8  N   UNL     1     -10.618   5.922  69.606  1.00  0.00    -0.280 NA 
ENDROOT
BRANCH   8   9
HETATM    9  C   UNL     1     -10.635   5.970  68.155  1.00  0.00    -0.262 C  
BRANCH   9  10
HETATM   10  C   UNL     1      -9.678   7.008  67.607  1.00  0.00    -0.136 C  
HETATM   11  N   UNL     1     -10.184   7.803  66.606  1.00  0.00    -0.444 N  
HETATM   12  O   UNL     1      -8.535   7.119  68.045  1.00  0.00    -0.121 OA 
HETATM   13  H   UNL     1     -11.145   7.653  66.298  1.00  0.00     0.000 HD 
BRANCH  11  14
HETATM   14  C   UNL     1      -9.403   8.847  65.975  1.00  0.00    -0.242 C  
BRANCH  14  15
HETATM   15  C   UNL     1      -9.625  10.173  66.653  1.00  0.00    -0.230 A  
HETATM   16  C   UNL     1      -8.565  11.082  66.794  1.00  0.00    -0.152 A  
HETATM   17  C   UNL     1      -8.765  12.317  67.416  1.00  0.00    -0.180 A  
HETATM   18  C   UNL     1     -10.022  12.652  67.912  1.00  0.00    -0.228 A  
HETATM   19  C   UNL     1     -11.082  11.754  67.788  1.00  0.00    -0.302 A  
HETATM   20  C   UNL     1     -10.883  10.518  67.165  1.00  0.00    -0.319 A  
ENDBRANCH  14  15
ENDBRANCH  11  14
ENDBRANCH   9  10
ENDBRANCH   8   9
TORSDOF 4
ENDMDL
MODEL      226
REMARK 921   NORMALIZED FREE ENERGY PREDICTED BY IDOCK:   -3.41 KCAL/MOL
REMARK 922        TOTAL FREE ENERGY PREDICTED BY IDOCK:   -4.83 KCAL/MOL
REMARK 923 INTER-LIGAND FREE ENERGY PREDICTED BY IDOCK:   -4.12 KCAL/MOL
REMARK 924 INTRA-LIGAND FREE ENERGY PREDICTED BY IDOCK:   -0.70 KCAL/MOL
REMARK 927      BINDING AFFINITY PREDICTED BY RF-SCORE:    0.00 PKD
ROOT
HETATM    1  O   UNL     1     -11.126  11.220  68.670  1.00  0.00    -0.195 OA 
HETATM    2  N   UNL     1     -11.992  11.618  69.467  1.00  0.00    -0.320 N  
HETATM    3  C   UNL     1     -12.024  13.025  69.728  1.00  0.00    -0.308 A  
HETATM    4  O   UNL     1     -12.857  10.919  70.003  1.00  0.00    -0.213 OA 
HETATM    5  N   UNL     1     -12.212  13.541  70.925  1.00  0.00    -0.347 NA 
HETATM    6  C   UNL     1     -12.219  14.897  70.722  1.00  0.00    -0.325 A  
HETATM    7  C   UNL     1     -12.049  15.194  69.388  1.00  0.00    -0.260 A  
HETATM    8  N   UNL     1     -11.901  13.982  68.757  1.00  0.00    -0.344 NA 
ENDROOT
BRANCH   8   9
HETATM    9  C   UNL     1     -11.775  13.801  67.322  1.00  0.00    -0.382 C  
BRANCH   9  10
HETATM   10  C   UNL     1     -10.341  13.940  66.853  1.00  0.00    -0.266 C  
HETATM   11  N   UNL     1      -9.501  12.917  67.225  1.00  0.00    -0.209 N  
HETATM   12  O   UNL     1      -9.978  14.904  66.182  1.00  0.00    -0.270 OA 
HETATM   13  H   UNL     1      -9.878  12.149  67.780  1.00  0.00     0.000 HD 
BRANCH  11  14
HETATM   14  C   UNL     1      -8.100  12.892  66.857  1.00  0.00     0.039 C  
BRANCH  14  15
HETATM   15  C   UNL     1      -7.220  13.002  68.074  1.00  0.00    -0.119 A  
HETATM   16  C   UNL     1      -6.716  14.251  68.472  1.00  0.00    -0.099 A  
HETATM   17  C   UNL     1      -5.904  14.361  69.604  1.00  0.00    -0.105 A  
HETATM   18  C   UNL     1      -5.580  13.226  70.342  1.00  0.00    -0.158 A  
HETATM   19  C   UNL     1      -6.066  11.979  69.953  1.00  0.00    -0.150 A  
HETATM   20  C   UNL     1      -6.879  11.866  68.820  1.00  0.00    -0.093 A  
ENDBRANCH  14  15
ENDBRANCH  11  14
ENDBRANCH   9  10
ENDBRANCH   8   9
TORSDOF 4
ENDMDL
MODEL      227
REMARK 921   NORMALIZED FREE ENERGY PREDICTED BY IDOCK:   -3.38 KCAL/MOL
REMARK 922        TOTAL FREE ENERGY PREDICTED BY IDOCK:   -4.79 KCAL/MOL
REMARK 923 INTER-LIGAND FREE ENERGY PREDICTED BY IDOCK:   -4.41 KCAL/MOL
REMARK 924 INTRA-LIGAND FREE ENERGY PREDICTED BY IDOCK:   -0.38 KCAL/MOL
REMARK 927      BINDING AFFINITY PREDICTED BY RF-SCORE:    0.00 PKD
ROOT
HETATM    1  O   UNL     1      -8.178   9.163  70.209  1.00  0.00    -0.122 OA 
HETATM    2  N   UNL     1      -8.034   8.034  69.709  1.00  0.00    -0.113 N  
HETATM    3  C   UNL     1      -9.132   7.127  69.851  1.00  0.00    -0.141 A  
HETATM    4  O   UNL     1      -7.059   7.653  69.055  1.00  0.00    -0.074 OA 
HETATM    5  N   UNL     1      -8.988   5.848  70.132  1.00  0.00    -0.140 NA 
HETATM    6  C   UNL     1     -10.264   5.346  70.129  1.00  0.00    -0.272 A  
HETATM    7  C   UNL     1     -11.178   6.331  69.827  1.00  0.00    -0.430 A  
HETATM    8  N   UNL     1     -10.441   7.481  69.672  1.00  0.00    -0.229 NA 
ENDROOT
BRANCH   8   9
HETATM    9  C   UNL     1     -10.981   8.767  69.267  1.00  0.00     0.014 C  
BRANCH   9  10
HETATM   10  C   UNL     1     -10.604   9.122  67.844  1.00  0.00    -0.214 C  
HETATM   11  N   UNL     1     -10.294  10.444  67.632  1.00  0.00    -0.204 N  
HETATM   12  O   UNL     1     -10.575   8.270  66.958  1.00  0.00    -0.321 OA 
HETATM   13  H   UNL     1     -10.337  11.092  68.419  1.00  0.00     0.000 HD 
BRANCH  11  14
HETATM   14  C   UNL     1      -9.908  10.951  66.331  1.00  0.00    -0.207 C  
BRANCH  14  15
HETATM   15  C   UNL     1     -10.421  12.352  66.123  1.00  0.00    -0.274 A  
HETATM   16  C   UNL     1     -11.745  12.677  66.454  1.00  0.00    -0.466 A  
HETATM   17  C   UNL     1     -12.225  13.977  66.270  1.00  0.00    -0.493 A  
HETATM   18  C   UNL     1     -11.391  14.960  65.745  1.00  0.00    -0.314 A  
HETATM   19  C   UNL     1     -10.076  14.648  65.403  1.00  0.00    -0.403 A  
HETATM   20  C   UNL     1      -9.593  13.348  65.587  1.00  0.00    -0.011 A  
ENDBRANCH  14  15
ENDBRANCH  11  14
ENDBRANCH   9  10
ENDBRANCH   8   9
TORSDOF 4
ENDMDL
MODEL      228
REMARK 921   NORMALIZED FREE ENERGY PREDICTED BY IDOCK:   -3.38 KCAL/MOL
REMARK 922        TOTAL FREE ENERGY PREDICTED BY IDOCK:   -4.78 KCAL/MOL
REMARK 923 INTER-LIGAND FREE ENERGY PREDICTED BY IDOCK:   -4.32 KCAL/MOL
REMARK 924 INTRA-LIGAND FREE ENERGY PREDICTED BY IDOCK:   -0.46 KCAL/MOL
REMARK 927      BINDING AFFINITY PREDICTED BY RF-SCORE:    0.00 PKD
ROOT
HETATM    1  O   UNL     1      -9.639   9.704  65.038  1.00  0.00    -0.280 OA 
HETATM    2  N   UNL     1      -8.876   9.472  65.990  1.00  0.00    -0.149 N  
HETATM    3  C   UNL     1      -8.316  10.611  66.652  1.00  0.00    -0.136 A  
HETATM    4  O   UNL     1      -8.609   8.357  66.448  1.00  0.00    -0.116 OA 
HETATM    5  N   UNL     1      -7.063  10.678  67.054  1.00  0.00    -0.095 NA 
HETATM    6  C   UNL     1      -6.960  11.898  67.670  1.00  0.00    -0.112 A  
HETATM    7  C   UNL     1      -8.167  12.560  67.652  1.00  0.00    -0.172 A  
HETATM    8  N   UNL     1      -9.031  11.733  66.974  1.00  0.00    -0.180 NA 
ENDROOT
BRANCH   8   9
HETATM    9  C   UNL     1     -10.447  11.988  66.778  1.00  0.00    -0.214 C  
BRANCH   9  10
HETATM   10  C   UNL     1     -11.216  11.964  68.082  1.00  0.00    -0.258 C  
HETATM   11  N   UNL     1     -10.887  10.940  68.939  1.00  0.00    -0.203 N  
HETATM   12  O   UNL     1     -12.065  12.815  68.340  1.00  0.00    -0.276 OA 
HETATM   13  H   UNL     1     -10.169  10.274  68.655  1.00  0.00     0.000 HD 
BRANCH  11  14
HETATM   14  C   UNL     1     -11.525  10.774  70.229  1.00  0.00    -0.319 C  
BRANCH  14  15
HETATM   15  C   UNL     1     -11.510   9.330  70.656  1.00  0.00    -0.327 A  
HETATM   16  C   UNL     1     -11.840   8.979  71.975  1.00  0.00    -0.426 A  
HETATM   17  C   UNL     1     -11.835   7.641  72.376  1.00  0.00    -0.336 A  
HETATM   18  C   UNL     1     -11.492   6.642  71.469  1.00  0.00    -0.343 A  
HETATM   19  C   UNL     1     -11.153   6.978  70.159  1.00  0.00    -0.323 A  
HETATM   20  C   UNL     1     -11.158   8.316  69.755  1.00  0.00    -0.056 A  
ENDBRANCH  14  15
ENDBRANCH  11  14
ENDBRANCH   9  10
ENDBRANCH   8   9
TORSDOF 4
ENDMDL
MODEL      229
REMARK 921   NORMALIZED FREE ENERGY PREDICTED BY IDOCK:   -3.36 KCAL/MOL
REMARK 922        TOTAL FREE ENERGY PREDICTED BY IDOCK:   -4.76 KCAL/MOL
REMARK 923 INTER-LIGAND FREE ENERGY PREDICTED BY IDOCK:   -4.16 KCAL/MOL
REMARK 924 INTRA-LIGAND FREE ENERGY PREDICTED BY IDOCK:   -0.60 KCAL/MOL
REMARK 927      BINDING AFFINITY PREDICTED BY RF-SCORE:    0.00 PKD
ROOT
HETATM    1  O   UNL     1      -8.953  10.662  67.382  1.00  0.00    -0.136 OA 
HETATM    2  N   UNL     1      -8.050  10.865  66.554  1.00  0.00    -0.149 N  
HETATM    3  C   UNL     1      -8.268  10.358  65.233  1.00  0.00    -0.162 A  
HETATM    4  O   UNL     1      -7.017  11.510  66.754  1.00  0.00    -0.137 OA 
HETATM    5  N   UNL     1      -7.333   9.773  64.512  1.00  0.00    -0.129 NA 
HETATM    6  C   UNL     1      -7.942   9.491  63.317  1.00  0.00    -0.143 A  
HETATM    7  C   UNL     1      -9.249   9.925  63.316  1.00  0.00    -0.238 A  
HETATM    8  N   UNL     1      -9.458  10.464  64.564  1.00  0.00    -0.259 NA 
ENDROOT
BRANCH   8   9
HETATM    9  C   UNL     1     -10.679  11.121  64.993  1.00  0.00    -0.231 C  
BRANCH   9  10
HETATM   10  C   UNL     1     -10.628  12.619  64.776  1.00  0.00    -0.317 C  
HETATM   11  N   UNL     1     -10.022  13.336  65.780  1.00  0.00    -0.367 N  
HETATM   12  O   UNL     1     -11.094  13.135  63.763  1.00  0.00    -0.371 OA 
HETATM   13  H   UNL     1      -9.655  12.835  66.589  1.00  0.00     0.000 HD 
BRANCH  11  14
HETATM   14  C   UNL     1      -9.885  14.777  65.729  1.00  0.00    -0.342 C  
BRANCH  14  15
HETATM   15  C   UNL     1      -9.074  15.284  66.893  1.00  0.00    -0.263 A  
HETATM   16  C   UNL     1      -7.672  15.235  66.853  1.00  0.00    -0.108 A  
HETATM   17  C   UNL     1      -6.914  15.711  67.926  1.00  0.00    -0.155 A  
HETATM   18  C   UNL     1      -7.547  16.229  69.052  1.00  0.00    -0.219 A  
HETATM   19  C   UNL     1      -8.940  16.274  69.109  1.00  0.00    -0.219 A  
HETATM   20  C   UNL     1      -9.701  15.800  68.035  1.00  0.00    -0.212 A  
ENDBRANCH  14  15
ENDBRANCH  11  14
ENDBRANCH   9  10
ENDBRANCH   8   9
TORSDOF 4
ENDMDL
MODEL      230
REMARK 921   NORMALIZED FREE ENERGY PREDICTED BY IDOCK:   -3.34 KCAL/MOL
REMARK 922        TOTAL FREE ENERGY PREDICTED BY IDOCK:   -4.73 KCAL/MOL
REMARK 923 INTER-LIGAND FREE ENERGY PREDICTED BY IDOCK:   -3.97 KCAL/MOL
REMARK 924 INTRA-LIGAND FREE ENERGY PREDICTED BY IDOCK:   -0.76 KCAL/MOL
REMARK 927      BINDING AFFINITY PREDICTED BY RF-SCORE:    0.00 PKD
ROOT
HETATM    1  O   UNL     1     -10.355  11.534  66.113  1.00  0.00    -0.229 OA 
HETATM    2  N   UNL     1     -11.109  12.496  65.887  1.00  0.00    -0.288 N  
HETATM    3  C   UNL     1     -11.068  13.575  66.826  1.00  0.00    -0.299 A  
HETATM    4  O   UNL     1     -11.839  12.625  64.900  1.00  0.00    -0.347 OA 
HETATM    5  N   UNL     1     -12.140  14.211  67.253  1.00  0.00    -0.413 NA 
HETATM    6  C   UNL     1     -11.655  15.185  68.088  1.00  0.00    -0.341 A  
HETATM    7  C   UNL     1     -10.281  15.142  68.148  1.00  0.00    -0.227 A  
HETATM    8  N   UNL     1      -9.911  14.086  67.349  1.00  0.00    -0.236 NA 
ENDROOT
BRANCH   8   9
HETATM    9  C   UNL     1      -8.541  13.710  67.048  1.00  0.00    -0.159 C  
BRANCH   9  10
HETATM   10  C   UNL     1      -7.930  12.855  68.139  1.00  0.00    -0.153 C  
HETATM   11  N   UNL     1      -8.408  11.569  68.212  1.00  0.00    -0.148 N  
HETATM   12  O   UNL     1      -7.064  13.299  68.890  1.00  0.00    -0.103 OA 
HETATM   13  H   UNL     1      -9.125  11.272  67.550  1.00  0.00     0.000 HD 
BRANCH  11  14
HETATM   14  C   UNL     1      -7.929  10.619  69.195  1.00  0.00    -0.139 C  
BRANCH  14  15
HETATM   15  C   UNL     1      -8.578   9.273  69.008  1.00  0.00    -0.134 A  
HETATM   16  C   UNL     1      -7.826   8.097  69.154  1.00  0.00    -0.107 A  
HETATM   17  C   UNL     1      -8.425   6.845  68.989  1.00  0.00    -0.128 A  
HETATM   18  C   UNL     1      -9.776   6.756  68.666  1.00  0.00    -0.131 A  
HETATM   19  C   UNL     1     -10.533   7.916  68.508  1.00  0.00    -0.202 A  
HETATM   20  C   UNL     1      -9.936   9.170  68.674  1.00  0.00    -0.185 A  
ENDBRANCH  14  15
ENDBRANCH  11  14
ENDBRANCH   9  10
ENDBRANCH   8   9
TORSDOF 4
ENDMDL
MODEL      231
REMARK 921   NORMALIZED FREE ENERGY PREDICTED BY IDOCK:   -3.32 KCAL/MOL
REMARK 922        TOTAL FREE ENERGY PREDICTED BY IDOCK:   -4.72 KCAL/MOL
REMARK 923 INTER-LIGAND FREE ENERGY PREDICTED BY IDOCK:   -4.36 KCAL/MOL
REMARK 924 INTRA-LIGAND FREE ENERGY PREDICTED BY IDOCK:   -0.36 KCAL/MOL
REMARK 927      BINDING AFFINITY PREDICTED BY RF-SCORE:    0.00 PKD
ROOT
HETATM    1  O   UNL     1      -9.706  13.001  67.611  1.00  0.00    -0.202 OA 
HETATM    2  N   UNL     1     -10.519  13.411  66.766  1.00  0.00    -0.272 N  
HETATM    3  C   UNL     1     -10.531  12.730  65.507  1.00  0.00    -0.287 A  
HETATM    4  O   UNL     1     -11.349  14.309  66.937  1.00  0.00    -0.317 OA 
HETATM    5  N   UNL     1     -10.641  13.345  64.347  1.00  0.00    -0.426 NA 
HETATM    6  C   UNL     1     -10.658  12.335  63.419  1.00  0.00    -0.385 A  
HETATM    7  C   UNL     1     -10.573  11.105  64.032  1.00  0.00    -0.368 A  
HETATM    8  N   UNL     1     -10.468  11.370  65.377  1.00  0.00    -0.272 NA 
ENDROOT
BRANCH   8   9
HETATM    9  C   UNL     1     -10.434  10.363  66.423  1.00  0.00    -0.177 C  
BRANCH   9  10
HETATM   10  C   UNL     1      -9.186   9.508  66.351  1.00  0.00    -0.166 C  
HETATM   11  N   UNL     1      -9.279   8.402  65.541  1.00  0.00    -0.416 N  
HETATM   12  O   UNL     1      -8.170   9.805  66.977  1.00  0.00    -0.116 OA 
HETATM   13  H   UNL     1     -10.156   8.224  65.051  1.00  0.00     0.000 HD 
BRANCH  11  14
HETATM   14  C   UNL     1      -8.177   7.480  65.357  1.00  0.00    -0.135 C  
BRANCH  14  15
HETATM   15  C   UNL     1      -8.506   6.124  65.922  1.00  0.00    -0.145 A  
HETATM   16  C   UNL     1      -7.478   5.238  66.283  1.00  0.00    -0.087 A  
HETATM   17  C   UNL     1      -7.777   3.981  66.814  1.00  0.00    -0.089 A  
HETATM   18  C   UNL     1      -9.103   3.592  66.981  1.00  0.00    -0.186 A  
HETATM   19  C   UNL     1     -10.134   4.458  66.617  1.00  0.00    -0.197 A  
HETATM   20  C   UNL     1      -9.837   5.717  66.086  1.00  0.00    -0.114 A  
ENDBRANCH  14  15
ENDBRANCH  11  14
ENDBRANCH   9  10
ENDBRANCH   8   9
TORSDOF 4
ENDMDL
MODEL      232
REMARK 921   NORMALIZED FREE ENERGY PREDICTED BY IDOCK:   -3.31 KCAL/MOL
REMARK 922        TOTAL FREE ENERGY PREDICTED BY IDOCK:   -4.71 KCAL/MOL
REMARK 923 INTER-LIGAND FREE ENERGY PREDICTED BY IDOCK:   -4.03 KCAL/MOL
REMARK 924 INTRA-LIGAND FREE ENERGY PREDICTED BY IDOCK:   -0.67 KCAL/MOL
REMARK 927      BINDING AFFINITY PREDICTED BY RF-SCORE:    0.00 PKD
ROOT
HETATM    1  O   UNL     1     -11.523   6.550  71.379  1.00  0.00    -0.282 OA 
HETATM    2  N   UNL     1     -10.910   5.815  72.170  1.00  0.00    -0.234 N  
HETATM    3  C   UNL     1      -9.586   5.427  71.787  1.00  0.00    -0.149 A  
HETATM    4  O   UNL     1     -11.316   5.442  73.275  1.00  0.00    -0.289 OA 
HETATM    5  N   UNL     1      -9.104   4.213  71.957  1.00  0.00    -0.118 NA 
HETATM    6  C   UNL     1      -7.811   4.287  71.506  1.00  0.00    -0.081 A  
HETATM    7  C   UNL     1      -7.512   5.561  71.078  1.00  0.00    -0.089 A  
HETATM    8  N   UNL     1      -8.669   6.285  71.242  1.00  0.00    -0.135 NA 
ENDROOT
BRANCH   8   9
HETATM    9  C   UNL     1      -8.802   7.709  70.993  1.00  0.00    -0.142 C  
BRANCH   9  10
HETATM   10  C   UNL     1      -9.057   8.012  69.531  1.00  0.00    -0.152 C  
HETATM   11  N   UNL     1     -10.337   8.414  69.231  1.00  0.00    -0.213 N  
HETATM   12  O   UNL     1      -8.166   7.907  68.691  1.00  0.00    -0.124 OA 
HETATM   13  H   UNL     1     -11.021   8.481  69.984  1.00  0.00     0.000 HD 
BRANCH  11  14
HETATM   14  C   UNL     1     -10.749   8.745  67.882  1.00  0.00    -0.107 C  
BRANCH  14  15
HETATM   15  C   UNL     1     -10.822  10.237  67.691  1.00  0.00    -0.363 A  
HETATM   16  C   UNL     1     -10.241  10.836  66.562  1.00  0.00    -0.287 A  
HETATM   17  C   UNL     1     -10.312  12.219  66.375  1.00  0.00    -0.250 A  
HETATM   18  C   UNL     1     -10.954  13.017  67.317  1.00  0.00    -0.288 A  
HETATM   19  C   UNL     1     -11.527  12.437  68.448  1.00  0.00    -0.356 A  
HETATM   20  C   UNL     1     -11.458  11.053  68.637  1.00  0.00    -0.375 A  
ENDBRANCH  14  15
ENDBRANCH  11  14
ENDBRANCH   9  10
ENDBRANCH   8   9
TORSDOF 4
ENDMDL
MODEL      233
REMARK 921   NORMALIZED FREE ENERGY PREDICTED BY IDOCK:   -3.31 KCAL/MOL
REMARK 922        TOTAL FREE ENERGY PREDICTED BY IDOCK:   -4.70 KCAL/MOL
REMARK 923 INTER-LIGAND FREE ENERGY PREDICTED BY IDOCK:   -4.13 KCAL/MOL
REMARK 924 INTRA-LIGAND FREE ENERGY PREDICTED BY IDOCK:   -0.57 KCAL/MOL
REMARK 927      BINDING AFFINITY PREDICTED BY RF-SCORE:    0.00 PKD
ROOT
HETATM    1  O   UNL     1     -10.688   7.357  66.911  1.00  0.00    -0.346 OA 
HETATM    2  N   UNL     1      -9.564   7.114  66.440  1.00  0.00    -0.141 N  
HETATM    3  C   UNL     1      -8.851   8.222  65.881  1.00  0.00    -0.160 A  
HETATM    4  O   UNL     1      -8.989   6.021  66.468  1.00  0.00    -0.125 OA 
HETATM    5  N   UNL     1      -8.156   8.153  64.764  1.00  0.00    -0.150 NA 
HETATM    6  C   UNL     1      -7.605   9.400  64.619  1.00  0.00    -0.109 A  
HETATM    7  C   UNL     1      -7.961  10.218  65.668  1.00  0.00    -0.150 A  
HETATM    8  N   UNL     1      -8.783   9.458  66.465  1.00  0.00    -0.133 NA 
ENDROOT
BRANCH   8   9
HETATM    9  C   UNL     1      -9.338   9.886  67.737  1.00  0.00    -0.140 C  
BRANCH   9  10
HETATM   10  C   UNL     1     -10.375  10.977  67.568  1.00  0.00    -0.198 C  
HETATM   11  N   UNL     1     -10.263  12.033  68.441  1.00  0.00    -0.206 N  
HETATM   12  O   UNL     1     -11.242  10.907  66.700  1.00  0.00    -0.207 OA 
HETATM   13  H   UNL     1      -9.513  12.021  69.133  1.00  0.00     0.000 HD 
BRANCH  11  14
HETATM   14  C   UNL     1     -11.170  13.162  68.414  1.00  0.00    -0.271 C  
BRANCH  14  15
HETATM   15  C   UNL     1     -10.626  14.272  67.555  1.00  0.00    -0.261 A  
HETATM   16  C   UNL     1      -9.720  15.202  68.089  1.00  0.00    -0.217 A  
HETATM   17  C   UNL     1      -9.207  16.231  67.296  1.00  0.00    -0.217 A  
HETATM   18  C   UNL     1      -9.599  16.347  65.965  1.00  0.00    -0.352 A  
HETATM   19  C   UNL     1     -10.505  15.436  65.424  1.00  0.00    -0.426 A  
HETATM   20  C   UNL     1     -11.021  14.406  66.216  1.00  0.00    -0.318 A  
ENDBRANCH  14  15
ENDBRANCH  11  14
ENDBRANCH   9  10
ENDBRANCH   8   9
TORSDOF 4
ENDMDL
MODEL      234
REMARK 921   NORMALIZED FREE ENERGY PREDICTED BY IDOCK:   -3.29 KCAL/MOL
REMARK 922        TOTAL FREE ENERGY PREDICTED BY IDOCK:   -4.68 KCAL/MOL
REMARK 923 INTER-LIGAND FREE ENERGY PREDICTED BY IDOCK:   -4.25 KCAL/MOL
REMARK 924 INTRA-LIGAND FREE ENERGY PREDICTED BY IDOCK:   -0.43 KCAL/MOL
REMARK 927      BINDING AFFINITY PREDICTED BY RF-SCORE:    0.00 PKD
ROOT
HETATM    1  O   UNL     1     -11.402   7.458  73.139  1.00  0.00    -0.298 OA 
HETATM    2  N   UNL     1     -11.962   8.393  72.543  1.00  0.00    -0.389 N  
HETATM    3  C   UNL     1     -11.444   8.731  71.252  1.00  0.00    -0.292 A  
HETATM    4  O   UNL     1     -12.956   9.011  72.939  1.00  0.00    -0.328 OA 
HETATM    5  N   UNL     1     -11.289   9.970  70.830  1.00  0.00    -0.346 NA 
HETATM    6  C   UNL     1     -10.821   9.843  69.548  1.00  0.00    -0.246 A  
HETATM    7  C   UNL     1     -10.709   8.517  69.194  1.00  0.00    -0.110 A  
HETATM    8  N   UNL     1     -11.091   7.806  70.307  1.00  0.00    -0.255 NA 
ENDROOT
BRANCH   8   9
HETATM    9  C   UNL     1     -11.207   6.360  70.372  1.00  0.00    -0.372 C  
BRANCH   9  10
HETATM   10  C   UNL     1      -9.926   5.666  69.960  1.00  0.00    -0.204 C  
HETATM   11  N   UNL     1     -10.044   4.797  68.901  1.00  0.00    -0.127 N  
HETATM   12  O   UNL     1      -8.864   5.885  70.539  1.00  0.00    -0.140 OA 
HETATM   13  H   UNL     1     -10.959   4.671  68.468  1.00  0.00     0.000 HD 
BRANCH  11  14
HETATM   14  C   UNL     1      -8.915   4.055  68.378  1.00  0.00    -0.118 C  
BRANCH  14  15
HETATM   15  C   UNL     1      -9.157   3.638  66.951  1.00  0.00    -0.182 A  
HETATM   16  C   UNL     1      -8.519   2.503  66.427  1.00  0.00    -0.099 A  
HETATM   17  C   UNL     1      -8.745   2.106  65.107  1.00  0.00    -0.117 A  
HETATM   18  C   UNL     1      -9.601   2.845  64.294  1.00  0.00    -0.152 A  
HETATM   19  C   UNL     1     -10.233   3.980  64.798  1.00  0.00    -0.223 A  
HETATM   20  C   UNL     1     -10.009   4.378  66.120  1.00  0.00    -0.256 A  
ENDBRANCH  14  15
ENDBRANCH  11  14
ENDBRANCH   9  10
ENDBRANCH   8   9
TORSDOF 4
ENDMDL
MODEL      235
REMARK 921   NORMALIZED FREE ENERGY PREDICTED BY IDOCK:   -3.27 KCAL/MOL
REMARK 922        TOTAL FREE ENERGY PREDICTED BY IDOCK:   -4.66 KCAL/MOL
REMARK 923 INTER-LIGAND FREE ENERGY PREDICTED BY IDOCK:   -4.23 KCAL/MOL
REMARK 924 INTRA-LIGAND FREE ENERGY PREDICTED BY IDOCK:   -0.43 KCAL/MOL
REMARK 927      BINDING AFFINITY PREDICTED BY RF-SCORE:    0.00 PKD
ROOT
HETATM    1  O   UNL     1     -11.221   4.112  64.698  1.00  0.00    -0.331 OA 
HETATM    2  N   UNL     1     -10.197   3.773  64.082  1.00  0.00    -0.220 N  
HETATM    3  C   UNL     1      -9.119   4.716  64.066  1.00  0.00    -0.088 A  
HETATM    4  O   UNL     1     -10.008   2.681  63.538  1.00  0.00    -0.126 OA 
HETATM    5  N   UNL     1      -8.385   4.965  63.000  1.00  0.00    -0.110 NA 
HETATM    6  C   UNL     1      -7.453   5.876  63.427  1.00  0.00    -0.070 A  
HETATM    7  C   UNL     1      -7.622   6.162  64.763  1.00  0.00    -0.092 A  
HETATM    8  N   UNL     1      -8.712   5.426  65.162  1.00  0.00    -0.150 NA 
ENDROOT
BRANCH   8   9
HETATM    9  C   UNL     1      -9.213   5.351  66.523  1.00  0.00    -0.138 C  
BRANCH   9  10
HETATM   10  C   UNL     1     -10.045   6.562  66.893  1.00  0.00    -0.192 C  
HETATM   11  N   UNL     1      -9.330   7.706  67.154  1.00  0.00    -0.140 N  
HETATM   12  O   UNL     1     -11.272   6.505  66.941  1.00  0.00    -0.387 OA 
HETATM   13  H   UNL     1      -8.313   7.676  67.090  1.00  0.00     0.000 HD 
BRANCH  11  14
HETATM   14  C   UNL     1      -9.970   8.954  67.519  1.00  0.00    -0.203 C  
BRANCH  14  15
HETATM   15  C   UNL     1     -10.091   9.867  66.328  1.00  0.00    -0.311 A  
HETATM   16  C   UNL     1     -10.830  11.057  66.420  1.00  0.00    -0.253 A  
HETATM   17  C   UNL     1     -10.940  11.912  65.320  1.00  0.00    -0.354 A  
HETATM   18  C   UNL     1     -10.322  11.584  64.117  1.00  0.00    -0.386 A  
HETATM   19  C   UNL     1      -9.593  10.400  64.009  1.00  0.00    -0.376 A  
HETATM   20  C   UNL     1      -9.481   9.543  65.108  1.00  0.00    -0.305 A  
ENDBRANCH  14  15
ENDBRANCH  11  14
ENDBRANCH   9  10
ENDBRANCH   8   9
TORSDOF 4
ENDMDL
MODEL      236
REMARK 921   NORMALIZED FREE ENERGY PREDICTED BY IDOCK:   -3.27 KCAL/MOL
REMARK 922        TOTAL FREE ENERGY PREDICTED BY IDOCK:   -4.66 KCAL/MOL
REMARK 923 INTER-LIGAND FREE ENERGY PREDICTED BY IDOCK:   -4.26 KCAL/MOL
REMARK 924 INTRA-LIGAND FREE ENERGY PREDICTED BY IDOCK:   -0.39 KCAL/MOL
REMARK 927      BINDING AFFINITY PREDICTED BY RF-SCORE:    0.00 PKD
ROOT
HETATM    1  O   UNL     1      -8.055   6.512  66.268  1.00  0.00    -0.107 OA 
HETATM    2  N   UNL     1      -7.442   6.965  65.287  1.00  0.00    -0.084 N  
HETATM    3  C   UNL     1      -8.004   8.123  64.662  1.00  0.00    -0.149 A  
HETATM    4  O   UNL     1      -6.369   6.542  64.846  1.00  0.00    -0.039 OA 
HETATM    5  N   UNL     1      -8.060   8.292  63.356  1.00  0.00    -0.155 NA 
HETATM    6  C   UNL     1      -8.618   9.534  63.191  1.00  0.00    -0.217 A  
HETATM    7  C   UNL     1      -8.884  10.119  64.408  1.00  0.00    -0.211 A  
HETATM    8  N   UNL     1      -8.506   9.193  65.352  1.00  0.00    -0.140 NA 
ENDROOT
BRANCH   8   9
HETATM    9  C   UNL     1      -8.532   9.410  66.787  1.00  0.00    -0.127 C  
BRANCH   9  10
HETATM   10  C   UNL     1      -9.935   9.660  67.301  1.00  0.00    -0.197 C  
HETATM   11  N   UNL     1     -10.059  10.711  68.179  1.00  0.00    -0.155 N  
HETATM   12  O   UNL     1     -10.882   8.965  66.940  1.00  0.00    -0.162 OA 
HETATM   13  H   UNL     1      -9.226  11.244  68.428  1.00  0.00     0.000 HD 
BRANCH  11  14
HETATM   14  C   UNL     1     -11.330  11.088  68.762  1.00  0.00    -0.283 C  
BRANCH  14  15
HETATM   15  C   UNL     1     -11.600  10.308  70.021  1.00  0.00    -0.349 A  
HETATM   16  C   UNL     1     -10.546   9.683  70.707  1.00  0.00    -0.392 A  
HETATM   17  C   UNL     1     -10.789   8.964  71.879  1.00  0.00    -0.433 A  
HETATM   18  C   UNL     1     -12.086   8.853  72.373  1.00  0.00    -0.344 A  
HETATM   19  C   UNL     1     -13.143   9.459  71.697  1.00  0.00    -0.471 A  
HETATM   20  C   UNL     1     -12.902  10.181  70.523  1.00  0.00    -0.248 A  
ENDBRANCH  14  15
ENDBRANCH  11  14
ENDBRANCH   9  10
ENDBRANCH   8   9
TORSDOF 4
ENDMDL
MODEL      237
REMARK 921   NORMALIZED FREE ENERGY PREDICTED BY IDOCK:   -3.26 KCAL/MOL
REMARK 922        TOTAL FREE ENERGY PREDICTED BY IDOCK:   -4.64 KCAL/MOL
REMARK 923 INTER-LIGAND FREE ENERGY PREDICTED BY IDOCK:   -4.41 KCAL/MOL
REMARK 924 INTRA-LIGAND FREE ENERGY PREDICTED BY IDOCK:   -0.23 KCAL/MOL
REMARK 927      BINDING AFFINITY PREDICTED BY RF-SCORE:    0.00 PKD
ROOT
HETATM    1  O   UNL     1     -10.156  10.749  66.289  1.00  0.00    -0.217 OA 
HETATM    2  N   UNL     1     -10.982  11.677  66.332  1.00  0.00    -0.289 N  
HETATM    3  C   UNL     1     -10.838  12.612  67.406  1.00  0.00    -0.243 A  
HETATM    4  O   UNL     1     -11.870  11.892  65.502  1.00  0.00    -0.364 OA 
HETATM    5  N   UNL     1     -11.854  13.103  68.086  1.00  0.00    -0.352 NA 
HETATM    6  C   UNL     1     -11.286  13.981  68.972  1.00  0.00    -0.276 A  
HETATM    7  C   UNL     1      -9.919  14.028  68.810  1.00  0.00    -0.162 A  
HETATM    8  N   UNL     1      -9.636  13.125  67.813  1.00  0.00    -0.201 NA 
ENDROOT
BRANCH   8   9
HETATM    9  C   UNL     1      -8.318  12.895  67.248  1.00  0.00    -0.185 C  
BRANCH   9  10
HETATM   10  C   UNL     1      -7.236  13.636  68.005  1.00  0.00    -0.130 C  
HETATM   11  N   UNL     1      -7.099  14.965  67.681  1.00  0.00    -0.172 N  
HETATM   12  O   UNL     1      -6.545  13.071  68.850  1.00  0.00    -0.084 OA 
HETATM   13  H   UNL     1      -7.713  15.364  66.971  1.00  0.00     0.000 HD 
BRANCH  11  14
HETATM   14  C   UNL     1      -6.115  15.819  68.313  1.00  0.00    -0.113 C  
BRANCH  14  15
HETATM   15  C   UNL     1      -6.649  17.215  68.499  1.00  0.00    -0.167 A  
HETATM   16  C   UNL     1      -5.819  18.231  68.997  1.00  0.00    -0.212 A  
HETATM   17  C   UNL     1      -6.307  19.529  69.165  1.00  0.00    -0.335 A  
HETATM   18  C   UNL     1      -7.630  19.823  68.846  1.00  0.00    -0.285 A  
HETATM   19  C   UNL     1      -8.468  18.821  68.360  1.00  0.00    -0.374 A  
HETATM   20  C   UNL     1      -7.982  17.521  68.191  1.00  0.00    -0.250 A  
ENDBRANCH  14  15
ENDBRANCH  11  14
ENDBRANCH   9  10
ENDBRANCH   8   9
TORSDOF 4
ENDMDL
MODEL      238
REMARK 921   NORMALIZED FREE ENERGY PREDICTED BY IDOCK:   -3.26 KCAL/MOL
REMARK 922        TOTAL FREE ENERGY PREDICTED BY IDOCK:   -4.64 KCAL/MOL
REMARK 923 INTER-LIGAND FREE ENERGY PREDICTED BY IDOCK:   -4.00 KCAL/MOL
REMARK 924 INTRA-LIGAND FREE ENERGY PREDICTED BY IDOCK:   -0.64 KCAL/MOL
REMARK 927      BINDING AFFINITY PREDICTED BY RF-SCORE:    0.00 PKD
ROOT
HETATM    1  O   UNL     1      -7.441  16.616  66.497  1.00  0.00    -0.252 OA 
HETATM    2  N   UNL     1      -7.611  17.119  67.620  1.00  0.00    -0.165 N  
HETATM    3  C   UNL     1      -8.796  17.901  67.799  1.00  0.00    -0.251 A  
HETATM    4  O   UNL     1      -6.883  16.954  68.603  1.00  0.00    -0.164 OA 
HETATM    5  N   UNL     1      -8.826  19.038  68.463  1.00  0.00    -0.352 NA 
HETATM    6  C   UNL     1     -10.142  19.423  68.433  1.00  0.00    -0.444 A  
HETATM    7  C   UNL     1     -10.909  18.499  67.759  1.00  0.00    -0.247 A  
HETATM    8  N   UNL     1     -10.029  17.532  67.333  1.00  0.00    -0.304 NA 
ENDROOT
BRANCH   8   9
HETATM    9  C   UNL     1     -10.405  16.311  66.642  1.00  0.00    -0.302 C  
BRANCH   9  10
HETATM   10  C   UNL     1     -10.551  15.140  67.591  1.00  0.00    -0.263 C  
HETATM   11  N   UNL     1      -9.438  14.345  67.717  1.00  0.00    -0.207 N  
HETATM   12  O   UNL     1     -11.599  14.938  68.202  1.00  0.00    -0.315 OA 
HETATM   13  H   UNL     1      -8.603  14.579  67.179  1.00  0.00     0.000 HD 
BRANCH  11  14
HETATM   14  C   UNL     1      -9.406  13.186  68.586  1.00  0.00     0.012 C  
BRANCH  14  15
HETATM   15  C   UNL     1      -8.546  12.096  68.003  1.00  0.00    -0.175 A  
HETATM   16  C   UNL     1      -7.328  11.754  68.610  1.00  0.00    -0.115 A  
HETATM   17  C   UNL     1      -6.528  10.739  68.078  1.00  0.00    -0.062 A  
HETATM   18  C   UNL     1      -6.932  10.064  66.930  1.00  0.00    -0.089 A  
HETATM   19  C   UNL     1      -8.135  10.400  66.311  1.00  0.00    -0.136 A  
HETATM   20  C   UNL     1      -8.937  11.415  66.842  1.00  0.00    -0.171 A  
ENDBRANCH  14  15
ENDBRANCH  11  14
ENDBRANCH   9  10
ENDBRANCH   8   9
TORSDOF 4
ENDMDL
MODEL      239
REMARK 921   NORMALIZED FREE ENERGY PREDICTED BY IDOCK:   -3.21 KCAL/MOL
REMARK 922        TOTAL FREE ENERGY PREDICTED BY IDOCK:   -4.58 KCAL/MOL
REMARK 923 INTER-LIGAND FREE ENERGY PREDICTED BY IDOCK:   -3.98 KCAL/MOL
REMARK 924 INTRA-LIGAND FREE ENERGY PREDICTED BY IDOCK:   -0.61 KCAL/MOL
REMARK 927      BINDING AFFINITY PREDICTED BY RF-SCORE:    0.00 PKD
ROOT
HETATM    1  O   UNL     1     -11.255   4.885  73.106  1.00  0.00    -0.293 OA 
HETATM    2  N   UNL     1     -10.084   4.710  72.730  1.00  0.00    -0.164 N  
HETATM    3  C   UNL     1      -9.883   4.528  71.325  1.00  0.00    -0.190 A  
HETATM    4  O   UNL     1      -9.082   4.740  73.451  1.00  0.00    -0.111 OA 
HETATM    5  N   UNL     1      -9.048   3.644  70.817  1.00  0.00    -0.100 NA 
HETATM    6  C   UNL     1      -9.127   3.832  69.461  1.00  0.00    -0.134 A  
HETATM    7  C   UNL     1     -10.005   4.848  69.156  1.00  0.00    -0.182 A  
HETATM    8  N   UNL     1     -10.506   5.276  70.363  1.00  0.00    -0.272 NA 
ENDROOT
BRANCH   8   9
HETATM    9  C   UNL     1     -11.415   6.394  70.538  1.00  0.00    -0.379 C  
BRANCH   9  10
HETATM   10  C   UNL     1     -10.701   7.728  70.463  1.00  0.00    -0.236 C  
HETATM   11  N   UNL     1     -11.145   8.576  69.477  1.00  0.00    -0.432 N  
HETATM   12  O   UNL     1      -9.795   8.013  71.244  1.00  0.00    -0.160 OA 
HETATM   13  H   UNL     1     -11.905   8.269  68.870  1.00  0.00     0.000 HD 
BRANCH  11  14
HETATM   14  C   UNL     1     -10.573   9.891  69.271  1.00  0.00    -0.224 C  
BRANCH  14  15
HETATM   15  C   UNL     1      -9.661   9.902  68.073  1.00  0.00    -0.155 A  
HETATM   16  C   UNL     1     -10.149   9.538  66.808  1.00  0.00    -0.312 A  
HETATM   17  C   UNL     1      -9.309   9.552  65.691  1.00  0.00    -0.302 A  
HETATM   18  C   UNL     1      -7.974   9.920  65.828  1.00  0.00    -0.120 A  
HETATM   19  C   UNL     1      -7.473  10.274  67.080  1.00  0.00    -0.092 A  
HETATM   20  C   UNL     1      -8.312  10.261  68.199  1.00  0.00    -0.118 A  
ENDBRANCH  14  15
ENDBRANCH  11  14
ENDBRANCH   9  10
ENDBRANCH   8   9
TORSDOF 4
ENDMDL
MODEL      240
REMARK 921   NORMALIZED FREE ENERGY PREDICTED BY IDOCK:   -3.19 KCAL/MOL
REMARK 922        TOTAL FREE ENERGY PREDICTED BY IDOCK:   -4.55 KCAL/MOL
REMARK 923 INTER-LIGAND FREE ENERGY PREDICTED BY IDOCK:   -4.10 KCAL/MOL
REMARK 924 INTRA-LIGAND FREE ENERGY PREDICTED BY IDOCK:   -0.45 KCAL/MOL
REMARK 927      BINDING AFFINITY PREDICTED BY RF-SCORE:    0.00 PKD
ROOT
HETATM    1  O   UNL     1     -11.575   9.519  69.926  1.00  0.00    -0.135 OA 
HETATM    2  N   UNL     1     -11.302  10.625  69.429  1.00  0.00    -0.263 N  
HETATM    3  C   UNL     1     -10.190  10.664  68.529  1.00  0.00    -0.175 A  
HETATM    4  O   UNL     1     -11.938  11.669  69.596  1.00  0.00    -0.306 OA 
HETATM    5  N   UNL     1      -9.299  11.634  68.514  1.00  0.00    -0.190 NA 
HETATM    6  C   UNL     1      -8.450  11.310  67.487  1.00  0.00    -0.131 A  
HETATM    7  C   UNL     1      -8.846  10.143  66.873  1.00  0.00    -0.132 A  
HETATM    8  N   UNL     1      -9.956   9.721  67.565  1.00  0.00    -0.174 NA 
ENDROOT
BRANCH   8   9
HETATM    9  C   UNL     1     -10.764   8.565  67.218  1.00  0.00    -0.149 C  
BRANCH   9  10
HETATM   10  C   UNL     1     -10.416   7.354  68.058  1.00  0.00    -0.199 C  
HETATM   11  N   UNL     1      -9.335   7.509  68.893  1.00  0.00    -0.143 N  
HETATM   12  O   UNL     1     -11.073   6.317  67.989  1.00  0.00    -0.333 OA 
HETATM   13  H   UNL     1      -8.842   8.403  68.897  1.00  0.00     0.000 HD 
BRANCH  11  14
HETATM   14  C   UNL     1      -8.871   6.451  69.766  1.00  0.00    -0.142 C  
BRANCH  14  15
HETATM   15  C   UNL     1      -9.484   6.573  71.136  1.00  0.00    -0.173 A  
HETATM   16  C   UNL     1      -9.261   7.723  71.912  1.00  0.00    -0.182 A  
HETATM   17  C   UNL     1      -9.832   7.845  73.181  1.00  0.00    -0.357 A  
HETATM   18  C   UNL     1     -10.621   6.819  73.692  1.00  0.00    -0.347 A  
HETATM   19  C   UNL     1     -10.842   5.668  72.937  1.00  0.00    -0.303 A  
HETATM   20  C   UNL     1     -10.273   5.543  71.666  1.00  0.00    -0.265 A  
ENDBRANCH  14  15
ENDBRANCH  11  14
ENDBRANCH   9  10
ENDBRANCH   8   9
TORSDOF 4
ENDMDL
MODEL      241
REMARK 921   NORMALIZED FREE ENERGY PREDICTED BY IDOCK:   -3.19 KCAL/MOL
REMARK 922        TOTAL FREE ENERGY PREDICTED BY IDOCK:   -4.55 KCAL/MOL
REMARK 923 INTER-LIGAND FREE ENERGY PREDICTED BY IDOCK:   -4.18 KCAL/MOL
REMARK 924 INTRA-LIGAND FREE ENERGY PREDICTED BY IDOCK:   -0.37 KCAL/MOL
REMARK 927      BINDING AFFINITY PREDICTED BY RF-SCORE:    0.00 PKD
ROOT
HETATM    1  O   UNL     1      -7.720  13.880  68.809  1.00  0.00    -0.134 OA 
HETATM    2  N   UNL     1      -8.845  14.110  68.337  1.00  0.00    -0.185 N  
HETATM    3  C   UNL     1      -9.280  13.255  67.274  1.00  0.00    -0.222 A  
HETATM    4  O   UNL     1      -9.638  14.966  68.741  1.00  0.00    -0.204 OA 
HETATM    5  N   UNL     1      -9.918  13.687  66.205  1.00  0.00    -0.293 NA 
HETATM    6  C   UNL     1     -10.185  12.555  65.479  1.00  0.00    -0.275 A  
HETATM    7  C   UNL     1      -9.716  11.434  66.127  1.00  0.00    -0.219 A  
HETATM    8  N   UNL     1      -9.113  11.897  67.273  1.00  0.00    -0.173 NA 
ENDROOT
BRANCH   8   9
HETATM    9  C   UNL     1      -8.543  11.056  68.311  1.00  0.00    -0.143 C  
BRANCH   9  10
HETATM   10  C   UNL     1      -9.452   9.900  68.672  1.00  0.00    -0.153 C  
HETATM   11  N   UNL     1     -10.393  10.173  69.637  1.00  0.00    -0.234 N  
HETATM   12  O   UNL     1      -9.344   8.805  68.123  1.00  0.00    -0.139 OA 
HETATM   13  H   UNL     1     -10.423  11.108  70.043  1.00  0.00     0.000 HD 
BRANCH  11  14
HETATM   14  C   UNL     1     -11.342   9.180  70.096  1.00  0.00    -0.142 C  
BRANCH  14  15
HETATM   15  C   UNL     1     -10.732   8.295  71.150  1.00  0.00    -0.270 A  
HETATM   16  C   UNL     1     -11.005   6.918  71.163  1.00  0.00    -0.284 A  
HETATM   17  C   UNL     1     -10.436   6.090  72.134  1.00  0.00    -0.246 A  
HETATM   18  C   UNL     1      -9.599   6.630  73.106  1.00  0.00    -0.170 A  
HETATM   19  C   UNL     1      -9.327   7.997  73.111  1.00  0.00    -0.346 A  
HETATM   20  C   UNL     1      -9.895   8.828  72.140  1.00  0.00    -0.347 A  
ENDBRANCH  14  15
ENDBRANCH  11  14
ENDBRANCH   9  10
ENDBRANCH   8   9
TORSDOF 4
ENDMDL
MODEL      242
REMARK 921   NORMALIZED FREE ENERGY PREDICTED BY IDOCK:   -3.18 KCAL/MOL
REMARK 922        TOTAL FREE ENERGY PREDICTED BY IDOCK:   -4.55 KCAL/MOL
REMARK 923 INTER-LIGAND FREE ENERGY PREDICTED BY IDOCK:   -3.78 KCAL/MOL
REMARK 924 INTRA-LIGAND FREE ENERGY PREDICTED BY IDOCK:   -0.77 KCAL/MOL
REMARK 927      BINDING AFFINITY PREDICTED BY RF-SCORE:    0.00 PKD
ROOT
HETATM    1  O   UNL     1     -10.741  11.820  67.177  1.00  0.00    -0.221 OA 
HETATM    2  N   UNL     1     -10.750  13.062  67.150  1.00  0.00    -0.253 N  
HETATM    3  C   UNL     1      -9.822  13.728  68.012  1.00  0.00    -0.239 A  
HETATM    4  O   UNL     1     -11.443  13.764  66.407  1.00  0.00    -0.316 OA 
HETATM    5  N   UNL     1     -10.118  14.807  68.708  1.00  0.00    -0.232 NA 
HETATM    6  C   UNL     1      -8.951  15.138  69.347  1.00  0.00    -0.176 A  
HETATM    7  C   UNL     1      -7.943  14.260  69.018  1.00  0.00    -0.027 A  
HETATM    8  N   UNL     1      -8.519  13.340  68.173  1.00  0.00    -0.167 NA 
ENDROOT
BRANCH   8   9
HETATM    9  C   UNL     1      -7.809  12.263  67.507  1.00  0.00    -0.166 C  
BRANCH   9  10
HETATM   10  C   UNL     1      -7.461  11.135  68.456  1.00  0.00    -0.112 C  
HETATM   11  N   UNL     1      -8.529  10.396  68.906  1.00  0.00    -0.135 N  
HETATM   12  O   UNL     1      -6.297  10.910  68.782  1.00  0.00    -0.046 OA 
HETATM   13  H   UNL     1      -9.466  10.643  68.587  1.00  0.00     0.000 HD 
BRANCH  11  14
HETATM   14  C   UNL     1      -8.371   9.280  69.815  1.00  0.00    -0.142 C  
BRANCH  14  15
HETATM   15  C   UNL     1      -9.707   8.693  70.186  1.00  0.00    -0.182 A  
HETATM   16  C   UNL     1      -9.904   7.303  70.151  1.00  0.00    -0.179 A  
HETATM   17  C   UNL     1     -11.139   6.751  70.501  1.00  0.00    -0.346 A  
HETATM   18  C   UNL     1     -12.191   7.580  70.879  1.00  0.00    -0.224 A  
HETATM   19  C   UNL     1     -12.012   8.963  70.909  1.00  0.00    -0.254 A  
HETATM   20  C   UNL     1     -10.777   9.517  70.560  1.00  0.00    -0.359 A  
ENDBRANCH  14  15
ENDBRANCH  11  14
ENDBRANCH   9  10
ENDBRANCH   8   9
TORSDOF 4
ENDMDL
MODEL      243
REMARK 921   NORMALIZED FREE ENERGY PREDICTED BY IDOCK:   -3.18 KCAL/MOL
REMARK 922        TOTAL FREE ENERGY PREDICTED BY IDOCK:   -4.54 KCAL/MOL
REMARK 923 INTER-LIGAND FREE ENERGY PREDICTED BY IDOCK:   -3.98 KCAL/MOL
REMARK 924 INTRA-LIGAND FREE ENERGY PREDICTED BY IDOCK:   -0.56 KCAL/MOL
REMARK 927      BINDING AFFINITY PREDICTED BY RF-SCORE:    0.00 PKD
ROOT
HETATM    1  O   UNL     1     -10.865   5.382  69.835  1.00  0.00    -0.298 OA 
HETATM    2  N   UNL     1     -11.387   5.997  70.780  1.00  0.00    -0.279 N  
HETATM    3  C   UNL     1     -10.787   5.819  72.067  1.00  0.00    -0.251 A  
HETATM    4  O   UNL     1     -12.331   6.787  70.695  1.00  0.00    -0.359 OA 
HETATM    5  N   UNL     1     -11.478   5.675  73.180  1.00  0.00    -0.193 NA 
HETATM    6  C   UNL     1     -10.531   5.584  74.167  1.00  0.00    -0.269 A  
HETATM    7  C   UNL     1      -9.263   5.690  73.643  1.00  0.00    -0.130 A  
HETATM    8  N   UNL     1      -9.436   5.819  72.285  1.00  0.00    -0.145 NA 
ENDROOT
BRANCH   8   9
HETATM    9  C   UNL     1      -8.367   6.041  71.327  1.00  0.00    -0.124 C  
BRANCH   9  10
HETATM   10  C   UNL     1      -7.950   7.495  71.265  1.00  0.00    -0.095 C  
HETATM   11  N   UNL     1      -8.785   8.315  70.544  1.00  0.00    -0.136 N  
HETATM   12  O   UNL     1      -6.936   7.895  71.833  1.00  0.00    -0.061 OA 
HETATM   13  H   UNL     1      -9.612   7.910  70.104  1.00  0.00     0.000 HD 
BRANCH  11  14
HETATM   14  C   UNL     1      -8.535   9.733  70.388  1.00  0.00    -0.058 C  
BRANCH  14  15
HETATM   15  C   UNL     1      -9.415  10.323  69.318  1.00  0.00    -0.230 A  
HETATM   16  C   UNL     1      -8.855  10.800  68.122  1.00  0.00    -0.133 A  
HETATM   17  C   UNL     1      -9.667  11.341  67.123  1.00  0.00    -0.201 A  
HETATM   18  C   UNL     1     -11.044  11.422  67.312  1.00  0.00    -0.363 A  
HETATM   19  C   UNL     1     -11.613  10.962  68.498  1.00  0.00    -0.360 A  
HETATM   20  C   UNL     1     -10.802  10.418  69.500  1.00  0.00    -0.295 A  
ENDBRANCH  14  15
ENDBRANCH  11  14
ENDBRANCH   9  10
ENDBRANCH   8   9
TORSDOF 4
ENDMDL
MODEL      244
REMARK 921   NORMALIZED FREE ENERGY PREDICTED BY IDOCK:   -3.18 KCAL/MOL
REMARK 922        TOTAL FREE ENERGY PREDICTED BY IDOCK:   -4.54 KCAL/MOL
REMARK 923 INTER-LIGAND FREE ENERGY PREDICTED BY IDOCK:   -4.24 KCAL/MOL
REMARK 924 INTRA-LIGAND FREE ENERGY PREDICTED BY IDOCK:   -0.29 KCAL/MOL
REMARK 927      BINDING AFFINITY PREDICTED BY RF-SCORE:    0.00 PKD
ROOT
HETATM    1  O   UNL     1      -8.495   9.214  71.405  1.00  0.00    -0.317 OA 
HETATM    2  N   UNL     1      -9.210   8.775  72.321  1.00  0.00    -0.225 N  
HETATM    3  C   UNL     1     -10.482   8.241  71.940  1.00  0.00    -0.274 A  
HETATM    4  O   UNL     1      -8.896   8.705  73.513  1.00  0.00    -0.265 OA 
HETATM    5  N   UNL     1     -11.593   8.449  72.617  1.00  0.00    -0.361 NA 
HETATM    6  C   UNL     1     -12.549   7.731  71.945  1.00  0.00    -0.311 A  
HETATM    7  C   UNL     1     -12.002   7.075  70.866  1.00  0.00    -0.364 A  
HETATM    8  N   UNL     1     -10.673   7.427  70.856  1.00  0.00    -0.232 NA 
ENDROOT
BRANCH   8   9
HETATM    9  C   UNL     1      -9.680   6.905  69.933  1.00  0.00    -0.162 C  
BRANCH   9  10
HETATM   10  C   UNL     1     -10.180   6.894  68.504  1.00  0.00    -0.177 C  
HETATM   11  N   UNL     1     -10.051   5.693  67.847  1.00  0.00    -0.155 N  
HETATM   12  O   UNL     1     -10.670   7.897  67.989  1.00  0.00    -0.161 OA 
HETATM   13  H   UNL     1      -9.638   4.904  68.343  1.00  0.00     0.000 HD 
BRANCH  11  14
HETATM   14  C   UNL     1     -10.483   5.509  66.477  1.00  0.00    -0.271 C  
BRANCH  14  15
HETATM   15  C   UNL     1      -9.946   4.222  65.909  1.00  0.00    -0.232 A  
HETATM   16  C   UNL     1      -9.995   3.982  64.527  1.00  0.00    -0.198 A  
HETATM   17  C   UNL     1      -9.493   2.793  63.993  1.00  0.00    -0.128 A  
HETATM   18  C   UNL     1      -8.946   1.828  64.835  1.00  0.00    -0.119 A  
HETATM   19  C   UNL     1      -8.901   2.048  66.211  1.00  0.00    -0.123 A  
HETATM   20  C   UNL     1      -9.402   3.238  66.747  1.00  0.00    -0.171 A  
ENDBRANCH  14  15
ENDBRANCH  11  14
ENDBRANCH   9  10
ENDBRANCH   8   9
TORSDOF 4
ENDMDL
MODEL      245
REMARK 921   NORMALIZED FREE ENERGY PREDICTED BY IDOCK:   -3.13 KCAL/MOL
REMARK 922        TOTAL FREE ENERGY PREDICTED BY IDOCK:   -4.47 KCAL/MOL
REMARK 923 INTER-LIGAND FREE ENERGY PREDICTED BY IDOCK:   -4.42 KCAL/MOL
REMARK 924 INTRA-LIGAND FREE ENERGY PREDICTED BY IDOCK:   -0.06 KCAL/MOL
REMARK 927      BINDING AFFINITY PREDICTED BY RF-SCORE:    0.00 PKD
ROOT
HETATM    1  O   UNL     1     -10.450  16.622  65.220  1.00  0.00    -0.612 OA 
HETATM    2  N   UNL     1     -10.564  17.828  65.497  1.00  0.00    -0.201 N  
HETATM    3  C   UNL     1     -10.064  18.242  66.773  1.00  0.00    -0.364 A  
HETATM    4  O   UNL     1     -11.014  18.702  64.749  1.00  0.00    -0.338 OA 
HETATM    5  N   UNL     1     -10.685  19.100  67.556  1.00  0.00    -0.473 NA 
HETATM    6  C   UNL     1      -9.853  19.249  68.635  1.00  0.00    -0.431 A  
HETATM    7  C   UNL     1      -8.717  18.485  68.490  1.00  0.00    -0.326 A  
HETATM    8  N   UNL     1      -8.872  17.821  67.296  1.00  0.00    -0.235 NA 
ENDROOT
BRANCH   8   9
HETATM    9  C   UNL     1      -7.875  16.955  66.690  1.00  0.00    -0.263 C  
BRANCH   9  10
HETATM   10  C   UNL     1      -7.507  15.794  67.589  1.00  0.00    -0.158 C  
HETATM   11  N   UNL     1      -6.356  15.127  67.244  1.00  0.00     0.049 N  
HETATM   12  O   UNL     1      -8.199  15.491  68.559  1.00  0.00    -0.137 OA 
HETATM   13  H   UNL     1      -5.833  15.440  66.426  1.00  0.00     0.000 HD 
BRANCH  11  14
HETATM   14  C   UNL     1      -5.859  13.995  67.999  1.00  0.00    -0.136 C  
BRANCH  14  15
HETATM   15  C   UNL     1      -6.344  12.697  67.410  1.00  0.00    -0.152 A  
HETATM   16  C   UNL     1      -5.435  11.804  66.819  1.00  0.00    -0.099 A  
HETATM   17  C   UNL     1      -5.877  10.595  66.277  1.00  0.00    -0.104 A  
HETATM   18  C   UNL     1      -7.230  10.270  66.310  1.00  0.00    -0.117 A  
HETATM   19  C   UNL     1      -8.145  11.151  66.885  1.00  0.00    -0.150 A  
HETATM   20  C   UNL     1      -7.704  12.362  67.429  1.00  0.00    -0.170 A  
ENDBRANCH  14  15
ENDBRANCH  11  14
ENDBRANCH   9  10
ENDBRANCH   8   9
TORSDOF 4
ENDMDL
MODEL      246
REMARK 921   NORMALIZED FREE ENERGY PREDICTED BY IDOCK:   -3.07 KCAL/MOL
REMARK 922        TOTAL FREE ENERGY PREDICTED BY IDOCK:   -4.41 KCAL/MOL
REMARK 923 INTER-LIGAND FREE ENERGY PREDICTED BY IDOCK:   -3.93 KCAL/MOL
REMARK 924 INTRA-LIGAND FREE ENERGY PREDICTED BY IDOCK:   -0.48 KCAL/MOL
REMARK 927      BINDING AFFINITY PREDICTED BY RF-SCORE:    0.00 PKD
ROOT
HETATM    1  O   UNL     1     -10.186  11.174  65.286  1.00  0.00    -0.253 OA 
HETATM    2  N   UNL     1     -10.497  12.064  66.095  1.00  0.00    -0.230 N  
HETATM    3  C   UNL     1     -10.959  11.629  67.379  1.00  0.00    -0.261 A  
HETATM    4  O   UNL     1     -10.386  13.280  65.911  1.00  0.00    -0.281 OA 
HETATM    5  N   UNL     1     -11.971  12.183  68.016  1.00  0.00    -0.492 NA 
HETATM    6  C   UNL     1     -12.044  11.506  69.206  1.00  0.00    -0.278 A  
HETATM    7  C   UNL     1     -11.058  10.549  69.288  1.00  0.00    -0.246 A  
HETATM    8  N   UNL     1     -10.376  10.620  68.096  1.00  0.00    -0.168 NA 
ENDROOT
BRANCH   8   9
HETATM    9  C   UNL     1      -9.195   9.843  67.765  1.00  0.00    -0.130 C  
BRANCH   9  10
HETATM   10  C   UNL     1      -9.532   8.404  67.435  1.00  0.00    -0.147 C  
HETATM   11  N   UNL     1      -9.132   7.479  68.370  1.00  0.00    -0.134 N  
HETATM   12  O   UNL     1     -10.128   8.107  66.402  1.00  0.00    -0.241 OA 
HETATM   13  H   UNL     1      -8.644   7.803  69.205  1.00  0.00     0.000 HD 
BRANCH  11  14
HETATM   14  C   UNL     1      -9.378   6.060  68.212  1.00  0.00    -0.116 C  
BRANCH  14  15
HETATM   15  C   UNL     1      -9.252   5.340  69.528  1.00  0.00    -0.157 A  
HETATM   16  C   UNL     1      -8.683   4.057  69.582  1.00  0.00    -0.124 A  
HETATM   17  C   UNL     1      -8.557   3.386  70.800  1.00  0.00    -0.114 A  
HETATM   18  C   UNL     1      -9.006   3.983  71.975  1.00  0.00    -0.152 A  
HETATM   19  C   UNL     1      -9.583   5.252  71.935  1.00  0.00    -0.191 A  
HETATM   20  C   UNL     1      -9.709   5.926  70.716  1.00  0.00    -0.212 A  
ENDBRANCH  14  15
ENDBRANCH  11  14
ENDBRANCH   9  10
ENDBRANCH   8   9
TORSDOF 4
ENDMDL
MODEL      247
REMARK 921   NORMALIZED FREE ENERGY PREDICTED BY IDOCK:   -3.02 KCAL/MOL
REMARK 922        TOTAL FREE ENERGY PREDICTED BY IDOCK:   -4.34 KCAL/MOL
REMARK 923 INTER-LIGAND FREE ENERGY PREDICTED BY IDOCK:   -3.99 KCAL/MOL
REMARK 924 INTRA-LIGAND FREE ENERGY PREDICTED BY IDOCK:   -0.35 KCAL/MOL
REMARK 927      BINDING AFFINITY PREDICTED BY RF-SCORE:    0.00 PKD
ROOT
HETATM    1  O   UNL     1     -12.683   6.904  70.835  1.00  0.00    -0.328 OA 
HETATM    2  N   UNL     1     -12.361   7.682  71.749  1.00  0.00    -0.308 N  
HETATM    3  C   UNL     1     -11.078   7.471  72.347  1.00  0.00    -0.301 A  
HETATM    4  O   UNL     1     -13.021   8.650  72.140  1.00  0.00    -0.348 OA 
HETATM    5  N   UNL     1     -10.855   7.558  73.643  1.00  0.00    -0.289 NA 
HETATM    6  C   UNL     1      -9.509   7.335  73.778  1.00  0.00    -0.268 A  
HETATM    7  C   UNL     1      -8.919   7.128  72.552  1.00  0.00    -0.127 A  
HETATM    8  N   UNL     1      -9.942   7.194  71.636  1.00  0.00    -0.178 NA 
ENDROOT
BRANCH   8   9
HETATM    9  C   UNL     1      -9.777   7.112  70.195  1.00  0.00    -0.171 C  
BRANCH   9  10
HETATM   10  C   UNL     1      -9.079   5.836  69.773  1.00  0.00    -0.136 C  
HETATM   11  N   UNL     1      -9.912   4.814  69.384  1.00  0.00    -0.212 N  
HETATM   12  O   UNL     1      -7.853   5.745  69.778  1.00  0.00    -0.091 OA 
HETATM   13  H   UNL     1     -10.920   4.967  69.403  1.00  0.00     0.000 HD 
BRANCH  11  14
HETATM   14  C   UNL     1      -9.408   3.528  68.947  1.00  0.00    -0.168 C  
BRANCH  14  15
HETATM   15  C   UNL     1      -9.438   3.417  67.446  1.00  0.00    -0.220 A  
HETATM   16  C   UNL     1     -10.060   4.412  66.675  1.00  0.00    -0.197 A  
HETATM   17  C   UNL     1     -10.085   4.319  65.281  1.00  0.00    -0.231 A  
HETATM   18  C   UNL     1      -9.499   3.229  64.645  1.00  0.00    -0.149 A  
HETATM   19  C   UNL     1      -8.887   2.228  65.398  1.00  0.00    -0.123 A  
HETATM   20  C   UNL     1      -8.860   2.320  66.793  1.00  0.00    -0.142 A  
ENDBRANCH  14  15
ENDBRANCH  11  14
ENDBRANCH   9  10
ENDBRANCH   8   9
TORSDOF 4
ENDMDL
MODEL      248
REMARK 921   NORMALIZED FREE ENERGY PREDICTED BY IDOCK:   -3.01 KCAL/MOL
REMARK 922        TOTAL FREE ENERGY PREDICTED BY IDOCK:   -4.33 KCAL/MOL
REMARK 923 INTER-LIGAND FREE ENERGY PREDICTED BY IDOCK:   -3.85 KCAL/MOL
REMARK 924 INTRA-LIGAND FREE ENERGY PREDICTED BY IDOCK:   -0.48 KCAL/MOL
REMARK 927      BINDING AFFINITY PREDICTED BY RF-SCORE:    0.00 PKD
ROOT
HETATM    1  O   UNL     1     -12.766   8.225  72.623  1.00  0.00    -0.242 OA 
HETATM    2  N   UNL     1     -12.763   9.229  71.891  1.00  0.00    -0.365 N  
HETATM    3  C   UNL     1     -11.726   9.300  70.907  1.00  0.00    -0.296 A  
HETATM    4  O   UNL     1     -13.604  10.133  71.899  1.00  0.00    -0.337 OA 
HETATM    5  N   UNL     1     -11.069  10.405  70.617  1.00  0.00    -0.285 NA 
HETATM    6  C   UNL     1     -10.215  10.046  69.606  1.00  0.00    -0.239 A  
HETATM    7  C   UNL     1     -10.373   8.719  69.277  1.00  0.00    -0.214 A  
HETATM    8  N   UNL     1     -11.334   8.239  70.136  1.00  0.00    -0.134 NA 
ENDROOT
BRANCH   8   9
HETATM    9  C   UNL     1     -11.884   6.895  70.103  1.00  0.00    -0.212 C  
BRANCH   9  10
HETATM   10  C   UNL     1     -10.908   5.866  70.633  1.00  0.00    -0.292 C  
HETATM   11  N   UNL     1     -10.338   5.053  69.682  1.00  0.00    -0.246 N  
HETATM   12  O   UNL     1     -10.651   5.785  71.833  1.00  0.00    -0.217 OA 
HETATM   13  H   UNL     1     -10.599   5.183  68.704  1.00  0.00     0.000 HD 
BRANCH  11  14
HETATM   14  C   UNL     1      -9.381   4.019  70.018  1.00  0.00    -0.172 C  
BRANCH  14  15
HETATM   15  C   UNL     1      -8.583   3.607  68.809  1.00  0.00    -0.118 A  
HETATM   16  C   UNL     1      -9.221   3.398  67.576  1.00  0.00    -0.231 A  
HETATM   17  C   UNL     1      -8.486   3.023  66.450  1.00  0.00    -0.107 A  
HETATM   18  C   UNL     1      -7.109   2.844  66.544  1.00  0.00    -0.054 A  
HETATM   19  C   UNL     1      -6.463   3.039  67.765  1.00  0.00    -0.036 A  
HETATM   20  C   UNL     1      -7.197   3.415  68.894  1.00  0.00    -0.049 A  
ENDBRANCH  14  15
ENDBRANCH  11  14
ENDBRANCH   9  10
ENDBRANCH   8   9
TORSDOF 4
ENDMDL
MODEL      249
REMARK 921   NORMALIZED FREE ENERGY PREDICTED BY IDOCK:   -2.99 KCAL/MOL
REMARK 922        TOTAL FREE ENERGY PREDICTED BY IDOCK:   -4.30 KCAL/MOL
REMARK 923 INTER-LIGAND FREE ENERGY PREDICTED BY IDOCK:   -4.02 KCAL/MOL
REMARK 924 INTRA-LIGAND FREE ENERGY PREDICTED BY IDOCK:   -0.28 KCAL/MOL
REMARK 927      BINDING AFFINITY PREDICTED BY RF-SCORE:    0.00 PKD
ROOT
HETATM    1  O   UNL     1      -9.660   7.304  66.510  1.00  0.00    -0.180 OA 
HETATM    2  N   UNL     1      -8.554   7.738  66.873  1.00  0.00    -0.127 N  
HETATM    3  C   UNL     1      -7.888   8.626  65.970  1.00  0.00    -0.102 A  
HETATM    4  O   UNL     1      -8.012   7.518  67.961  1.00  0.00    -0.119 OA 
HETATM    5  N   UNL     1      -6.594   8.582  65.725  1.00  0.00    -0.056 NA 
HETATM    6  C   UNL     1      -6.370   9.619  64.857  1.00  0.00    -0.090 A  
HETATM    7  C   UNL     1      -7.537  10.300  64.592  1.00  0.00    -0.103 A  
HETATM    8  N   UNL     1      -8.516   9.639  65.296  1.00  0.00    -0.138 NA 
ENDROOT
BRANCH   8   9
HETATM    9  C   UNL     1      -9.905  10.054  65.380  1.00  0.00    -0.314 C  
BRANCH   9  10
HETATM   10  C   UNL     1     -10.126  11.429  64.787  1.00  0.00    -0.277 C  
HETATM   11  N   UNL     1     -10.027  12.474  65.675  1.00  0.00    -0.279 N  
HETATM   12  O   UNL     1     -10.369  11.579  63.591  1.00  0.00    -0.335 OA 
HETATM   13  H   UNL     1      -9.819  12.270  66.653  1.00  0.00     0.000 HD 
BRANCH  11  14
HETATM   14  C   UNL     1     -10.207  13.853  65.272  1.00  0.00    -0.344 C  
BRANCH  14  15
HETATM   15  C   UNL     1      -9.886  14.793  66.404  1.00  0.00    -0.297 A  
HETATM   16  C   UNL     1      -9.959  14.351  67.734  1.00  0.00    -0.226 A  
HETATM   17  C   UNL     1      -9.655  15.215  68.789  1.00  0.00    -0.219 A  
HETATM   18  C   UNL     1      -9.286  16.532  68.526  1.00  0.00    -0.230 A  
HETATM   19  C   UNL     1      -9.219  16.988  67.210  1.00  0.00    -0.225 A  
HETATM   20  C   UNL     1      -9.522  16.123  66.153  1.00  0.00    -0.362 A  
ENDBRANCH  14  15
ENDBRANCH  11  14
ENDBRANCH   9  10
ENDBRANCH   8   9
TORSDOF 4
ENDMDL
MODEL      250
REMARK 921   NORMALIZED FREE ENERGY PREDICTED BY IDOCK:   -2.98 KCAL/MOL
REMARK 922        TOTAL FREE ENERGY PREDICTED BY IDOCK:   -4.29 KCAL/MOL
REMARK 923 INTER-LIGAND FREE ENERGY PREDICTED BY IDOCK:   -4.07 KCAL/MOL
REMARK 924 INTRA-LIGAND FREE ENERGY PREDICTED BY IDOCK:   -0.22 KCAL/MOL
REMARK 927      BINDING AFFINITY PREDICTED BY RF-SCORE:    0.00 PKD
ROOT
HETATM    1  O   UNL     1     -10.049   5.971  66.842  1.00  0.00    -0.153 OA 
HETATM    2  N   UNL     1      -9.042   5.442  66.344  1.00  0.00    -0.136 N  
HETATM    3  C   UNL     1      -8.418   6.144  65.264  1.00  0.00    -0.120 A  
HETATM    4  O   UNL     1      -8.503   4.402  66.735  1.00  0.00    -0.105 OA 
HETATM    5  N   UNL     1      -7.950   5.553  64.183  1.00  0.00    -0.114 NA 
HETATM    6  C   UNL     1      -7.402   6.568  63.442  1.00  0.00    -0.067 A  
HETATM    7  C   UNL     1      -7.530   7.775  64.092  1.00  0.00    -0.105 A  
HETATM    8  N   UNL     1      -8.206   7.496  65.256  1.00  0.00    -0.134 NA 
ENDROOT
BRANCH   8   9
HETATM    9  C   UNL     1      -8.498   8.461  66.301  1.00  0.00    -0.127 C  
BRANCH   9  10
HETATM   10  C   UNL     1      -9.718   9.299  65.979  1.00  0.00    -0.289 C  
HETATM   11  N   UNL     1      -9.554  10.205  64.958  1.00  0.00    -0.277 N  
HETATM   12  O   UNL     1     -10.772   9.157  66.595  1.00  0.00    -0.145 OA 
HETATM   13  H   UNL     1      -8.649  10.262  64.492  1.00  0.00     0.000 HD 
BRANCH  11  14
HETATM   14  C   UNL     1     -10.622  11.082  64.522  1.00  0.00    -0.313 C  
BRANCH  14  15
HETATM   15  C   UNL     1     -10.415  12.482  65.035  1.00  0.00    -0.323 A  
HETATM   16  C   UNL     1      -9.539  12.722  66.105  1.00  0.00    -0.214 A  
HETATM   17  C   UNL     1      -9.337  14.020  66.581  1.00  0.00    -0.292 A  
HETATM   18  C   UNL     1     -10.016  15.088  66.002  1.00  0.00    -0.334 A  
HETATM   19  C   UNL     1     -10.897  14.864  64.945  1.00  0.00    -0.431 A  
HETATM   20  C   UNL     1     -11.099  13.565  64.466  1.00  0.00    -0.394 A  
ENDBRANCH  14  15
ENDBRANCH  11  14
ENDBRANCH   9  10
ENDBRANCH   8   9
TORSDOF 4
ENDMDL
MODEL      251
REMARK 921   NORMALIZED FREE ENERGY PREDICTED BY IDOCK:   -2.90 KCAL/MOL
REMARK 922        TOTAL FREE ENERGY PREDICTED BY IDOCK:   -4.20 KCAL/MOL
REMARK 923 INTER-LIGAND FREE ENERGY PREDICTED BY IDOCK:   -3.90 KCAL/MOL
REMARK 924 INTRA-LIGAND FREE ENERGY PREDICTED BY IDOCK:   -0.30 KCAL/MOL
REMARK 927      BINDING AFFINITY PREDICTED BY RF-SCORE:    0.00 PKD
ROOT
HETATM    1  O   UNL     1      -9.060   9.990  64.550  1.00  0.00    -0.203 OA 
HETATM    2  N   UNL     1      -9.819  10.102  65.528  1.00  0.00    -0.279 N  
HETATM    3  C   UNL     1      -9.501   9.312  66.678  1.00  0.00    -0.191 A  
HETATM    4  O   UNL     1     -10.779  10.873  65.613  1.00  0.00    -0.206 OA 
HETATM    5  N   UNL     1     -10.403   8.683  67.403  1.00  0.00    -0.263 NA 
HETATM    6  C   UNL     1      -9.688   8.099  68.417  1.00  0.00    -0.161 A  
HETATM    7  C   UNL     1      -8.348   8.394  68.307  1.00  0.00    -0.131 A  
HETATM    8  N   UNL     1      -8.232   9.158  67.169  1.00  0.00    -0.113 NA 
ENDROOT
BRANCH   8   9
HETATM    9  C   UNL     1      -7.002   9.768  66.698  1.00  0.00    -0.085 C  
BRANCH   9  10
HETATM   10  C   UNL     1      -6.930  11.243  67.035  1.00  0.00    -0.126 C  
HETATM   11  N   UNL     1      -7.842  11.676  67.967  1.00  0.00    -0.121 N  
HETATM   12  O   UNL     1      -6.102  11.981  66.505  1.00  0.00    -0.158 OA 
HETATM   13  H   UNL     1      -8.496  11.002  68.366  1.00  0.00     0.000 HD 
BRANCH  11  14
HETATM   14  C   UNL     1      -7.907  13.055  68.405  1.00  0.00    -0.134 C  
BRANCH  14  15
HETATM   15  C   UNL     1      -9.230  13.676  68.042  1.00  0.00    -0.197 A  
HETATM   16  C   UNL     1     -10.427  13.134  68.536  1.00  0.00    -0.262 A  
HETATM   17  C   UNL     1     -11.657  13.709  68.208  1.00  0.00    -0.374 A  
HETATM   18  C   UNL     1     -11.705  14.824  67.376  1.00  0.00    -0.371 A  
HETATM   19  C   UNL     1     -10.525  15.367  66.869  1.00  0.00    -0.295 A  
HETATM   20  C   UNL     1      -9.293  14.793  67.197  1.00  0.00    -0.233 A  
ENDBRANCH  14  15
ENDBRANCH  11  14
ENDBRANCH   9  10
ENDBRANCH   8   9
TORSDOF 4
ENDMDL
MODEL      252
REMARK 921   NORMALIZED FREE ENERGY PREDICTED BY IDOCK:   -2.85 KCAL/MOL
REMARK 922        TOTAL FREE ENERGY PREDICTED BY IDOCK:   -4.14 KCAL/MOL
REMARK 923 INTER-LIGAND FREE ENERGY PREDICTED BY IDOCK:   -3.87 KCAL/MOL
REMARK 924 INTRA-LIGAND FREE ENERGY PREDICTED BY IDOCK:   -0.27 KCAL/MOL
REMARK 927      BINDING AFFINITY PREDICTED BY RF-SCORE:    0.00 PKD
ROOT
HETATM    1  O   UNL     1      -9.662   5.948  68.900  1.00  0.00    -0.127 OA 
HETATM    2  N   UNL     1      -9.654   4.850  68.320  1.00  0.00    -0.138 N  
HETATM    3  C   UNL     1      -9.480   4.878  66.899  1.00  0.00    -0.148 A  
HETATM    4  O   UNL     1      -9.724   3.744  68.864  1.00  0.00    -0.151 OA 
HETATM    5  N   UNL     1     -10.151   4.108  66.067  1.00  0.00    -0.183 NA 
HETATM    6  C   UNL     1      -9.651   4.418  64.828  1.00  0.00    -0.139 A  
HETATM    7  C   UNL     1      -8.660   5.369  64.922  1.00  0.00    -0.131 A  
HETATM    8  N   UNL     1      -8.572   5.677  66.259  1.00  0.00    -0.123 NA 
ENDROOT
BRANCH   8   9
HETATM    9  C   UNL     1      -7.598   6.583  66.842  1.00  0.00    -0.095 C  
BRANCH   9  10
HETATM   10  C   UNL     1      -8.190   7.946  67.135  1.00  0.00    -0.118 C  
HETATM   11  N   UNL     1      -9.429   8.177  66.586  1.00  0.00    -0.197 N  
HETATM   12  O   UNL     1      -7.591   8.770  67.823  1.00  0.00    -0.095 OA 
HETATM   13  H   UNL     1      -9.865   7.442  66.029  1.00  0.00     0.000 HD 
BRANCH  11  14
HETATM   14  C   UNL     1     -10.138   9.426  66.772  1.00  0.00    -0.256 C  
BRANCH  14  15
HETATM   15  C   UNL     1     -10.160  10.230  65.499  1.00  0.00    -0.351 A  
HETATM   16  C   UNL     1     -10.798  11.480  65.461  1.00  0.00    -0.313 A  
HETATM   17  C   UNL     1     -10.815  12.233  64.285  1.00  0.00    -0.392 A  
HETATM   18  C   UNL     1     -10.205  11.743  63.134  1.00  0.00    -0.376 A  
HETATM   19  C   UNL     1      -9.577  10.499  63.154  1.00  0.00    -0.375 A  
HETATM   20  C   UNL     1      -9.557   9.743  64.331  1.00  0.00    -0.160 A  
ENDBRANCH  14  15
ENDBRANCH  11  14
ENDBRANCH   9  10
ENDBRANCH   8   9
TORSDOF 4
ENDMDL
MODEL      253
REMARK 921   NORMALIZED FREE ENERGY PREDICTED BY IDOCK:   -2.82 KCAL/MOL
REMARK 922        TOTAL FREE ENERGY PREDICTED BY IDOCK:   -4.10 KCAL/MOL
REMARK 923 INTER-LIGAND FREE ENERGY PREDICTED BY IDOCK:   -3.88 KCAL/MOL
REMARK 924 INTRA-LIGAND FREE ENERGY PREDICTED BY IDOCK:   -0.22 KCAL/MOL
REMARK 927      BINDING AFFINITY PREDICTED BY RF-SCORE:    0.00 PKD
ROOT
HETATM    1  O   UNL     1      -8.276   6.512  64.966  1.00  0.00    -0.137 OA 
HETATM    2  N   UNL     1      -7.038   6.615  64.989  1.00  0.00    -0.061 N  
HETATM    3  C   UNL     1      -6.507   7.943  65.035  1.00  0.00    -0.048 A  
HETATM    4  O   UNL     1      -6.235   5.678  65.035  1.00  0.00    -0.028 OA 
HETATM    5  N   UNL     1      -5.458   8.334  64.341  1.00  0.00    -0.044 NA 
HETATM    6  C   UNL     1      -5.264   9.640  64.711  1.00  0.00    -0.051 A  
HETATM    7  C   UNL     1      -6.196  10.029  65.646  1.00  0.00    -0.088 A  
HETATM    8  N   UNL     1      -7.008   8.936  65.834  1.00  0.00    -0.079 NA 
ENDROOT
BRANCH   8   9
HETATM    9  C   UNL     1      -8.091   8.859  66.799  1.00  0.00    -0.111 C  
BRANCH   9  10
HETATM   10  C   UNL     1      -9.425   9.235  66.190  1.00  0.00    -0.236 C  
HETATM   11  N   UNL     1      -9.384  10.258  65.274  1.00  0.00    -0.195 N  
HETATM   12  O   UNL     1     -10.459   8.647  66.502  1.00  0.00    -0.249 OA 
HETATM   13  H   UNL     1      -8.487  10.695  65.064  1.00  0.00     0.000 HD 
BRANCH  11  14
HETATM   14  C   UNL     1     -10.571  10.739  64.595  1.00  0.00    -0.199 C  
BRANCH  14  15
HETATM   15  C   UNL     1     -11.003  12.073  65.144  1.00  0.00    -0.359 A  
HETATM   16  C   UNL     1     -10.100  12.868  65.867  1.00  0.00    -0.295 A  
HETATM   17  C   UNL     1     -10.494  14.110  66.372  1.00  0.00    -0.283 A  
HETATM   18  C   UNL     1     -11.793  14.565  66.169  1.00  0.00    -0.344 A  
HETATM   19  C   UNL     1     -12.703  13.782  65.461  1.00  0.00    -0.530 A  
HETATM   20  C   UNL     1     -12.312  12.539  64.954  1.00  0.00    -0.539 A  
ENDBRANCH  14  15
ENDBRANCH  11  14
ENDBRANCH   9  10
ENDBRANCH   8   9
TORSDOF 4
ENDMDL
MODEL      254
REMARK 921   NORMALIZED FREE ENERGY PREDICTED BY IDOCK:   -2.81 KCAL/MOL
REMARK 922        TOTAL FREE ENERGY PREDICTED BY IDOCK:   -4.08 KCAL/MOL
REMARK 923 INTER-LIGAND FREE ENERGY PREDICTED BY IDOCK:   -3.26 KCAL/MOL
REMARK 924 INTRA-LIGAND FREE ENERGY PREDICTED BY IDOCK:   -0.82 KCAL/MOL
REMARK 927      BINDING AFFINITY PREDICTED BY RF-SCORE:    0.00 PKD
ROOT
HETATM    1  O   UNL     1     -11.546   5.817  72.483  1.00  0.00    -0.303 OA 
HETATM    2  N   UNL     1     -11.190   4.790  73.084  1.00  0.00    -0.307 N  
HETATM    3  C   UNL     1      -9.799   4.684  73.402  1.00  0.00    -0.143 A  
HETATM    4  O   UNL     1     -11.936   3.889  73.481  1.00  0.00     0.000 OA 
HETATM    5  N   UNL     1      -9.107   3.569  73.288  1.00  0.00    -0.097 NA 
HETATM    6  C   UNL     1      -7.851   3.891  73.733  1.00  0.00    -0.080 A  
HETATM    7  C   UNL     1      -7.795   5.208  74.132  1.00  0.00    -0.097 A  
HETATM    8  N   UNL     1      -9.049   5.718  73.894  1.00  0.00    -0.126 NA 
ENDROOT
BRANCH   8   9
HETATM    9  C   UNL     1      -9.480   7.062  74.238  1.00  0.00    -0.232 C  
BRANCH   9  10
HETATM   10  C   UNL     1      -9.011   8.088  73.228  1.00  0.00    -0.272 C  
HETATM   11  N   UNL     1      -9.807   8.222  72.116  1.00  0.00    -0.243 N  
HETATM   12  O   UNL     1      -7.992   8.749  73.414  1.00  0.00    -0.410 OA 
HETATM   13  H   UNL     1     -10.641   7.639  72.035  1.00  0.00     0.000 HD 
BRANCH  11  14
HETATM   14  C   UNL     1      -9.505   9.160  71.055  1.00  0.00    -0.274 C  
BRANCH  14  15
HETATM   15  C   UNL     1      -8.749   8.489  69.939  1.00  0.00    -0.132 A  
HETATM   16  C   UNL     1      -7.925   9.243  69.088  1.00  0.00    -0.097 A  
HETATM   17  C   UNL     1      -7.216   8.626  68.055  1.00  0.00    -0.087 A  
HETATM   18  C   UNL     1      -7.329   7.253  67.855  1.00  0.00    -0.097 A  
HETATM   19  C   UNL     1      -8.152   6.493  68.686  1.00  0.00    -0.118 A  
HETATM   20  C   UNL     1      -8.862   7.110  69.721  1.00  0.00    -0.142 A  
ENDBRANCH  14  15
ENDBRANCH  11  14
ENDBRANCH   9  10
ENDBRANCH   8   9
TORSDOF 4
ENDMDL
MODEL      255
REMARK 921   NORMALIZED FREE ENERGY PREDICTED BY IDOCK:   -2.71 KCAL/MOL
REMARK 922        TOTAL FREE ENERGY PREDICTED BY IDOCK:   -3.96 KCAL/MOL
REMARK 923 INTER-LIGAND FREE ENERGY PREDICTED BY IDOCK:   -4.14 KCAL/MOL
REMARK 924 INTRA-LIGAND FREE ENERGY PREDICTED BY IDOCK:    0.18 KCAL/MOL
REMARK 927      BINDING AFFINITY PREDICTED BY RF-SCORE:    0.00 PKD
ROOT
HETATM    1  O   UNL     1      -6.317   6.560  66.810  1.00  0.00    -0.038 OA 
HETATM    2  N   UNL     1      -5.955   7.749  66.820  1.00  0.00    -0.046 N  
HETATM    3  C   UNL     1      -6.501   8.593  65.802  1.00  0.00    -0.056 A  
HETATM    4  O   UNL     1      -5.218   8.272  67.661  1.00  0.00    -0.032 OA 
HETATM    5  N   UNL     1      -5.799   9.498  65.151  1.00  0.00    -0.062 NA 
HETATM    6  C   UNL     1      -6.703  10.104  64.316  1.00  0.00    -0.108 A  
HETATM    7  C   UNL     1      -7.960   9.567  64.481  1.00  0.00    -0.133 A  
HETATM    8  N   UNL     1      -7.817   8.577  65.425  1.00  0.00    -0.101 NA 
ENDROOT
BRANCH   8   9
HETATM    9  C   UNL     1      -8.905   7.788  65.975  1.00  0.00    -0.157 C  
BRANCH   9  10
HETATM   10  C   UNL     1     -10.014   8.656  66.532  1.00  0.00    -0.282 C  
HETATM   11  N   UNL     1      -9.730   9.999  66.598  1.00  0.00    -0.185 N  
HETATM   12  O   UNL     1     -11.087   8.173  66.887  1.00  0.00     0.050 OA 
HETATM   13  H   UNL     1      -8.817  10.325  66.281  1.00  0.00     0.000 HD 
BRANCH  11  14
HETATM   14  C   UNL     1     -10.682  10.968  67.102  1.00  0.00    -0.265 C  
BRANCH  14  15
HETATM   15  C   UNL     1     -11.203  11.842  65.992  1.00  0.00    -0.352 A  
HETATM   16  C   UNL     1     -11.969  12.981  66.287  1.00  0.00    -0.477 A  
HETATM   17  C   UNL     1     -12.449  13.799  65.261  1.00  0.00    -0.512 A  
HETATM   18  C   UNL     1     -12.180  13.483  63.933  1.00  0.00    -0.458 A  
HETATM   19  C   UNL     1     -11.430  12.349  63.625  1.00  0.00    -0.568 A  
HETATM   20  C   UNL     1     -10.947  11.529  64.650  1.00  0.00    -0.353 A  
ENDBRANCH  14  15
ENDBRANCH  11  14
ENDBRANCH   9  10
ENDBRANCH   8   9
TORSDOF 4
ENDMDL
MODEL      256
REMARK 921   NORMALIZED FREE ENERGY PREDICTED BY IDOCK:   -2.70 KCAL/MOL
REMARK 922        TOTAL FREE ENERGY PREDICTED BY IDOCK:   -3.95 KCAL/MOL
REMARK 923 INTER-LIGAND FREE ENERGY PREDICTED BY IDOCK:   -3.46 KCAL/MOL
REMARK 924 INTRA-LIGAND FREE ENERGY PREDICTED BY IDOCK:   -0.48 KCAL/MOL
REMARK 927      BINDING AFFINITY PREDICTED BY RF-SCORE:    0.00 PKD
ROOT
HETATM    1  O   UNL     1     -10.185  11.174  65.287  1.00  0.00    -0.253 OA 
HETATM    2  N   UNL     1     -10.496  12.064  66.096  1.00  0.00    -0.230 N  
HETATM    3  C   UNL     1     -10.951  11.629  67.381  1.00  0.00    -0.261 A  
HETATM    4  O   UNL     1     -10.390  13.280  65.909  1.00  0.00    -0.281 OA 
HETATM    5  N   UNL     1     -11.961  12.181  68.022  1.00  0.00    -0.492 NA 
HETATM    6  C   UNL     1     -12.027  11.505  69.214  1.00  0.00    -0.330 A  
HETATM    7  C   UNL     1     -11.037  10.552  69.293  1.00  0.00    -0.246 A  
HETATM    8  N   UNL     1     -10.361  10.623  68.097  1.00  0.00    -0.168 NA 
ENDROOT
BRANCH   8   9
HETATM    9  C   UNL     1      -9.178   9.850  67.763  1.00  0.00    -0.130 C  
BRANCH   9  10
HETATM   10  C   UNL     1      -9.511   8.409  67.439  1.00  0.00    -0.147 C  
HETATM   11  N   UNL     1      -9.100   7.488  68.373  1.00  0.00    -0.134 N  
HETATM   12  O   UNL     1     -10.114   8.106  66.411  1.00  0.00    -0.241 OA 
HETATM   13  H   UNL     1      -8.608   7.816  69.204  1.00  0.00     0.000 HD 
BRANCH  11  14
HETATM   14  C   UNL     1      -9.342   6.068  68.220  1.00  0.00    -0.116 C  
BRANCH  14  15
HETATM   15  C   UNL     1      -8.309   5.437  67.324  1.00  0.00    -0.107 A  
HETATM   16  C   UNL     1      -8.675   4.420  66.428  1.00  0.00    -0.112 A  
HETATM   17  C   UNL     1      -7.723   3.836  65.589  1.00  0.00    -0.086 A  
HETATM   18  C   UNL     1      -6.396   4.254  65.642  1.00  0.00    -0.036 A  
HETATM   19  C   UNL     1      -6.017   5.256  66.534  1.00  0.00    -0.023 A  
HETATM   20  C   UNL     1      -6.968   5.843  67.374  1.00  0.00    -0.069 A  
ENDBRANCH  14  15
ENDBRANCH  11  14
ENDBRANCH   9  10
ENDBRANCH   8   9
TORSDOF 4
ENDMDL
MODEL      257
REMARK 921   NORMALIZED FREE ENERGY PREDICTED BY IDOCK:   -2.57 KCAL/MOL
REMARK 922        TOTAL FREE ENERGY PREDICTED BY IDOCK:   -3.79 KCAL/MOL
REMARK 923 INTER-LIGAND FREE ENERGY PREDICTED BY IDOCK:   -3.08 KCAL/MOL
REMARK 924 INTRA-LIGAND FREE ENERGY PREDICTED BY IDOCK:   -0.71 KCAL/MOL
REMARK 927      BINDING AFFINITY PREDICTED BY RF-SCORE:    0.00 PKD
ROOT
HETATM    1  O   UNL     1     -10.359   3.822  64.883  1.00  0.00    -0.164 OA 
HETATM    2  N   UNL     1      -9.503   3.340  64.122  1.00  0.00    -0.131 N  
HETATM    3  C   UNL     1      -8.326   4.126  63.904  1.00  0.00    -0.097 A  
HETATM    4  O   UNL     1      -9.553   2.227  63.589  1.00  0.00    -0.107 OA 
HETATM    5  N   UNL     1      -7.749   4.263  62.727  1.00  0.00    -0.063 NA 
HETATM    6  C   UNL     1      -6.647   5.042  62.971  1.00  0.00    -0.026 A  
HETATM    7  C   UNL     1      -6.555   5.359  64.307  1.00  0.00    -0.042 A  
HETATM    8  N   UNL     1      -7.655   4.783  64.898  1.00  0.00    -0.076 NA 
ENDROOT
BRANCH   8   9
HETATM    9  C   UNL     1      -7.932   4.790  66.324  1.00  0.00    -0.103 C  
BRANCH   9  10
HETATM   10  C   UNL     1      -8.602   6.073  66.769  1.00  0.00    -0.110 C  
HETATM   11  N   UNL     1      -9.975   6.036  66.807  1.00  0.00    -0.162 N  
HETATM   12  O   UNL     1      -7.944   7.065  67.078  1.00  0.00    -0.112 OA 
HETATM   13  H   UNL     1     -10.451   5.174  66.539  1.00  0.00     0.000 HD 
BRANCH  11  14
HETATM   14  C   UNL     1     -10.771   7.176  67.213  1.00  0.00    -0.329 C  
BRANCH  14  15
HETATM   15  C   UNL     1     -10.854   7.270  68.714  1.00  0.00    -0.121 A  
HETATM   16  C   UNL     1     -11.505   6.268  69.451  1.00  0.00    -0.348 A  
HETATM   17  C   UNL     1     -11.579   6.345  70.844  1.00  0.00    -0.393 A  
HETATM   18  C   UNL     1     -11.014   7.427  71.513  1.00  0.00    -0.255 A  
HETATM   19  C   UNL     1     -10.374   8.435  70.793  1.00  0.00    -0.228 A  
HETATM   20  C   UNL     1     -10.298   8.359  69.398  1.00  0.00    -0.217 A  
ENDBRANCH  14  15
ENDBRANCH  11  14
ENDBRANCH   9  10
ENDBRANCH   8   9
TORSDOF 4
ENDMDL
MODEL      258
REMARK 921   NORMALIZED FREE ENERGY PREDICTED BY IDOCK:   -2.55 KCAL/MOL
REMARK 922        TOTAL FREE ENERGY PREDICTED BY IDOCK:   -3.76 KCAL/MOL
REMARK 923 INTER-LIGAND FREE ENERGY PREDICTED BY IDOCK:   -3.37 KCAL/MOL
REMARK 924 INTRA-LIGAND FREE ENERGY PREDICTED BY IDOCK:   -0.39 KCAL/MOL
REMARK 927      BINDING AFFINITY PREDICTED BY RF-SCORE:    0.00 PKD
ROOT
HETATM    1  O   UNL     1     -13.249   7.235  70.897  1.00  0.00    -0.201 OA 
HETATM    2  N   UNL     1     -12.443   7.388  71.831  1.00  0.00    -0.312 N  
HETATM    3  C   UNL     1     -11.552   6.299  72.091  1.00  0.00    -0.319 A  
HETATM    4  O   UNL     1     -12.307   8.411  72.508  1.00  0.00    -0.376 OA 
HETATM    5  N   UNL     1     -11.236   5.889  73.302  1.00  0.00    -0.180 NA 
HETATM    6  C   UNL     1     -10.335   4.874  73.101  1.00  0.00    -0.187 A  
HETATM    7  C   UNL     1     -10.099   4.687  71.758  1.00  0.00    -0.191 A  
HETATM    8  N   UNL     1     -10.905   5.594  71.112  1.00  0.00    -0.245 NA 
ENDROOT
BRANCH   8   9
HETATM    9  C   UNL     1     -10.929   5.813  69.677  1.00  0.00    -0.315 C  
BRANCH   9  10
HETATM   10  C   UNL     1      -9.574   5.578  69.041  1.00  0.00    -0.136 C  
HETATM   11  N   UNL     1      -9.452   4.404  68.338  1.00  0.00    -0.148 N  
HETATM   12  O   UNL     1      -8.665   6.398  69.152  1.00  0.00    -0.127 OA 
HETATM   13  H   UNL     1     -10.254   3.775  68.287  1.00  0.00     0.000 HD 
BRANCH  11  14
HETATM   14  C   UNL     1      -8.225   4.027  67.666  1.00  0.00    -0.094 C  
BRANCH  14  15
HETATM   15  C   UNL     1      -8.176   4.595  66.272  1.00  0.00    -0.107 A  
HETATM   16  C   UNL     1      -9.171   4.266  65.338  1.00  0.00    -0.152 A  
HETATM   17  C   UNL     1      -9.135   4.795  64.045  1.00  0.00    -0.045 A  
HETATM   18  C   UNL     1      -8.102   5.649  63.670  1.00  0.00    -0.116 A  
HETATM   19  C   UNL     1      -7.101   5.976  64.585  1.00  0.00    -0.057 A  
HETATM   20  C   UNL     1      -7.136   5.448  65.879  1.00  0.00    -0.068 A  
ENDBRANCH  14  15
ENDBRANCH  11  14
ENDBRANCH   9  10
ENDBRANCH   8   9
TORSDOF 4
ENDMDL
MODEL      259
REMARK 921   NORMALIZED FREE ENERGY PREDICTED BY IDOCK:   -2.49 KCAL/MOL
REMARK 922        TOTAL FREE ENERGY PREDICTED BY IDOCK:   -3.69 KCAL/MOL
REMARK 923 INTER-LIGAND FREE ENERGY PREDICTED BY IDOCK:   -2.80 KCAL/MOL
REMARK 924 INTRA-LIGAND FREE ENERGY PREDICTED BY IDOCK:   -0.89 KCAL/MOL
REMARK 927      BINDING AFFINITY PREDICTED BY RF-SCORE:    0.00 PKD
ROOT
HETATM    1  O   UNL     1      -8.350   9.260  70.158  1.00  0.00    -0.138 OA 
HETATM    2  N   UNL     1      -7.680   8.295  69.753  1.00  0.00    -0.096 N  
HETATM    3  C   UNL     1      -8.197   6.992  70.042  1.00  0.00    -0.133 A  
HETATM    4  O   UNL     1      -6.648   8.363  69.079  1.00  0.00    -0.046 OA 
HETATM    5  N   UNL     1      -7.448   5.979  70.427  1.00  0.00    -0.088 NA 
HETATM    6  C   UNL     1      -8.320   4.927  70.545  1.00  0.00    -0.096 A  
HETATM    7  C   UNL     1      -9.599   5.310  70.211  1.00  0.00    -0.179 A  
HETATM    8  N   UNL     1      -9.516   6.649  69.910  1.00  0.00    -0.156 NA 
ENDROOT
BRANCH   8   9
HETATM    9  C   UNL     1     -10.616   7.463  69.424  1.00  0.00    -0.226 C  
BRANCH   9  10
HETATM   10  C   UNL     1     -10.507   7.743  67.940  1.00  0.00    -0.201 C  
HETATM   11  N   UNL     1     -10.227   9.047  67.608  1.00  0.00    -0.226 N  
HETATM   12  O   UNL     1     -10.654   6.850  67.108  1.00  0.00    -0.261 OA 
HETATM   13  H   UNL     1     -10.115   9.732  68.356  1.00  0.00     0.000 HD 
BRANCH  11  14
HETATM   14  C   UNL     1     -10.086   9.484  66.234  1.00  0.00    -0.257 C  
BRANCH  14  15
HETATM   15  C   UNL     1      -8.640   9.489  65.815  1.00  0.00    -0.152 A  
HETATM   16  C   UNL     1      -7.727  10.360  66.429  1.00  0.00    -0.125 A  
HETATM   17  C   UNL     1      -6.382  10.364  66.049  1.00  0.00    -0.111 A  
HETATM   18  C   UNL     1      -5.939   9.507  65.047  1.00  0.00    -0.068 A  
HETATM   19  C   UNL     1      -6.837   8.644  64.420  1.00  0.00    -0.077 A  
HETATM   20  C   UNL     1      -8.183   8.637  64.800  1.00  0.00    -0.161 A  
ENDBRANCH  14  15
ENDBRANCH  11  14
ENDBRANCH   9  10
ENDBRANCH   8   9
TORSDOF 4
ENDMDL
MODEL      260
REMARK 921   NORMALIZED FREE ENERGY PREDICTED BY IDOCK:   -2.43 KCAL/MOL
REMARK 922        TOTAL FREE ENERGY PREDICTED BY IDOCK:   -3.62 KCAL/MOL
REMARK 923 INTER-LIGAND FREE ENERGY PREDICTED BY IDOCK:   -3.01 KCAL/MOL
REMARK 924 INTRA-LIGAND FREE ENERGY PREDICTED BY IDOCK:   -0.61 KCAL/MOL
REMARK 927      BINDING AFFINITY PREDICTED BY RF-SCORE:    0.00 PKD
ROOT
HETATM    1  O   UNL     1      -9.143   8.726  72.867  1.00  0.00    -0.311 OA 
HETATM    2  N   UNL     1      -8.093   8.286  72.369  1.00  0.00    -0.146 N  
HETATM    3  C   UNL     1      -8.176   7.009  71.727  1.00  0.00    -0.103 A  
HETATM    4  O   UNL     1      -7.009   8.876  72.327  1.00  0.00    -0.289 OA 
HETATM    5  N   UNL     1      -7.253   6.076  71.839  1.00  0.00    -0.089 NA 
HETATM    6  C   UNL     1      -7.696   5.052  71.042  1.00  0.00    -0.087 A  
HETATM    7  C   UNL     1      -8.886   5.382  70.434  1.00  0.00    -0.129 A  
HETATM    8  N   UNL     1      -9.201   6.638  70.900  1.00  0.00    -0.157 NA 
ENDROOT
BRANCH   8   9
HETATM    9  C   UNL     1     -10.341   7.425  70.465  1.00  0.00    -0.214 C  
BRANCH   9  10
HETATM   10  C   UNL     1     -10.113   8.058  69.108  1.00  0.00    -0.201 C  
HETATM   11  N   UNL     1      -9.418   9.243  69.123  1.00  0.00    -0.154 N  
HETATM   12  O   UNL     1     -10.523   7.527  68.078  1.00  0.00    -0.204 OA 
HETATM   13  H   UNL     1      -9.107   9.620  70.019  1.00  0.00     0.000 HD 
BRANCH  11  14
HETATM   14  C   UNL     1      -9.112   9.978  67.913  1.00  0.00    -0.131 C  
BRANCH  14  15
HETATM   15  C   UNL     1      -8.250  11.176  68.211  1.00  0.00    -0.134 A  
HETATM   16  C   UNL     1      -7.242  11.098  69.185  1.00  0.00    -0.123 A  
HETATM   17  C   UNL     1      -6.434  12.204  69.462  1.00  0.00    -0.100 A  
HETATM   18  C   UNL     1      -6.631  13.400  68.777  1.00  0.00    -0.102 A  
HETATM   19  C   UNL     1      -7.635  13.494  67.814  1.00  0.00    -0.163 A  
HETATM   20  C   UNL     1      -8.444  12.388  67.535  1.00  0.00    -0.175 A  
ENDBRANCH  14  15
ENDBRANCH  11  14
ENDBRANCH   9  10
ENDBRANCH   8   9
TORSDOF 4
ENDMDL
MODEL      261
REMARK 921   NORMALIZED FREE ENERGY PREDICTED BY IDOCK:   -2.42 KCAL/MOL
REMARK 922        TOTAL FREE ENERGY PREDICTED BY IDOCK:   -3.60 KCAL/MOL
REMARK 923 INTER-LIGAND FREE ENERGY PREDICTED BY IDOCK:   -3.22 KCAL/MOL
REMARK 924 INTRA-LIGAND FREE ENERGY PREDICTED BY IDOCK:   -0.39 KCAL/MOL
REMARK 927      BINDING AFFINITY PREDICTED BY RF-SCORE:    0.00 PKD
ROOT
HETATM    1  O   UNL     1      -8.226   4.153  65.012  1.00  0.00    -0.100 OA 
HETATM    2  N   UNL     1      -7.387   4.974  64.605  1.00  0.00    -0.062 N  
HETATM    3  C   UNL     1      -7.789   6.348  64.598  1.00  0.00    -0.112 A  
HETATM    4  O   UNL     1      -6.228   4.717  64.265  1.00  0.00    -0.025 OA 
HETATM    5  N   UNL     1      -7.506   7.186  63.622  1.00  0.00    -0.093 NA 
HETATM    6  C   UNL     1      -8.025   8.387  64.033  1.00  0.00    -0.151 A  
HETATM    7  C   UNL     1      -8.610   8.270  65.274  1.00  0.00    -0.132 A  
HETATM    8  N   UNL     1      -8.473   6.947  65.622  1.00  0.00    -0.146 NA 
ENDROOT
BRANCH   8   9
HETATM    9  C   UNL     1      -8.876   6.375  66.894  1.00  0.00    -0.119 C  
BRANCH   9  10
HETATM   10  C   UNL     1      -9.883   7.244  67.617  1.00  0.00    -0.151 C  
HETATM   11  N   UNL     1      -9.353   8.115  68.539  1.00  0.00    -0.139 N  
HETATM   12  O   UNL     1     -11.086   7.166  67.375  1.00  0.00    -0.247 OA 
HETATM   13  H   UNL     1      -8.342   8.124  68.681  1.00  0.00     0.000 HD 
BRANCH  11  14
HETATM   14  C   UNL     1     -10.176   9.019  69.315  1.00  0.00    -0.205 C  
BRANCH  14  15
HETATM   15  C   UNL     1     -10.272  10.367  68.650  1.00  0.00    -0.196 A  
HETATM   16  C   UNL     1      -9.177  11.245  68.669  1.00  0.00    -0.163 A  
HETATM   17  C   UNL     1      -9.257  12.494  68.048  1.00  0.00    -0.204 A  
HETATM   18  C   UNL     1     -10.433  12.883  67.413  1.00  0.00    -0.235 A  
HETATM   19  C   UNL     1     -11.532  12.025  67.395  1.00  0.00    -0.406 A  
HETATM   20  C   UNL     1     -11.453  10.773  68.015  1.00  0.00    -0.333 A  
ENDBRANCH  14  15
ENDBRANCH  11  14
ENDBRANCH   9  10
ENDBRANCH   8   9
TORSDOF 4
ENDMDL
MODEL      262
REMARK 921   NORMALIZED FREE ENERGY PREDICTED BY IDOCK:   -2.29 KCAL/MOL
REMARK 922        TOTAL FREE ENERGY PREDICTED BY IDOCK:   -3.44 KCAL/MOL
REMARK 923 INTER-LIGAND FREE ENERGY PREDICTED BY IDOCK:   -3.26 KCAL/MOL
REMARK 924 INTRA-LIGAND FREE ENERGY PREDICTED BY IDOCK:   -0.18 KCAL/MOL
REMARK 927      BINDING AFFINITY PREDICTED BY RF-SCORE:    0.00 PKD
ROOT
HETATM    1  O   UNL     1      -7.845   7.402  66.678  1.00  0.00    -0.104 OA 
HETATM    2  N   UNL     1      -7.369   8.498  66.337  1.00  0.00    -0.079 N  
HETATM    3  C   UNL     1      -8.191   9.321  65.503  1.00  0.00    -0.124 A  
HETATM    4  O   UNL     1      -6.282   8.959  66.700  1.00  0.00    -0.059 OA 
HETATM    5  N   UNL     1      -7.732  10.010  64.479  1.00  0.00    -0.143 NA 
HETATM    6  C   UNL     1      -8.824  10.684  63.997  1.00  0.00    -0.164 A  
HETATM    7  C   UNL     1      -9.944  10.409  64.750  1.00  0.00    -0.339 A  
HETATM    8  N   UNL     1      -9.531   9.511  65.706  1.00  0.00    -0.231 NA 
ENDROOT
BRANCH   8   9
HETATM    9  C   UNL     1     -10.364   8.997  66.779  1.00  0.00    -0.240 C  
BRANCH   9  10
HETATM   10  C   UNL     1     -10.592  10.024  67.867  1.00  0.00    -0.250 C  
HETATM   11  N   UNL     1      -9.817  11.156  67.776  1.00  0.00    -0.169 N  
HETATM   12  O   UNL     1     -11.421   9.842  68.756  1.00  0.00    -0.068 OA 
HETATM   13  H   UNL     1      -9.153  11.237  67.006  1.00  0.00     0.000 HD 
BRANCH  11  14
HETATM   14  C   UNL     1      -9.912  12.240  68.733  1.00  0.00    -0.034 C  
BRANCH  14  15
HETATM   15  C   UNL     1     -10.566  13.448  68.119  1.00  0.00    -0.255 A  
HETATM   16  C   UNL     1     -10.512  14.691  68.770  1.00  0.00    -0.246 A  
HETATM   17  C   UNL     1     -11.111  15.818  68.202  1.00  0.00    -0.341 A  
HETATM   18  C   UNL     1     -11.779  15.713  66.985  1.00  0.00     0.281 A  
HETATM   19  C   UNL     1     -11.850  14.483  66.333  1.00  0.00    -0.361 A  
HETATM   20  C   UNL     1     -11.250  13.354  66.899  1.00  0.00    -0.330 A  
ENDBRANCH  14  15
ENDBRANCH  11  14
ENDBRANCH   9  10
ENDBRANCH   8   9
TORSDOF 4
ENDMDL
MODEL      263
REMARK 921   NORMALIZED FREE ENERGY PREDICTED BY IDOCK:   -2.27 KCAL/MOL
REMARK 922        TOTAL FREE ENERGY PREDICTED BY IDOCK:   -3.41 KCAL/MOL
REMARK 923 INTER-LIGAND FREE ENERGY PREDICTED BY IDOCK:   -3.03 KCAL/MOL
REMARK 924 INTRA-LIGAND FREE ENERGY PREDICTED BY IDOCK:   -0.39 KCAL/MOL
REMARK 927      BINDING AFFINITY PREDICTED BY RF-SCORE:    0.00 PKD
ROOT
HETATM    1  O   UNL     1      -7.424   2.646  63.976  1.00  0.00    -0.063 OA 
HETATM    2  N   UNL     1      -6.531   3.508  64.035  1.00  0.00    -0.033 N  
HETATM    3  C   UNL     1      -6.950   4.844  64.331  1.00  0.00    -0.049 A  
HETATM    4  O   UNL     1      -5.319   3.302  63.921  1.00  0.00    -0.008 OA 
HETATM    5  N   UNL     1      -6.458   5.911  63.735  1.00  0.00    -0.029 NA 
HETATM    6  C   UNL     1      -7.089   6.968  64.340  1.00  0.00    -0.058 A  
HETATM    7  C   UNL     1      -7.953   6.529  65.318  1.00  0.00    -0.119 A  
HETATM    8  N   UNL     1      -7.875   5.157  65.290  1.00  0.00    -0.087 NA 
ENDROOT
BRANCH   8   9
HETATM    9  C   UNL     1      -8.560   4.265  66.209  1.00  0.00    -0.113 C  
BRANCH   9  10
HETATM   10  C   UNL     1      -9.827   4.881  66.763  1.00  0.00    -0.200 C  
HETATM   11  N   UNL     1      -9.719   5.406  68.029  1.00  0.00    -0.130 N  
HETATM   12  O   UNL     1     -10.867   4.907  66.107  1.00  0.00    -0.289 OA 
HETATM   13  H   UNL     1      -8.821   5.350  68.510  1.00  0.00     0.000 HD 
BRANCH  11  14
HETATM   14  C   UNL     1     -10.835   6.035  68.706  1.00  0.00    -0.322 C  
BRANCH  14  15
HETATM   15  C   UNL     1     -10.647   7.527  68.786  1.00  0.00    -0.179 A  
HETATM   16  C   UNL     1     -10.608   8.170  70.034  1.00  0.00    -0.239 A  
HETATM   17  C   UNL     1     -10.427   9.552  70.115  1.00  0.00    -0.299 A  
HETATM   18  C   UNL     1     -10.293  10.308  68.954  1.00  0.00    -0.221 A  
HETATM   19  C   UNL     1     -10.340   9.684  67.708  1.00  0.00    -0.286 A  
HETATM   20  C   UNL     1     -10.520   8.300  67.624  1.00  0.00    -0.303 A  
ENDBRANCH  14  15
ENDBRANCH  11  14
ENDBRANCH   9  10
ENDBRANCH   8   9
TORSDOF 4
ENDMDL
MODEL      264
REMARK 921   NORMALIZED FREE ENERGY PREDICTED BY IDOCK:   -2.16 KCAL/MOL
REMARK 922        TOTAL FREE ENERGY PREDICTED BY IDOCK:   -3.29 KCAL/MOL
REMARK 923 INTER-LIGAND FREE ENERGY PREDICTED BY IDOCK:   -3.03 KCAL/MOL
REMARK 924 INTRA-LIGAND FREE ENERGY PREDICTED BY IDOCK:   -0.26 KCAL/MOL
REMARK 927      BINDING AFFINITY PREDICTED BY RF-SCORE:    0.00 PKD
ROOT
HETATM    1  O   UNL     1     -11.432   3.814  64.259  1.00  0.00    -0.127 OA 
HETATM    2  N   UNL     1     -10.393   3.197  63.968  1.00  0.00    -0.181 N  
HETATM    3  C   UNL     1      -9.166   3.740  64.466  1.00  0.00    -0.144 A  
HETATM    4  O   UNL     1     -10.335   2.134  63.343  1.00  0.00    -0.135 OA 
HETATM    5  N   UNL     1      -8.055   3.798  63.760  1.00  0.00    -0.088 NA 
HETATM    6  C   UNL     1      -7.128   4.335  64.616  1.00  0.00    -0.058 A  
HETATM    7  C   UNL     1      -7.685   4.585  65.850  1.00  0.00    -0.094 A  
HETATM    8  N   UNL     1      -9.006   4.220  65.738  1.00  0.00    -0.124 NA 
ENDROOT
BRANCH   8   9
HETATM    9  C   UNL     1      -9.969   4.236  66.825  1.00  0.00    -0.160 C  
BRANCH   9  10
HETATM   10  C   UNL     1      -9.810   5.454  67.710  1.00  0.00    -0.143 C  
HETATM   11  N   UNL     1     -10.740   6.446  67.514  1.00  0.00    -0.278 N  
HETATM   12  O   UNL     1      -8.910   5.526  68.544  1.00  0.00    -0.105 OA 
HETATM   13  H   UNL     1     -11.460   6.312  66.804  1.00  0.00     0.000 HD 
BRANCH  11  14
HETATM   14  C   UNL     1     -10.734   7.676  68.279  1.00  0.00    -0.051 C  
BRANCH  14  15
HETATM   15  C   UNL     1     -10.076   8.790  67.508  1.00  0.00    -0.281 A  
HETATM   16  C   UNL     1      -9.855   8.661  66.128  1.00  0.00    -0.269 A  
HETATM   17  C   UNL     1      -9.251   9.693  65.405  1.00  0.00    -0.295 A  
HETATM   18  C   UNL     1      -8.852  10.858  66.055  1.00  0.00    -0.198 A  
HETATM   19  C   UNL     1      -9.056  10.995  67.427  1.00  0.00    -0.143 A  
HETATM   20  C   UNL     1      -9.661   9.963  68.152  1.00  0.00    -0.161 A  
ENDBRANCH  14  15
ENDBRANCH  11  14
ENDBRANCH   9  10
ENDBRANCH   8   9
TORSDOF 4
ENDMDL
MODEL      265
REMARK 921   NORMALIZED FREE ENERGY PREDICTED BY IDOCK:   -1.95 KCAL/MOL
REMARK 922        TOTAL FREE ENERGY PREDICTED BY IDOCK:   -3.03 KCAL/MOL
REMARK 923 INTER-LIGAND FREE ENERGY PREDICTED BY IDOCK:   -3.61 KCAL/MOL
REMARK 924 INTRA-LIGAND FREE ENERGY PREDICTED BY IDOCK:    0.58 KCAL/MOL
REMARK 927      BINDING AFFINITY PREDICTED BY RF-SCORE:    0.00 PKD
ROOT
HETATM    1  O   UNL     1      -5.781  16.479  67.542  1.00  0.00    -0.126 OA 
HETATM    2  N   UNL     1      -6.260  16.906  68.606  1.00  0.00    -0.149 N  
HETATM    3  C   UNL     1      -6.946  18.160  68.541  1.00  0.00    -0.246 A  
HETATM    4  O   UNL     1      -6.246  16.318  69.692  1.00  0.00    -0.178 OA 
HETATM    5  N   UNL     1      -6.835  19.100  69.457  1.00  0.00    -0.255 NA 
HETATM    6  C   UNL     1      -7.681  20.095  69.038  1.00  0.00     0.133 A  
HETATM    7  C   UNL     1      -8.315  19.740  67.869  1.00  0.00    -0.304 A  
HETATM    8  N   UNL     1      -7.819  18.500  67.543  1.00  0.00    -0.231 NA 
ENDROOT
BRANCH   8   9
HETATM    9  C   UNL     1      -8.264  17.694  66.420  1.00  0.00    -0.263 C  
BRANCH   9  10
HETATM   10  C   UNL     1      -8.604  16.277  66.833  1.00  0.00    -0.215 C  
HETATM   11  N   UNL     1      -9.286  16.161  68.021  1.00  0.00    -0.202 N  
HETATM   12  O   UNL     1      -8.290  15.314  66.137  1.00  0.00     0.010 OA 
HETATM   13  H   UNL     1      -9.515  17.008  68.542  1.00  0.00     0.000 HD 
BRANCH  11  14
HETATM   14  C   UNL     1      -9.691  14.879  68.560  1.00  0.00    -0.215 C  
BRANCH  14  15
HETATM   15  C   UNL     1     -10.888  15.025  69.462  1.00  0.00    -0.272 A  
HETATM   16  C   UNL     1     -12.121  14.458  69.102  1.00  0.00    -0.316 A  
HETATM   17  C   UNL     1     -13.232  14.584  69.938  1.00  0.00     0.580 A  
HETATM   18  C   UNL     1     -13.128  15.286  71.136  1.00  0.00    -0.546 A  
HETATM   19  C   UNL     1     -11.913  15.864  71.501  1.00  0.00    -0.537 A  
HETATM   20  C   UNL     1     -10.798  15.738  70.666  1.00  0.00    -0.281 A  
ENDBRANCH  14  15
ENDBRANCH  11  14
ENDBRANCH   9  10
ENDBRANCH   8   9
TORSDOF 4
ENDMDL
MODEL      266
REMARK 921   NORMALIZED FREE ENERGY PREDICTED BY IDOCK:   -1.95 KCAL/MOL
REMARK 922        TOTAL FREE ENERGY PREDICTED BY IDOCK:   -3.02 KCAL/MOL
REMARK 923 INTER-LIGAND FREE ENERGY PREDICTED BY IDOCK:   -2.47 KCAL/MOL
REMARK 924 INTRA-LIGAND FREE ENERGY PREDICTED BY IDOCK:   -0.55 KCAL/MOL
REMARK 927      BINDING AFFINITY PREDICTED BY RF-SCORE:    0.00 PKD
ROOT
HETATM    1  O   UNL     1      -6.131  10.456  63.823  1.00  0.00    -0.138 OA 
HETATM    2  N   UNL     1      -7.238   9.893  63.861  1.00  0.00    -0.123 N  
HETATM    3  C   UNL     1      -7.231   8.463  63.801  1.00  0.00    -0.098 A  
HETATM    4  O   UNL     1      -8.329  10.453  64.005  1.00  0.00    -0.166 OA 
HETATM    5  N   UNL     1      -8.092   7.758  63.096  1.00  0.00    -0.119 NA 
HETATM    6  C   UNL     1      -7.765   6.452  63.353  1.00  0.00    -0.102 A  
HETATM    7  C   UNL     1      -6.709   6.374  64.232  1.00  0.00    -0.038 A  
HETATM    8  N   UNL     1      -6.355   7.676  64.499  1.00  0.00    -0.044 NA 
ENDROOT
BRANCH   8   9
HETATM    9  C   UNL     1      -5.332   8.084  65.445  1.00  0.00    -0.029 C  
BRANCH   9  10
HETATM   10  C   UNL     1      -5.925   8.610  66.735  1.00  0.00    -0.056 C  
HETATM   11  N   UNL     1      -6.844   7.785  67.338  1.00  0.00    -0.068 N  
HETATM   12  O   UNL     1      -5.588   9.699  67.197  1.00  0.00    -0.046 OA 
HETATM   13  H   UNL     1      -7.070   6.894  66.895  1.00  0.00     0.000 HD 
BRANCH  11  14
HETATM   14  C   UNL     1      -7.504   8.136  68.579  1.00  0.00    -0.099 C  
BRANCH  14  15
HETATM   15  C   UNL     1      -8.702   9.012  68.326  1.00  0.00    -0.130 A  
HETATM   16  C   UNL     1      -9.018  10.054  69.213  1.00  0.00    -0.186 A  
HETATM   17  C   UNL     1     -10.124  10.875  68.980  1.00  0.00    -0.212 A  
HETATM   18  C   UNL     1     -10.931  10.658  67.866  1.00  0.00    -0.351 A  
HETATM   19  C   UNL     1     -10.635   9.620  66.983  1.00  0.00    -0.267 A  
HETATM   20  C   UNL     1      -9.528   8.798  67.214  1.00  0.00    -0.200 A  
ENDBRANCH  14  15
ENDBRANCH  11  14
ENDBRANCH   9  10
ENDBRANCH   8   9
TORSDOF 4
ENDMDL
MODEL      267
REMARK 921   NORMALIZED FREE ENERGY PREDICTED BY IDOCK:   -1.38 KCAL/MOL
REMARK 922        TOTAL FREE ENERGY PREDICTED BY IDOCK:   -2.32 KCAL/MOL
REMARK 923 INTER-LIGAND FREE ENERGY PREDICTED BY IDOCK:   -1.76 KCAL/MOL
REMARK 924 INTRA-LIGAND FREE ENERGY PREDICTED BY IDOCK:   -0.56 KCAL/MOL
REMARK 927      BINDING AFFINITY PREDICTED BY RF-SCORE:    0.00 PKD
ROOT
HETATM    1  O   UNL     1      -6.546  10.555  63.869  1.00  0.00    -0.055 OA 
HETATM    2  N   UNL     1      -7.621   9.932  63.855  1.00  0.00    -0.137 N  
HETATM    3  C   UNL     1      -7.577   8.593  63.350  1.00  0.00    -0.117 A  
HETATM    4  O   UNL     1      -8.700  10.343  64.291  1.00  0.00    -0.181 OA 
HETATM    5  N   UNL     1      -8.501   8.081  62.562  1.00  0.00    -0.099 NA 
HETATM    6  C   UNL     1      -8.104   6.785  62.358  1.00  0.00    -0.088 A  
HETATM    7  C   UNL     1      -6.940   6.515  63.043  1.00  0.00    -0.044 A  
HETATM    8  N   UNL     1      -6.595   7.693  63.661  1.00  0.00    -0.057 NA 
ENDROOT
BRANCH   8   9
HETATM    9  C   UNL     1      -5.470   7.861  64.565  1.00  0.00    -0.040 C  
BRANCH   9  10
HETATM   10  C   UNL     1      -5.895   7.823  66.018  1.00  0.00    -0.037 C  
HETATM   11  N   UNL     1      -5.975   6.569  66.573  1.00  0.00    -0.027 N  
HETATM   12  O   UNL     1      -6.138   8.855  66.640  1.00  0.00    -0.058 OA 
HETATM   13  H   UNL     1      -5.754   5.759  65.993  1.00  0.00     0.000 HD 
BRANCH  11  14
HETATM   14  C   UNL     1      -6.363   6.355  67.952  1.00  0.00    -0.040 C  
BRANCH  14  15
HETATM   15  C   UNL     1      -7.499   5.371  68.049  1.00  0.00    -0.077 A  
HETATM   16  C   UNL     1      -7.512   4.223  67.240  1.00  0.00    -0.077 A  
HETATM   17  C   UNL     1      -8.559   3.303  67.329  1.00  0.00    -0.121 A  
HETATM   18  C   UNL     1      -9.607   3.523  68.218  1.00  0.00    -0.161 A  
HETATM   19  C   UNL     1      -9.612   4.664  69.020  1.00  0.00    -0.242 A  
HETATM   20  C   UNL     1      -8.564   5.586  68.933  1.00  0.00    -0.100 A  
ENDBRANCH  14  15
ENDBRANCH  11  14
ENDBRANCH   9  10
ENDBRANCH   8   9
TORSDOF 4
ENDMDL
MODEL      268
REMARK 921   NORMALIZED FREE ENERGY PREDICTED BY IDOCK:   -1.08 KCAL/MOL
REMARK 922        TOTAL FREE ENERGY PREDICTED BY IDOCK:   -1.96 KCAL/MOL
REMARK 923 INTER-LIGAND FREE ENERGY PREDICTED BY IDOCK:   -2.28 KCAL/MOL
REMARK 924 INTRA-LIGAND FREE ENERGY PREDICTED BY IDOCK:    0.32 KCAL/MOL
REMARK 927      BINDING AFFINITY PREDICTED BY RF-SCORE:    0.00 PKD
ROOT
HETATM    1  O   UNL     1      -6.864  12.598  68.681  1.00  0.00    -0.080 OA 
HETATM    2  N   UNL     1      -8.099  12.734  68.725  1.00  0.00     0.012 N  
HETATM    3  C   UNL     1      -8.593  14.077  68.763  1.00  0.00    -0.032 A  
HETATM    4  O   UNL     1      -8.929  11.821  68.680  1.00  0.00    -0.155 OA 
HETATM    5  N   UNL     1      -9.595  14.464  69.526  1.00  0.00     0.235 NA 
HETATM    6  C   UNL     1      -9.770  15.789  69.224  1.00  0.00    -0.263 A  
HETATM    7  C   UNL     1      -8.875  16.195  68.259  1.00  0.00    -0.188 A  
HETATM    8  N   UNL     1      -8.104  15.090  67.984  1.00  0.00    -0.125 NA 
ENDROOT
BRANCH   8   9
HETATM    9  C   UNL     1      -7.074  15.028  66.963  1.00  0.00     0.253 C  
BRANCH   9  10
HETATM   10  C   UNL     1      -6.465  16.386  66.683  1.00  0.00     0.122 C  
HETATM   11  N   UNL     1      -7.325  17.316  66.150  1.00  0.00    -0.304 N  
HETATM   12  O   UNL     1      -5.284  16.621  66.930  1.00  0.00    -0.268 OA 
HETATM   13  H   UNL     1      -8.294  17.047  65.976  1.00  0.00     0.000 HD 
BRANCH  11  14
HETATM   14  C   UNL     1      -6.906  18.664  65.826  1.00  0.00    -0.272 C  
BRANCH  14  15
HETATM   15  C   UNL     1      -6.602  19.450  67.074  1.00  0.00    -0.200 A  
HETATM   16  C   UNL     1      -5.426  20.212  67.163  1.00  0.00    -0.177 A  
HETATM   17  C   UNL     1      -5.141  20.948  68.315  1.00  0.00    -0.305 A  
HETATM   18  C   UNL     1      -6.021  20.924  69.393  1.00  0.00    -0.140 A  
HETATM   19  C   UNL     1      -7.187  20.163  69.323  1.00  0.00    -0.062 A  
HETATM   20  C   UNL     1      -7.475  19.426  68.170  1.00  0.00    -0.328 A  
ENDBRANCH  14  15
ENDBRANCH  11  14
ENDBRANCH   9  10
ENDBRANCH   8   9
TORSDOF 4
ENDMDL
MODEL      269
REMARK 921   NORMALIZED FREE ENERGY PREDICTED BY IDOCK:    1.30 KCAL/MOL
REMARK 922        TOTAL FREE ENERGY PREDICTED BY IDOCK:    0.99 KCAL/MOL
REMARK 923 INTER-LIGAND FREE ENERGY PREDICTED BY IDOCK:   -1.49 KCAL/MOL
REMARK 924 INTRA-LIGAND FREE ENERGY PREDICTED BY IDOCK:    2.48 KCAL/MOL
REMARK 927      BINDING AFFINITY PREDICTED BY RF-SCORE:    0.00 PKD
ROOT
HETATM    1  O   UNL     1     -10.560  15.226  67.049  1.00  0.00    -0.293 OA 
HETATM    2  N   UNL     1     -10.198  16.118  66.263  1.00  0.00    -0.304 N  
HETATM    3  C   UNL     1     -10.423  17.469  66.681  1.00  0.00    -0.270 A  
HETATM    4  O   UNL     1      -9.614  15.942  65.190  1.00  0.00    -0.284 OA 
HETATM    5  N   UNL     1     -10.855  18.418  65.876  1.00  0.00    -0.192 NA 
HETATM    6  C   UNL     1     -10.884  19.546  66.655  1.00  0.00    -0.370 A  
HETATM    7  C   UNL     1     -10.450  19.272  67.932  1.00  0.00    -0.410 A  
HETATM    8  N   UNL     1     -10.177  17.925  67.947  1.00  0.00    -0.352 NA 
ENDROOT
BRANCH   8   9
HETATM    9  C   UNL     1      -9.613  17.202  69.073  1.00  0.00    -0.189 C  
BRANCH   9  10
HETATM   10  C   UNL     1     -10.684  16.658  69.996  1.00  0.00    -0.153 C  
HETATM   11  N   UNL     1     -10.749  17.253  71.233  1.00  0.00     1.118 N  
HETATM   12  O   UNL     1     -11.436  15.753  69.640  1.00  0.00    -0.298 OA 
HETATM   13  H   UNL     1     -10.092  18.001  71.454  1.00  0.00     0.000 HD 
BRANCH  11  14
HETATM   14  C   UNL     1     -11.718  16.855  72.234  1.00  0.00     0.344 C  
BRANCH  14  15
HETATM   15  C   UNL     1     -12.471  15.626  71.799  1.00  0.00    -0.507 A  
HETATM   16  C   UNL     1     -13.699  15.749  71.129  1.00  0.00     0.057 A  
HETATM   17  C   UNL     1     -14.400  14.613  70.716  1.00  0.00     0.423 A  
HETATM   18  C   UNL     1     -13.888  13.345  70.977  1.00  0.00     0.612 A  
HETATM   19  C   UNL     1     -12.675  13.208  71.650  1.00  0.00    -0.320 A  
HETATM   20  C   UNL     1     -11.971  14.344  72.063  1.00  0.00    -0.104 A  
ENDBRANCH  14  15
ENDBRANCH  11  14
ENDBRANCH   9  10
ENDBRANCH   8   9
TORSDOF 4
ENDMDL
MODEL      270
REMARK 921   NORMALIZED FREE ENERGY PREDICTED BY IDOCK:    3.61 KCAL/MOL
REMARK 922        TOTAL FREE ENERGY PREDICTED BY IDOCK:    3.83 KCAL/MOL
REMARK 923 INTER-LIGAND FREE ENERGY PREDICTED BY IDOCK:    0.34 KCAL/MOL
REMARK 924 INTRA-LIGAND FREE ENERGY PREDICTED BY IDOCK:    3.49 KCAL/MOL
REMARK 927      BINDING AFFINITY PREDICTED BY RF-SCORE:    0.00 PKD
ROOT
HETATM    1  O   UNL     1      -5.762  12.584  67.947  1.00  0.00    -0.070 OA 
HETATM    2  N   UNL     1      -6.649  12.067  67.246  1.00  0.00    -0.134 N  
HETATM    3  C   UNL     1      -7.891  12.774  67.163  1.00  0.00    -0.092 A  
HETATM    4  O   UNL     1      -6.532  11.038  66.575  1.00  0.00    -0.112 OA 
HETATM    5  N   UNL     1      -9.068  12.185  67.200  1.00  0.00    -0.183 NA 
HETATM    6  C   UNL     1      -9.972  13.205  67.044  1.00  0.00    -0.244 A  
HETATM    7  C   UNL     1      -9.328  14.413  66.897  1.00  0.00    -0.256 A  
HETATM    8  N   UNL     1      -7.986  14.129  66.998  1.00  0.00    -0.064 NA 
ENDROOT
BRANCH   8   9
HETATM    9  C   UNL     1      -6.916  15.095  66.824  1.00  0.00     0.832 C  
BRANCH   9  10
HETATM   10  C   UNL     1      -7.076  16.294  67.735  1.00  0.00    -0.133 C  
HETATM   11  N   UNL     1      -8.374  16.642  68.024  1.00  0.00    -0.183 N  
HETATM   12  O   UNL     1      -6.100  16.896  68.179  1.00  0.00    -0.125 OA 
HETATM   13  H   UNL     1      -9.132  16.091  67.620  1.00  0.00     0.000 HD 
BRANCH  11  14
HETATM   14  C   UNL     1      -8.704  17.761  68.883  1.00  0.00    -0.114 C  
BRANCH  14  15
HETATM   15  C   UNL     1      -7.478  18.285  69.583  1.00  0.00     0.429 A  
HETATM   16  C   UNL     1      -6.766  17.465  70.472  1.00  0.00     1.557 A  
HETATM   17  C   UNL     1      -5.624  17.942  71.120  1.00  0.00     0.180 A  
HETATM   18  C   UNL     1      -5.188  19.245  70.894  1.00  0.00    -0.243 A  
HETATM   19  C   UNL     1      -5.892  20.074  70.022  1.00  0.00    -0.355 A  
HETATM   20  C   UNL     1      -7.035  19.597  69.372  1.00  0.00    -0.355 A  
ENDBRANCH  14  15
ENDBRANCH  11  14
ENDBRANCH   9  10
ENDBRANCH   8   9
TORSDOF 4
ENDMDL
