MODEL        1
REMARK 921   NORMALIZED FREE ENERGY PREDICTED BY IDOCK:   -6.69 KCAL/MOL
REMARK 922        TOTAL FREE ENERGY PREDICTED BY IDOCK:   -9.81 KCAL/MOL
REMARK 923 INTER-LIGAND FREE ENERGY PREDICTED BY IDOCK:   -9.42 KCAL/MOL
REMARK 924 INTRA-LIGAND FREE ENERGY PREDICTED BY IDOCK:   -0.39 KCAL/MOL
REMARK 927      BINDING AFFINITY PREDICTED BY RF-SCORE:    0.00 PKD
ROOT
HETATM    1  C   UNL     1     -11.801   6.560  72.032  1.00  0.00    -0.329 C  
HETATM    2  N   UNL     1     -12.423   7.719  71.382  1.00  0.00    -0.323 NA 
HETATM    3  C   UNL     1     -13.862   7.716  71.652  1.00  0.00    -0.389 C  
ENDROOT
BRANCH   2   4
HETATM    4  C   UNL     1     -11.766   8.955  71.844  1.00  0.00    -0.369 C  
BRANCH   4   5
HETATM    5  C   UNL     1     -11.198   9.815  70.712  1.00  0.00    -0.419 C  
BRANCH   5   6
HETATM    6  C   UNL     1     -12.226  10.834  70.232  1.00  0.00    -0.348 C  
BRANCH   6   7
HETATM    7  O   UNL     1     -12.052  10.986  68.822  1.00  0.00    -0.518 OA 
BRANCH   7   8
HETATM    8  C   UNL     1     -11.873  12.268  68.437  1.00  0.00    -0.304 A  
HETATM    9  N   UNL     1     -11.870  13.250  69.336  1.00  0.00    -0.319 NA 
HETATM   10  N   UNL     1     -11.694  14.359  68.578  1.00  0.00    -0.320 NA 
HETATM   11  C   UNL     1     -11.327  12.913  64.734  1.00  0.00    -0.349 A  
HETATM   12  C   UNL     1     -11.547  14.093  67.231  1.00  0.00    -0.373 A  
HETATM   13  C   UNL     1     -11.340  14.918  66.116  1.00  0.00    -0.307 A  
HETATM   14  C   UNL     1     -11.649  12.708  67.118  1.00  0.00    -0.434 A  
HETATM   15  C   UNL     1     -11.538  12.102  65.854  1.00  0.00    -0.425 A  
HETATM   16  C   UNL     1     -11.232  14.298  64.865  1.00  0.00    -0.381 A  
BRANCH  10  17
HETATM   17  C   UNL     1     -11.598  15.657  69.236  1.00  0.00    -0.366 C  
BRANCH  17  18
HETATM   18  C   UNL     1     -12.235  15.660  70.605  1.00  0.00    -0.446 A  
HETATM   19  C   UNL     1     -13.582  15.302  70.776  1.00  0.00    -0.313 A  
HETATM   20  C   UNL     1     -13.408  15.673  73.157  1.00  0.00    -0.660 A  
HETATM   21  C   UNL     1     -12.063  16.004  73.005  1.00  0.00    -0.628 A  
HETATM   22  C   UNL     1     -14.166  15.315  72.044  1.00  0.00    -0.679 A  
HETATM   23  C   UNL     1     -11.478  15.995  71.738  1.00  0.00    -0.425 A  
ENDBRANCH  17  18
ENDBRANCH  10  17
ENDBRANCH   7   8
ENDBRANCH   6   7
ENDBRANCH   5   6
ENDBRANCH   4   5
ENDBRANCH   2   4
TORSDOF 7
ENDMDL
MODEL        2
REMARK 921   NORMALIZED FREE ENERGY PREDICTED BY IDOCK:   -6.68 KCAL/MOL
REMARK 922        TOTAL FREE ENERGY PREDICTED BY IDOCK:   -9.80 KCAL/MOL
REMARK 923 INTER-LIGAND FREE ENERGY PREDICTED BY IDOCK:   -8.69 KCAL/MOL
REMARK 924 INTRA-LIGAND FREE ENERGY PREDICTED BY IDOCK:   -1.11 KCAL/MOL
REMARK 927      BINDING AFFINITY PREDICTED BY RF-SCORE:    0.00 PKD
ROOT
HETATM    1  C   UNL     1     -12.751  13.888  65.293  1.00  0.00    -0.449 C  
HETATM    2  N   UNL     1     -12.477  12.465  65.065  1.00  0.00    -0.584 NA 
HETATM    3  C   UNL     1     -12.527  12.183  63.629  1.00  0.00    -0.549 C  
ENDROOT
BRANCH   2   4
HETATM    4  C   UNL     1     -11.176  12.111  65.662  1.00  0.00    -0.335 C  
BRANCH   4   5
HETATM    5  C   UNL     1     -11.265  11.028  66.740  1.00  0.00    -0.163 C  
BRANCH   5   6
HETATM    6  C   UNL     1     -10.939  11.598  68.116  1.00  0.00    -0.226 C  
BRANCH   6   7
HETATM    7  O   UNL     1     -11.968  12.532  68.448  1.00  0.00    -0.322 OA 
BRANCH   7   8
HETATM    8  C   UNL     1     -11.507  13.651  69.047  1.00  0.00    -0.301 A  
HETATM    9  N   UNL     1     -10.456  14.300  68.550  1.00  0.00    -0.247 NA 
HETATM   10  N   UNL     1     -10.289  15.324  69.420  1.00  0.00    -0.241 NA 
HETATM   11  C   UNL     1     -13.365  14.867  72.129  1.00  0.00    -0.473 A  
HETATM   12  C   UNL     1     -11.234  15.357  70.427  1.00  0.00    -0.323 A  
HETATM   13  C   UNL     1     -11.441  16.225  71.509  1.00  0.00    -0.344 A  
HETATM   14  C   UNL     1     -12.060  14.261  70.189  1.00  0.00    -0.403 A  
HETATM   15  C   UNL     1     -13.144  14.006  71.048  1.00  0.00    -0.342 A  
HETATM   16  C   UNL     1     -12.524  15.956  72.355  1.00  0.00    -0.558 A  
BRANCH  10  17
HETATM   17  C   UNL     1      -9.230  16.296  69.174  1.00  0.00    -0.235 C  
BRANCH  17  18
HETATM   18  C   UNL     1      -9.703  17.471  68.352  1.00  0.00    -0.316 A  
HETATM   19  C   UNL     1      -9.965  18.714  68.952  1.00  0.00    -0.399 A  
HETATM   20  C   UNL     1     -10.586  19.649  66.813  1.00  0.00    -0.602 A  
HETATM   21  C   UNL     1     -10.303  18.430  66.201  1.00  0.00    -0.431 A  
HETATM   22  C   UNL     1     -10.410  19.793  68.187  1.00  0.00    -0.561 A  
HETATM   23  C   UNL     1      -9.862  17.348  66.963  1.00  0.00    -0.286 A  
ENDBRANCH  17  18
ENDBRANCH  10  17
ENDBRANCH   7   8
ENDBRANCH   6   7
ENDBRANCH   5   6
ENDBRANCH   4   5
ENDBRANCH   2   4
TORSDOF 7
ENDMDL
MODEL        3
REMARK 921   NORMALIZED FREE ENERGY PREDICTED BY IDOCK:   -6.66 KCAL/MOL
REMARK 922        TOTAL FREE ENERGY PREDICTED BY IDOCK:   -9.77 KCAL/MOL
REMARK 923 INTER-LIGAND FREE ENERGY PREDICTED BY IDOCK:   -9.00 KCAL/MOL
REMARK 924 INTRA-LIGAND FREE ENERGY PREDICTED BY IDOCK:   -0.77 KCAL/MOL
REMARK 927      BINDING AFFINITY PREDICTED BY RF-SCORE:    0.00 PKD
ROOT
HETATM    1  C   UNL     1     -12.116   6.401  71.909  1.00  0.00    -0.310 C  
HETATM    2  N   UNL     1     -12.907   7.508  71.361  1.00  0.00    -0.353 NA 
HETATM    3  C   UNL     1     -14.330   7.245  71.577  1.00  0.00    -0.396 C  
ENDROOT
BRANCH   2   4
HETATM    4  C   UNL     1     -12.470   8.777  71.973  1.00  0.00    -0.386 C  
BRANCH   4   5
HETATM    5  C   UNL     1     -10.993   9.101  71.738  1.00  0.00    -0.429 C  
BRANCH   5   6
HETATM    6  C   UNL     1     -10.822  10.039  70.548  1.00  0.00    -0.314 C  
BRANCH   6   7
HETATM    7  O   UNL     1     -12.091  10.644  70.294  1.00  0.00    -0.287 OA 
BRANCH   7   8
HETATM    8  C   UNL     1     -12.016  11.971  70.054  1.00  0.00    -0.324 A  
HETATM    9  N   UNL     1     -11.370  12.428  68.983  1.00  0.00    -0.266 NA 
HETATM   10  N   UNL     1     -11.492  13.772  69.103  1.00  0.00    -0.279 NA 
HETATM   11  C   UNL     1     -13.762  14.286  72.508  1.00  0.00    -0.608 A  
HETATM   12  C   UNL     1     -12.231  14.167  70.201  1.00  0.00    -0.351 A  
HETATM   13  C   UNL     1     -12.606  15.426  70.692  1.00  0.00    -0.491 A  
HETATM   14  C   UNL     1     -12.601  12.984  70.837  1.00  0.00    -0.364 A  
HETATM   15  C   UNL     1     -13.378  13.037  72.009  1.00  0.00    -0.588 A  
HETATM   16  C   UNL     1     -13.379  15.460  71.860  1.00  0.00    -0.554 A  
BRANCH  10  17
HETATM   17  C   UNL     1     -10.928  14.629  68.066  1.00  0.00    -0.267 C  
BRANCH  17  18
HETATM   18  C   UNL     1     -11.204  14.111  66.675  1.00  0.00    -0.330 A  
HETATM   19  C   UNL     1     -10.153  13.812  65.794  1.00  0.00    -0.322 A  
HETATM   20  C   UNL     1     -11.730  13.150  64.088  1.00  0.00    -0.472 A  
HETATM   21  C   UNL     1     -12.783  13.417  64.962  1.00  0.00    -0.420 A  
HETATM   22  C   UNL     1     -10.415  13.342  64.506  1.00  0.00    -0.434 A  
HETATM   23  C   UNL     1     -12.523  13.890  66.249  1.00  0.00    -0.454 A  
ENDBRANCH  17  18
ENDBRANCH  10  17
ENDBRANCH   7   8
ENDBRANCH   6   7
ENDBRANCH   5   6
ENDBRANCH   4   5
ENDBRANCH   2   4
TORSDOF 7
ENDMDL
MODEL        4
REMARK 921   NORMALIZED FREE ENERGY PREDICTED BY IDOCK:   -6.63 KCAL/MOL
REMARK 922        TOTAL FREE ENERGY PREDICTED BY IDOCK:   -9.73 KCAL/MOL
REMARK 923 INTER-LIGAND FREE ENERGY PREDICTED BY IDOCK:   -9.36 KCAL/MOL
REMARK 924 INTRA-LIGAND FREE ENERGY PREDICTED BY IDOCK:   -0.37 KCAL/MOL
REMARK 927      BINDING AFFINITY PREDICTED BY RF-SCORE:    0.00 PKD
ROOT
HETATM    1  C   UNL     1     -12.186  14.772  64.236  1.00  0.00    -0.379 C  
HETATM    2  N   UNL     1     -12.695  13.467  64.673  1.00  0.00    -0.672 NA 
HETATM    3  C   UNL     1     -12.272  12.436  63.723  1.00  0.00    -0.533 C  
ENDROOT
BRANCH   2   4
HETATM    4  C   UNL     1     -12.232  13.192  66.045  1.00  0.00    -0.414 C  
BRANCH   4   5
HETATM    5  C   UNL     1     -11.231  12.037  66.140  1.00  0.00    -0.394 C  
BRANCH   5   6
HETATM    6  C   UNL     1     -11.194  11.461  67.552  1.00  0.00    -0.292 C  
BRANCH   6   7
HETATM    7  O   UNL     1     -11.097  12.559  68.460  1.00  0.00    -0.232 OA 
BRANCH   7   8
HETATM    8  C   UNL     1     -11.788  12.373  69.605  1.00  0.00    -0.311 A  
HETATM    9  N   UNL     1     -11.950  11.149  70.106  1.00  0.00    -0.334 NA 
HETATM   10  N   UNL     1     -12.698  11.369  71.213  1.00  0.00    -0.415 NA 
HETATM   11  C   UNL     1     -13.167  15.464  71.329  1.00  0.00    -0.585 A  
HETATM   12  C   UNL     1     -12.976  12.702  71.442  1.00  0.00    -0.258 A  
HETATM   13  C   UNL     1     -13.691  13.366  72.449  1.00  0.00    -0.698 A  
HETATM   14  C   UNL     1     -12.368  13.387  70.392  1.00  0.00    -0.382 A  
HETATM   15  C   UNL     1     -12.460  14.789  70.328  1.00  0.00    -0.393 A  
HETATM   16  C   UNL     1     -13.774  14.762  72.370  1.00  0.00    -0.576 A  
BRANCH  10  17
HETATM   17  C   UNL     1     -13.052  10.238  72.064  1.00  0.00    -0.425 C  
BRANCH  17  18
HETATM   18  C   UNL     1     -12.191   9.025  71.800  1.00  0.00    -0.434 A  
HETATM   19  C   UNL     1     -10.796   9.082  71.953  1.00  0.00    -0.413 A  
HETATM   20  C   UNL     1     -10.601   6.764  71.304  1.00  0.00    -0.246 A  
HETATM   21  C   UNL     1     -11.986   6.686  71.174  1.00  0.00    -0.412 A  
HETATM   22  C   UNL     1     -10.007   7.960  71.700  1.00  0.00    -0.227 A  
HETATM   23  C   UNL     1     -12.778   7.808  71.424  1.00  0.00    -0.333 A  
ENDBRANCH  17  18
ENDBRANCH  10  17
ENDBRANCH   7   8
ENDBRANCH   6   7
ENDBRANCH   5   6
ENDBRANCH   4   5
ENDBRANCH   2   4
TORSDOF 7
ENDMDL
MODEL        5
REMARK 921   NORMALIZED FREE ENERGY PREDICTED BY IDOCK:   -6.56 KCAL/MOL
REMARK 922        TOTAL FREE ENERGY PREDICTED BY IDOCK:   -9.64 KCAL/MOL
REMARK 923 INTER-LIGAND FREE ENERGY PREDICTED BY IDOCK:   -8.68 KCAL/MOL
REMARK 924 INTRA-LIGAND FREE ENERGY PREDICTED BY IDOCK:   -0.96 KCAL/MOL
REMARK 927      BINDING AFFINITY PREDICTED BY RF-SCORE:    0.00 PKD
ROOT
HETATM    1  C   UNL     1     -14.395  15.122  72.005  1.00  0.00    -0.586 C  
HETATM    2  N   UNL     1     -13.108  15.818  72.111  1.00  0.00    -0.455 NA 
HETATM    3  C   UNL     1     -12.802  16.064  73.521  1.00  0.00    -0.590 C  
ENDROOT
BRANCH   2   4
HETATM    4  C   UNL     1     -12.062  15.026  71.439  1.00  0.00    -0.339 C  
BRANCH   4   5
HETATM    5  C   UNL     1     -12.474  13.581  71.144  1.00  0.00    -0.424 C  
BRANCH   5   6
HETATM    6  C   UNL     1     -11.991  13.146  69.764  1.00  0.00    -0.314 C  
BRANCH   6   7
HETATM    7  O   UNL     1     -12.497  14.088  68.816  1.00  0.00    -0.173 OA 
BRANCH   7   8
HETATM    8  C   UNL     1     -11.631  14.367  67.819  1.00  0.00    -0.356 A  
HETATM    9  N   UNL     1     -10.705  15.312  67.973  1.00  0.00    -0.261 NA 
HETATM   10  N   UNL     1     -10.066  15.312  66.779  1.00  0.00    -0.252 NA 
HETATM   11  C   UNL     1     -11.923  12.317  64.635  1.00  0.00    -0.437 A  
HETATM   12  C   UNL     1     -10.543  14.364  65.894  1.00  0.00    -0.307 A  
HETATM   13  C   UNL     1     -10.179  14.017  64.585  1.00  0.00    -0.242 A  
HETATM   14  C   UNL     1     -11.573  13.717  66.572  1.00  0.00    -0.392 A  
HETATM   15  C   UNL     1     -12.278  12.677  65.939  1.00  0.00    -0.375 A  
HETATM   16  C   UNL     1     -10.891  12.980  63.970  1.00  0.00    -0.408 A  
BRANCH  10  17
HETATM   17  C   UNL     1      -8.937  16.212  66.580  1.00  0.00    -0.255 C  
BRANCH  17  18
HETATM   18  C   UNL     1      -9.281  17.649  66.892  1.00  0.00    -0.270 A  
HETATM   19  C   UNL     1     -10.333  18.301  66.228  1.00  0.00    -0.422 A  
HETATM   20  C   UNL     1      -9.910  20.323  67.480  1.00  0.00    -0.576 A  
HETATM   21  C   UNL     1      -8.882  19.680  68.167  1.00  0.00    -0.370 A  
HETATM   22  C   UNL     1     -10.640  19.631  66.516  1.00  0.00    -0.591 A  
HETATM   23  C   UNL     1      -8.570  18.351  67.878  1.00  0.00    -0.285 A  
ENDBRANCH  17  18
ENDBRANCH  10  17
ENDBRANCH   7   8
ENDBRANCH   6   7
ENDBRANCH   5   6
ENDBRANCH   4   5
ENDBRANCH   2   4
TORSDOF 7
ENDMDL
MODEL        6
REMARK 921   NORMALIZED FREE ENERGY PREDICTED BY IDOCK:   -6.56 KCAL/MOL
REMARK 922        TOTAL FREE ENERGY PREDICTED BY IDOCK:   -9.64 KCAL/MOL
REMARK 923 INTER-LIGAND FREE ENERGY PREDICTED BY IDOCK:   -9.24 KCAL/MOL
REMARK 924 INTRA-LIGAND FREE ENERGY PREDICTED BY IDOCK:   -0.40 KCAL/MOL
REMARK 927      BINDING AFFINITY PREDICTED BY RF-SCORE:    0.00 PKD
ROOT
HETATM    1  C   UNL     1     -11.982   6.314  71.937  1.00  0.00    -0.286 C  
HETATM    2  N   UNL     1     -12.557   7.511  71.315  1.00  0.00    -0.331 NA 
HETATM    3  C   UNL     1     -14.010   7.507  71.500  1.00  0.00    -0.410 C  
ENDROOT
BRANCH   2   4
HETATM    4  C   UNL     1     -11.922   8.715  71.882  1.00  0.00    -0.356 C  
BRANCH   4   5
HETATM    5  C   UNL     1     -11.185   9.570  70.848  1.00  0.00    -0.411 C  
BRANCH   5   6
HETATM    6  C   UNL     1     -12.020  10.782  70.446  1.00  0.00    -0.357 C  
BRANCH   6   7
HETATM    7  O   UNL     1     -11.921  10.918  69.027  1.00  0.00    -0.342 OA 
BRANCH   7   8
HETATM    8  C   UNL     1     -11.821  12.200  68.615  1.00  0.00    -0.306 A  
HETATM    9  N   UNL     1     -11.809  13.195  69.501  1.00  0.00    -0.316 NA 
HETATM   10  N   UNL     1     -11.726  14.298  68.719  1.00  0.00    -0.323 NA 
HETATM   11  C   UNL     1     -11.519  12.810  64.879  1.00  0.00    -0.355 A  
HETATM   12  C   UNL     1     -11.646  14.018  67.369  1.00  0.00    -0.368 A  
HETATM   13  C   UNL     1     -11.540  14.834  66.233  1.00  0.00    -0.298 A  
HETATM   14  C   UNL     1     -11.693  12.629  67.280  1.00  0.00    -0.435 A  
HETATM   15  C   UNL     1     -11.629  12.008  66.020  1.00  0.00    -0.371 A  
HETATM   16  C   UNL     1     -11.478  14.200  64.986  1.00  0.00    -0.352 A  
BRANCH  10  17
HETATM   17  C   UNL     1     -11.650  15.610  69.352  1.00  0.00    -0.370 C  
BRANCH  17  18
HETATM   18  C   UNL     1     -12.297  15.632  70.716  1.00  0.00    -0.466 A  
HETATM   19  C   UNL     1     -11.593  16.087  71.843  1.00  0.00    -0.524 A  
HETATM   20  C   UNL     1     -13.512  15.665  73.249  1.00  0.00    -0.548 A  
HETATM   21  C   UNL     1     -14.231  15.236  72.135  1.00  0.00    -0.667 A  
HETATM   22  C   UNL     1     -12.196  16.096  73.102  1.00  0.00    -0.643 A  
HETATM   23  C   UNL     1     -13.630  15.223  70.875  1.00  0.00    -0.402 A  
ENDBRANCH  17  18
ENDBRANCH  10  17
ENDBRANCH   7   8
ENDBRANCH   6   7
ENDBRANCH   5   6
ENDBRANCH   4   5
ENDBRANCH   2   4
TORSDOF 7
ENDMDL
MODEL        7
REMARK 921   NORMALIZED FREE ENERGY PREDICTED BY IDOCK:   -6.55 KCAL/MOL
REMARK 922        TOTAL FREE ENERGY PREDICTED BY IDOCK:   -9.61 KCAL/MOL
REMARK 923 INTER-LIGAND FREE ENERGY PREDICTED BY IDOCK:   -8.85 KCAL/MOL
REMARK 924 INTRA-LIGAND FREE ENERGY PREDICTED BY IDOCK:   -0.76 KCAL/MOL
REMARK 927      BINDING AFFINITY PREDICTED BY RF-SCORE:    0.00 PKD
ROOT
HETATM    1  C   UNL     1     -11.579   6.562  70.380  1.00  0.00    -0.407 C  
HETATM    2  N   UNL     1     -12.230   6.652  71.691  1.00  0.00    -0.355 NA 
HETATM    3  C   UNL     1     -11.332   7.317  72.637  1.00  0.00    -0.291 C  
ENDROOT
BRANCH   2   4
HETATM    4  C   UNL     1     -13.520   7.352  71.554  1.00  0.00    -0.372 C  
BRANCH   4   5
HETATM    5  C   UNL     1     -13.518   8.770  72.130  1.00  0.00    -0.469 C  
BRANCH   5   6
HETATM    6  C   UNL     1     -13.410   9.811  71.021  1.00  0.00    -0.236 C  
BRANCH   6   7
HETATM    7  O   UNL     1     -12.071  10.308  71.030  1.00  0.00    -0.323 OA 
BRANCH   7   8
HETATM    8  C   UNL     1     -11.958  11.561  70.538  1.00  0.00    -0.344 A  
HETATM    9  N   UNL     1     -11.199  11.802  69.470  1.00  0.00    -0.228 NA 
HETATM   10  N   UNL     1     -11.320  13.141  69.306  1.00  0.00    -0.268 NA 
HETATM   11  C   UNL     1     -13.927  14.300  72.284  1.00  0.00    -0.629 A  
HETATM   12  C   UNL     1     -12.166  13.739  70.219  1.00  0.00    -0.359 A  
HETATM   13  C   UNL     1     -12.577  15.067  70.407  1.00  0.00    -0.399 A  
HETATM   14  C   UNL     1     -12.611  12.704  71.038  1.00  0.00    -0.354 A  
HETATM   15  C   UNL     1     -13.505  12.981  72.088  1.00  0.00    -0.638 A  
HETATM   16  C   UNL     1     -13.467  15.325  71.457  1.00  0.00    -0.577 A  
BRANCH  10  17
HETATM   17  C   UNL     1     -10.643  13.780  68.183  1.00  0.00    -0.253 C  
BRANCH  17  18
HETATM   18  C   UNL     1     -11.209  13.354  66.849  1.00  0.00    -0.330 A  
HETATM   19  C   UNL     1     -10.601  12.335  66.099  1.00  0.00    -0.281 A  
HETATM   20  C   UNL     1     -12.269  12.574  64.368  1.00  0.00    -0.528 A  
HETATM   21  C   UNL     1     -12.898  13.569  65.115  1.00  0.00    -0.381 A  
HETATM   22  C   UNL     1     -11.125  11.953  64.863  1.00  0.00    -0.363 A  
HETATM   23  C   UNL     1     -12.375  13.955  66.349  1.00  0.00    -0.468 A  
ENDBRANCH  17  18
ENDBRANCH  10  17
ENDBRANCH   7   8
ENDBRANCH   6   7
ENDBRANCH   5   6
ENDBRANCH   4   5
ENDBRANCH   2   4
TORSDOF 7
ENDMDL
MODEL        8
REMARK 921   NORMALIZED FREE ENERGY PREDICTED BY IDOCK:   -6.48 KCAL/MOL
REMARK 922        TOTAL FREE ENERGY PREDICTED BY IDOCK:   -9.52 KCAL/MOL
REMARK 923 INTER-LIGAND FREE ENERGY PREDICTED BY IDOCK:   -8.87 KCAL/MOL
REMARK 924 INTRA-LIGAND FREE ENERGY PREDICTED BY IDOCK:   -0.66 KCAL/MOL
REMARK 927      BINDING AFFINITY PREDICTED BY RF-SCORE:    0.00 PKD
ROOT
HETATM    1  C   UNL     1      -8.207  19.726  66.394  1.00  0.00    -0.347 C  
HETATM    2  N   UNL     1      -9.503  19.977  67.033  1.00  0.00    -0.369 NA 
HETATM    3  C   UNL     1     -10.573  19.426  66.198  1.00  0.00    -0.477 C  
ENDROOT
BRANCH   2   4
HETATM    4  C   UNL     1      -9.502  19.406  68.392  1.00  0.00    -0.374 C  
BRANCH   4   5
HETATM    5  C   UNL     1      -8.472  18.293  68.595  1.00  0.00    -0.301 C  
BRANCH   5   6
HETATM    6  C   UNL     1      -9.141  16.923  68.599  1.00  0.00    -0.265 C  
BRANCH   6   7
HETATM    7  O   UNL     1     -10.334  17.031  69.377  1.00  0.00    -0.299 OA 
BRANCH   7   8
HETATM    8  C   UNL     1     -10.966  15.852  69.561  1.00  0.00    -0.311 A  
HETATM    9  N   UNL     1     -10.910  14.903  68.628  1.00  0.00    -0.242 NA 
HETATM   10  N   UNL     1     -11.668  13.912  69.154  1.00  0.00    -0.313 NA 
HETATM   11  C   UNL     1     -12.828  15.366  72.835  1.00  0.00    -0.550 A  
HETATM   12  C   UNL     1     -12.166  14.200  70.410  1.00  0.00    -0.356 A  
HETATM   13  C   UNL     1     -12.970  13.477  71.304  1.00  0.00    -0.384 A  
HETATM   14  C   UNL     1     -11.699  15.479  70.703  1.00  0.00    -0.389 A  
HETATM   15  C   UNL     1     -12.031  16.077  71.933  1.00  0.00    -0.606 A  
HETATM   16  C   UNL     1     -13.291  14.088  72.523  1.00  0.00    -0.639 A  
BRANCH  10  17
HETATM   17  C   UNL     1     -11.811  12.662  68.416  1.00  0.00    -0.301 C  
BRANCH  17  18
HETATM   18  C   UNL     1     -11.641  12.848  66.927  1.00  0.00    -0.425 A  
HETATM   19  C   UNL     1     -12.522  13.661  66.196  1.00  0.00    -0.449 A  
HETATM   20  C   UNL     1     -11.318  13.184  64.157  1.00  0.00    -0.440 A  
HETATM   21  C   UNL     1     -10.420  12.395  64.875  1.00  0.00    -0.327 A  
HETATM   22  C   UNL     1     -12.364  13.822  64.818  1.00  0.00    -0.420 A  
HETATM   23  C   UNL     1     -10.578  12.230  66.252  1.00  0.00    -0.282 A  
ENDBRANCH  17  18
ENDBRANCH  10  17
ENDBRANCH   7   8
ENDBRANCH   6   7
ENDBRANCH   5   6
ENDBRANCH   4   5
ENDBRANCH   2   4
TORSDOF 7
ENDMDL
MODEL        9
REMARK 921   NORMALIZED FREE ENERGY PREDICTED BY IDOCK:   -6.47 KCAL/MOL
REMARK 922        TOTAL FREE ENERGY PREDICTED BY IDOCK:   -9.51 KCAL/MOL
REMARK 923 INTER-LIGAND FREE ENERGY PREDICTED BY IDOCK:   -8.52 KCAL/MOL
REMARK 924 INTRA-LIGAND FREE ENERGY PREDICTED BY IDOCK:   -0.99 KCAL/MOL
REMARK 927      BINDING AFFINITY PREDICTED BY RF-SCORE:    0.00 PKD
ROOT
HETATM    1  C   UNL     1     -10.326  11.561  63.479  1.00  0.00    -0.433 C  
HETATM    2  N   UNL     1     -10.679  11.415  64.895  1.00  0.00    -0.298 NA 
HETATM    3  C   UNL     1      -9.479  11.585  65.717  1.00  0.00    -0.234 C  
ENDROOT
BRANCH   2   4
HETATM    4  C   UNL     1     -11.739  12.380  65.242  1.00  0.00    -0.390 C  
BRANCH   4   5
HETATM    5  C   UNL     1     -11.788  13.601  64.320  1.00  0.00    -0.464 C  
BRANCH   5   6
HETATM    6  C   UNL     1     -11.716  14.895  65.124  1.00  0.00    -0.295 C  
BRANCH   6   7
HETATM    7  O   UNL     1     -10.384  15.014  65.626  1.00  0.00    -0.303 OA 
BRANCH   7   8
HETATM    8  C   UNL     1     -10.310  15.666  66.806  1.00  0.00    -0.287 A  
HETATM    9  N   UNL     1     -10.249  14.987  67.950  1.00  0.00    -0.227 NA 
HETATM   10  N   UNL     1     -10.212  15.966  68.885  1.00  0.00    -0.215 NA 
HETATM   11  C   UNL     1     -10.222  19.462  66.697  1.00  0.00    -0.533 A  
HETATM   12  C   UNL     1     -10.209  17.242  68.355  1.00  0.00    -0.358 A  
HETATM   13  C   UNL     1     -10.169  18.515  68.940  1.00  0.00    -0.269 A  
HETATM   14  C   UNL     1     -10.259  17.063  66.974  1.00  0.00    -0.303 A  
HETATM   15  C   UNL     1     -10.265  18.185  66.126  1.00  0.00    -0.372 A  
HETATM   16  C   UNL     1     -10.177  19.622  68.081  1.00  0.00    -0.580 A  
BRANCH  10  17
HETATM   17  C   UNL     1     -10.102  15.598  70.292  1.00  0.00    -0.004 C  
BRANCH  17  18
HETATM   18  C   UNL     1     -11.440  15.575  70.991  1.00  0.00    -0.426 A  
HETATM   19  C   UNL     1     -12.600  15.162  70.317  1.00  0.00    -0.370 A  
HETATM   20  C   UNL     1     -13.924  15.541  72.301  1.00  0.00    -0.642 A  
HETATM   21  C   UNL     1     -12.776  15.928  72.990  1.00  0.00    -0.611 A  
HETATM   22  C   UNL     1     -13.835  15.152  70.967  1.00  0.00    -0.423 A  
HETATM   23  C   UNL     1     -11.541  15.942  72.342  1.00  0.00    -0.483 A  
ENDBRANCH  17  18
ENDBRANCH  10  17
ENDBRANCH   7   8
ENDBRANCH   6   7
ENDBRANCH   5   6
ENDBRANCH   4   5
ENDBRANCH   2   4
TORSDOF 7
ENDMDL
MODEL       10
REMARK 921   NORMALIZED FREE ENERGY PREDICTED BY IDOCK:   -6.43 KCAL/MOL
REMARK 922        TOTAL FREE ENERGY PREDICTED BY IDOCK:   -9.46 KCAL/MOL
REMARK 923 INTER-LIGAND FREE ENERGY PREDICTED BY IDOCK:   -8.34 KCAL/MOL
REMARK 924 INTRA-LIGAND FREE ENERGY PREDICTED BY IDOCK:   -1.12 KCAL/MOL
REMARK 927      BINDING AFFINITY PREDICTED BY RF-SCORE:    0.00 PKD
ROOT
HETATM    1  C   UNL     1      -7.867  19.292  68.476  1.00  0.00    -0.348 C  
HETATM    2  N   UNL     1      -7.194  19.178  67.178  1.00  0.00    -0.208 NA 
HETATM    3  C   UNL     1      -6.579  17.855  67.062  1.00  0.00    -0.175 C  
ENDROOT
BRANCH   2   4
HETATM    4  C   UNL     1      -8.161  19.445  66.097  1.00  0.00    -0.314 C  
BRANCH   4   5
HETATM    5  C   UNL     1      -9.596  19.650  66.587  1.00  0.00    -0.479 C  
BRANCH   5   6
HETATM    6  C   UNL     1     -10.539  18.629  65.960  1.00  0.00    -0.365 C  
BRANCH   6   7
HETATM    7  O   UNL     1      -9.807  17.412  65.800  1.00  0.00    -0.536 OA 
BRANCH   7   8
HETATM    8  C   UNL     1     -10.497  16.315  66.179  1.00  0.00    -0.322 A  
HETATM    9  N   UNL     1     -11.026  15.500  65.268  1.00  0.00    -0.378 NA 
HETATM   10  N   UNL     1     -11.643  14.559  66.021  1.00  0.00    -0.360 NA 
HETATM   11  C   UNL     1     -10.796  15.649  69.907  1.00  0.00    -0.324 A  
HETATM   12  C   UNL     1     -11.482  14.740  67.380  1.00  0.00    -0.363 A  
HETATM   13  C   UNL     1     -11.930  14.019  68.496  1.00  0.00    -0.383 A  
HETATM   14  C   UNL     1     -10.711  15.894  67.506  1.00  0.00    -0.318 A  
HETATM   15  C   UNL     1     -10.359  16.361  68.785  1.00  0.00    -0.275 A  
HETATM   16  C   UNL     1     -11.570  14.498  69.762  1.00  0.00    -0.345 A  
BRANCH  10  17
HETATM   17  C   UNL     1     -12.316  13.450  65.354  1.00  0.00    -0.477 C  
BRANCH  17  18
HETATM   18  C   UNL     1     -11.366  12.337  64.980  1.00  0.00    -0.376 A  
HETATM   19  C   UNL     1     -10.981  12.135  63.645  1.00  0.00    -0.527 A  
HETATM   20  C   UNL     1      -9.601  10.263  64.297  1.00  0.00    -0.375 A  
HETATM   21  C   UNL     1      -9.953  10.469  65.629  1.00  0.00    -0.332 A  
HETATM   22  C   UNL     1     -10.109  11.099  63.306  1.00  0.00    -0.426 A  
HETATM   23  C   UNL     1     -10.828  11.502  65.971  1.00  0.00    -0.330 A  
ENDBRANCH  17  18
ENDBRANCH  10  17
ENDBRANCH   7   8
ENDBRANCH   6   7
ENDBRANCH   5   6
ENDBRANCH   4   5
ENDBRANCH   2   4
TORSDOF 7
ENDMDL
MODEL       11
REMARK 921   NORMALIZED FREE ENERGY PREDICTED BY IDOCK:   -6.42 KCAL/MOL
REMARK 922        TOTAL FREE ENERGY PREDICTED BY IDOCK:   -9.44 KCAL/MOL
REMARK 923 INTER-LIGAND FREE ENERGY PREDICTED BY IDOCK:   -8.88 KCAL/MOL
REMARK 924 INTRA-LIGAND FREE ENERGY PREDICTED BY IDOCK:   -0.56 KCAL/MOL
REMARK 927      BINDING AFFINITY PREDICTED BY RF-SCORE:    0.00 PKD
ROOT
HETATM    1  C   UNL     1     -12.465  15.863  74.230  1.00  0.00    -0.633 C  
HETATM    2  N   UNL     1     -12.414  15.236  72.904  1.00  0.00    -0.370 NA 
HETATM    3  C   UNL     1     -13.741  14.727  72.554  1.00  0.00    -0.468 C  
ENDROOT
BRANCH   2   4
HETATM    4  C   UNL     1     -11.906  16.208  71.918  1.00  0.00    -0.525 C  
BRANCH   4   5
HETATM    5  C   UNL     1     -12.153  15.800  70.464  1.00  0.00    -0.407 C  
BRANCH   5   6
HETATM    6  C   UNL     1     -10.976  15.002  69.912  1.00  0.00    -0.261 C  
BRANCH   6   7
HETATM    7  O   UNL     1      -9.941  15.933  69.592  1.00  0.00    -0.265 OA 
BRANCH   7   8
HETATM    8  C   UNL     1     -10.109  16.533  68.394  1.00  0.00    -0.255 A  
HETATM    9  N   UNL     1     -10.414  15.814  67.315  1.00  0.00    -0.302 NA 
HETATM   10  N   UNL     1     -10.471  16.746  66.333  1.00  0.00    -0.300 NA 
HETATM   11  C   UNL     1      -9.736  20.311  68.272  1.00  0.00    -0.292 A  
HETATM   12  C   UNL     1     -10.249  18.035  66.777  1.00  0.00    -0.364 A  
HETATM   13  C   UNL     1     -10.224  19.275  66.122  1.00  0.00    -0.549 A  
HETATM   14  C   UNL     1     -10.020  17.916  68.146  1.00  0.00    -0.350 A  
HETATM   15  C   UNL     1      -9.759  19.067  68.911  1.00  0.00    -0.442 A  
HETATM   16  C   UNL     1      -9.962  20.411  66.899  1.00  0.00    -0.549 A  
BRANCH  10  17
HETATM   17  C   UNL     1     -10.828  16.329  64.982  1.00  0.00    -0.320 C  
BRANCH  17  18
HETATM   18  C   UNL     1     -11.131  14.852  64.894  1.00  0.00    -0.424 A  
HETATM   19  C   UNL     1     -10.102  13.913  64.719  1.00  0.00    -0.247 A  
HETATM   20  C   UNL     1     -11.707  12.108  64.728  1.00  0.00    -0.390 A  
HETATM   21  C   UNL     1     -12.736  13.027  64.929  1.00  0.00    -0.456 A  
HETATM   22  C   UNL     1     -10.390  12.550  64.630  1.00  0.00    -0.341 A  
HETATM   23  C   UNL     1     -12.450  14.391  65.015  1.00  0.00    -0.366 A  
ENDBRANCH  17  18
ENDBRANCH  10  17
ENDBRANCH   7   8
ENDBRANCH   6   7
ENDBRANCH   5   6
ENDBRANCH   4   5
ENDBRANCH   2   4
TORSDOF 7
ENDMDL
MODEL       12
REMARK 921   NORMALIZED FREE ENERGY PREDICTED BY IDOCK:   -6.42 KCAL/MOL
REMARK 922        TOTAL FREE ENERGY PREDICTED BY IDOCK:   -9.43 KCAL/MOL
REMARK 923 INTER-LIGAND FREE ENERGY PREDICTED BY IDOCK:   -8.63 KCAL/MOL
REMARK 924 INTRA-LIGAND FREE ENERGY PREDICTED BY IDOCK:   -0.80 KCAL/MOL
REMARK 927      BINDING AFFINITY PREDICTED BY RF-SCORE:    0.00 PKD
ROOT
HETATM    1  C   UNL     1      -9.747   9.934  65.352  1.00  0.00    -0.306 C  
HETATM    2  N   UNL     1      -9.217  10.823  64.313  1.00  0.00    -0.211 NA 
HETATM    3  C   UNL     1      -7.946  10.291  63.817  1.00  0.00    -0.128 C  
ENDROOT
BRANCH   2   4
HETATM    4  C   UNL     1     -10.217  10.979  63.240  1.00  0.00    -0.303 C  
BRANCH   4   5
HETATM    5  C   UNL     1     -11.054  12.256  63.356  1.00  0.00    -0.487 C  
BRANCH   5   6
HETATM    6  C   UNL     1     -12.493  11.933  63.744  1.00  0.00    -0.427 C  
BRANCH   6   7
HETATM    7  O   UNL     1     -12.931  12.949  64.648  1.00  0.00    -0.734 OA 
BRANCH   7   8
HETATM    8  C   UNL     1     -12.133  13.089  65.728  1.00  0.00    -0.454 A  
HETATM    9  N   UNL     1     -12.095  12.145  66.667  1.00  0.00    -0.578 NA 
HETATM   10  N   UNL     1     -11.224  12.650  67.573  1.00  0.00    -0.272 NA 
HETATM   11  C   UNL     1      -9.997  16.224  65.920  1.00  0.00    -0.366 A  
HETATM   12  C   UNL     1     -10.684  13.868  67.206  1.00  0.00    -0.284 A  
HETATM   13  C   UNL     1      -9.760  14.723  67.823  1.00  0.00    -0.213 A  
HETATM   14  C   UNL     1     -11.266  14.170  65.977  1.00  0.00    -0.319 A  
HETATM   15  C   UNL     1     -10.922  15.364  65.318  1.00  0.00    -0.397 A  
HETATM   16  C   UNL     1      -9.428  15.908  67.153  1.00  0.00    -0.221 A  
BRANCH  10  17
HETATM   17  C   UNL     1     -10.891  11.859  68.751  1.00  0.00    -0.231 C  
BRANCH  17  18
HETATM   18  C   UNL     1     -11.804  12.147  69.919  1.00  0.00    -0.392 A  
HETATM   19  C   UNL     1     -12.198  11.126  70.798  1.00  0.00    -0.484 A  
HETATM   20  C   UNL     1     -13.506  12.697  72.085  1.00  0.00    -0.561 A  
HETATM   21  C   UNL     1     -13.102  13.726  71.236  1.00  0.00    -0.370 A  
HETATM   22  C   UNL     1     -13.049  11.399  71.870  1.00  0.00    -0.505 A  
HETATM   23  C   UNL     1     -12.253  13.455  70.161  1.00  0.00    -0.385 A  
ENDBRANCH  17  18
ENDBRANCH  10  17
ENDBRANCH   7   8
ENDBRANCH   6   7
ENDBRANCH   5   6
ENDBRANCH   4   5
ENDBRANCH   2   4
TORSDOF 7
ENDMDL
MODEL       13
REMARK 921   NORMALIZED FREE ENERGY PREDICTED BY IDOCK:   -6.41 KCAL/MOL
REMARK 922        TOTAL FREE ENERGY PREDICTED BY IDOCK:   -9.43 KCAL/MOL
REMARK 923 INTER-LIGAND FREE ENERGY PREDICTED BY IDOCK:   -8.83 KCAL/MOL
REMARK 924 INTRA-LIGAND FREE ENERGY PREDICTED BY IDOCK:   -0.59 KCAL/MOL
REMARK 927      BINDING AFFINITY PREDICTED BY RF-SCORE:    0.00 PKD
ROOT
HETATM    1  C   UNL     1      -9.228   9.713  64.835  1.00  0.00    -0.246 C  
HETATM    2  N   UNL     1      -8.918  10.354  63.552  1.00  0.00    -0.211 NA 
HETATM    3  C   UNL     1      -8.668   9.325  62.542  1.00  0.00    -0.230 C  
ENDROOT
BRANCH   2   4
HETATM    4  C   UNL     1     -10.021  11.257  63.174  1.00  0.00    -0.365 C  
BRANCH   4   5
HETATM    5  C   UNL     1     -11.156  11.310  64.198  1.00  0.00    -0.306 C  
BRANCH   5   6
HETATM    6  C   UNL     1     -12.274  12.236  63.728  1.00  0.00    -0.546 C  
BRANCH   6   7
HETATM    7  O   UNL     1     -13.041  12.599  64.877  1.00  0.00    -0.850 OA 
BRANCH   7   8
HETATM    8  C   UNL     1     -12.313  13.200  65.843  1.00  0.00    -0.398 A  
HETATM    9  N   UNL     1     -12.146  12.614  67.027  1.00  0.00    -0.486 NA 
HETATM   10  N   UNL     1     -11.401  13.514  67.712  1.00  0.00    -0.281 NA 
HETATM   11  C   UNL     1     -10.740  16.554  65.004  1.00  0.00    -0.228 A  
HETATM   12  C   UNL     1     -11.063  14.631  66.974  1.00  0.00    -0.333 A  
HETATM   13  C   UNL     1     -10.315  15.779  67.273  1.00  0.00    -0.290 A  
HETATM   14  C   UNL     1     -11.647  14.435  65.724  1.00  0.00    -0.353 A  
HETATM   15  C   UNL     1     -11.488  15.406  64.720  1.00  0.00    -0.337 A  
HETATM   16  C   UNL     1     -10.166  16.736  66.262  1.00  0.00    -0.341 A  
BRANCH  10  17
HETATM   17  C   UNL     1     -10.977  13.195  69.070  1.00  0.00    -0.197 C  
BRANCH  17  18
HETATM   18  C   UNL     1     -11.997  13.606  70.105  1.00  0.00    -0.407 A  
HETATM   19  C   UNL     1     -12.473  14.926  70.165  1.00  0.00    -0.353 A  
HETATM   20  C   UNL     1     -13.891  14.360  72.037  1.00  0.00    -0.567 A  
HETATM   21  C   UNL     1     -13.447  13.041  71.972  1.00  0.00    -0.584 A  
HETATM   22  C   UNL     1     -13.410  15.301  71.130  1.00  0.00    -0.568 A  
HETATM   23  C   UNL     1     -12.508  12.664  71.011  1.00  0.00    -0.354 A  
ENDBRANCH  17  18
ENDBRANCH  10  17
ENDBRANCH   7   8
ENDBRANCH   6   7
ENDBRANCH   5   6
ENDBRANCH   4   5
ENDBRANCH   2   4
TORSDOF 7
ENDMDL
MODEL       14
REMARK 921   NORMALIZED FREE ENERGY PREDICTED BY IDOCK:   -6.39 KCAL/MOL
REMARK 922        TOTAL FREE ENERGY PREDICTED BY IDOCK:   -9.39 KCAL/MOL
REMARK 923 INTER-LIGAND FREE ENERGY PREDICTED BY IDOCK:   -8.95 KCAL/MOL
REMARK 924 INTRA-LIGAND FREE ENERGY PREDICTED BY IDOCK:   -0.44 KCAL/MOL
REMARK 927      BINDING AFFINITY PREDICTED BY RF-SCORE:    0.00 PKD
ROOT
HETATM    1  C   UNL     1     -11.739   6.110  72.279  1.00  0.00    -0.302 C  
HETATM    2  N   UNL     1     -11.605   7.191  71.296  1.00  0.00    -0.279 NA 
HETATM    3  C   UNL     1     -11.368   6.617  69.970  1.00  0.00    -0.382 C  
ENDROOT
BRANCH   2   4
HETATM    4  C   UNL     1     -12.807   8.043  71.333  1.00  0.00    -0.269 C  
BRANCH   4   5
HETATM    5  C   UNL     1     -12.668   9.269  72.239  1.00  0.00    -0.435 C  
BRANCH   5   6
HETATM    6  C   UNL     1     -12.743  10.559  71.429  1.00  0.00    -0.442 C  
BRANCH   6   7
HETATM    7  O   UNL     1     -11.816  10.440  70.348  1.00  0.00    -0.278 OA 
BRANCH   7   8
HETATM    8  C   UNL     1     -11.729  11.553  69.588  1.00  0.00    -0.351 A  
HETATM    9  N   UNL     1     -11.971  12.752  70.115  1.00  0.00    -0.337 NA 
HETATM   10  N   UNL     1     -11.813  13.587  69.060  1.00  0.00    -0.326 NA 
HETATM   11  C   UNL     1     -10.722  11.104  65.953  1.00  0.00    -0.261 A  
HETATM   12  C   UNL     1     -11.440  12.946  67.895  1.00  0.00    -0.318 A  
HETATM   13  C   UNL     1     -11.167  13.409  66.600  1.00  0.00    -0.330 A  
HETATM   14  C   UNL     1     -11.366  11.595  68.228  1.00  0.00    -0.348 A  
HETATM   15  C   UNL     1     -11.002  10.655  67.248  1.00  0.00    -0.348 A  
HETATM   16  C   UNL     1     -10.806  12.460  65.636  1.00  0.00    -0.312 A  
BRANCH  10  17
HETATM   17  C   UNL     1     -11.963  15.023  69.266  1.00  0.00    -0.289 C  
BRANCH  17  18
HETATM   18  C   UNL     1     -12.463  15.359  70.651  1.00  0.00    -0.478 A  
HETATM   19  C   UNL     1     -13.802  15.132  71.010  1.00  0.00    -0.423 A  
HETATM   20  C   UNL     1     -13.383  15.991  73.229  1.00  0.00    -0.625 A  
HETATM   21  C   UNL     1     -12.045  16.196  72.894  1.00  0.00    -0.643 A  
HETATM   22  C   UNL     1     -14.259  15.453  72.289  1.00  0.00    -0.639 A  
HETATM   23  C   UNL     1     -11.586  15.879  71.615  1.00  0.00    -0.541 A  
ENDBRANCH  17  18
ENDBRANCH  10  17
ENDBRANCH   7   8
ENDBRANCH   6   7
ENDBRANCH   5   6
ENDBRANCH   4   5
ENDBRANCH   2   4
TORSDOF 7
ENDMDL
MODEL       15
REMARK 921   NORMALIZED FREE ENERGY PREDICTED BY IDOCK:   -6.37 KCAL/MOL
REMARK 922        TOTAL FREE ENERGY PREDICTED BY IDOCK:   -9.36 KCAL/MOL
REMARK 923 INTER-LIGAND FREE ENERGY PREDICTED BY IDOCK:   -8.71 KCAL/MOL
REMARK 924 INTRA-LIGAND FREE ENERGY PREDICTED BY IDOCK:   -0.65 KCAL/MOL
REMARK 927      BINDING AFFINITY PREDICTED BY RF-SCORE:    0.00 PKD
ROOT
HETATM    1  C   UNL     1     -10.381  19.610  65.893  1.00  0.00    -0.488 C  
HETATM    2  N   UNL     1      -9.492  19.179  66.977  1.00  0.00    -0.308 NA 
HETATM    3  C   UNL     1      -8.372  20.115  67.092  1.00  0.00    -0.337 C  
ENDROOT
BRANCH   2   4
HETATM    4  C   UNL     1     -10.260  19.065  68.230  1.00  0.00    -0.386 C  
BRANCH   4   5
HETATM    5  C   UNL     1     -10.103  17.714  68.931  1.00  0.00    -0.351 C  
BRANCH   5   6
HETATM    6  C   UNL     1     -11.110  16.701  68.397  1.00  0.00    -0.305 C  
BRANCH   6   7
HETATM    7  O   UNL     1     -11.624  15.976  69.516  1.00  0.00    -0.330 OA 
BRANCH   7   8
HETATM    8  C   UNL     1     -11.548  14.636  69.371  1.00  0.00    -0.305 A  
HETATM    9  N   UNL     1     -10.871  14.104  68.354  1.00  0.00    -0.247 NA 
HETATM   10  N   UNL     1     -11.045  12.773  68.535  1.00  0.00    -0.251 NA 
HETATM   11  C   UNL     1     -13.274  12.500  71.994  1.00  0.00    -0.524 A  
HETATM   12  C   UNL     1     -11.780  12.456  69.661  1.00  0.00    -0.307 A  
HETATM   13  C   UNL     1     -12.183  11.236  70.221  1.00  0.00    -0.428 A  
HETATM   14  C   UNL     1     -12.111  13.680  70.238  1.00  0.00    -0.427 A  
HETATM   15  C   UNL     1     -12.869  13.710  71.422  1.00  0.00    -0.442 A  
HETATM   16  C   UNL     1     -12.937  11.283  71.401  1.00  0.00    -0.482 A  
BRANCH  10  17
HETATM   17  C   UNL     1     -10.401  11.844  67.614  1.00  0.00    -0.200 C  
BRANCH  17  18
HETATM   18  C   UNL     1     -10.823  12.065  66.181  1.00  0.00    -0.325 A  
HETATM   19  C   UNL     1      -9.933  11.827  65.121  1.00  0.00    -0.285 A  
HETATM   20  C   UNL     1     -11.618  12.481  63.520  1.00  0.00    -0.584 A  
HETATM   21  C   UNL     1     -12.521  12.695  64.560  1.00  0.00    -0.525 A  
HETATM   22  C   UNL     1     -10.327  12.041  63.800  1.00  0.00    -0.457 A  
HETATM   23  C   UNL     1     -12.128  12.484  65.883  1.00  0.00    -0.420 A  
ENDBRANCH  17  18
ENDBRANCH  10  17
ENDBRANCH   7   8
ENDBRANCH   6   7
ENDBRANCH   5   6
ENDBRANCH   4   5
ENDBRANCH   2   4
TORSDOF 7
ENDMDL
MODEL       16
REMARK 921   NORMALIZED FREE ENERGY PREDICTED BY IDOCK:   -6.37 KCAL/MOL
REMARK 922        TOTAL FREE ENERGY PREDICTED BY IDOCK:   -9.36 KCAL/MOL
REMARK 923 INTER-LIGAND FREE ENERGY PREDICTED BY IDOCK:   -8.52 KCAL/MOL
REMARK 924 INTRA-LIGAND FREE ENERGY PREDICTED BY IDOCK:   -0.84 KCAL/MOL
REMARK 927      BINDING AFFINITY PREDICTED BY RF-SCORE:    0.00 PKD
ROOT
HETATM    1  C   UNL     1      -9.834  19.570  68.203  1.00  0.00    -0.407 C  
HETATM    2  N   UNL     1     -10.581  18.863  67.157  1.00  0.00    -0.444 NA 
HETATM    3  C   UNL     1     -10.667  19.707  65.964  1.00  0.00    -0.424 C  
ENDROOT
BRANCH   2   4
HETATM    4  C   UNL     1      -9.937  17.566  66.883  1.00  0.00    -0.313 C  
BRANCH   4   5
HETATM    5  C   UNL     1      -8.740  17.266  67.788  1.00  0.00    -0.226 C  
BRANCH   5   6
HETATM    6  C   UNL     1      -9.002  16.037  68.652  1.00  0.00    -0.210 C  
BRANCH   6   7
HETATM    7  O   UNL     1     -10.111  16.340  69.501  1.00  0.00    -0.252 OA 
BRANCH   7   8
HETATM    8  C   UNL     1     -10.876  15.265  69.791  1.00  0.00    -0.289 A  
HETATM    9  N   UNL     1     -10.878  14.201  68.990  1.00  0.00    -0.254 NA 
HETATM   10  N   UNL     1     -11.764  13.370  69.589  1.00  0.00    -0.309 NA 
HETATM   11  C   UNL     1     -12.934  15.403  72.980  1.00  0.00    -0.598 A  
HETATM   12  C   UNL     1     -12.287  13.869  70.765  1.00  0.00    -0.378 A  
HETATM   13  C   UNL     1     -13.207  13.355  71.691  1.00  0.00    -0.449 A  
HETATM   14  C   UNL     1     -11.699  15.122  70.924  1.00  0.00    -0.378 A  
HETATM   15  C   UNL     1     -12.022  15.906  72.046  1.00  0.00    -0.602 A  
HETATM   16  C   UNL     1     -13.518  14.149  72.802  1.00  0.00    -0.592 A  
BRANCH  10  17
HETATM   17  C   UNL     1     -12.006  12.055  69.005  1.00  0.00    -0.264 C  
BRANCH  17  18
HETATM   18  C   UNL     1     -11.305  10.950  69.759  1.00  0.00    -0.374 A  
HETATM   19  C   UNL     1      -9.991  10.577  69.436  1.00  0.00    -0.220 A  
HETATM   20  C   UNL     1     -10.013   8.892  71.167  1.00  0.00    -0.342 A  
HETATM   21  C   UNL     1     -11.308   9.270  71.516  1.00  0.00    -0.455 A  
HETATM   22  C   UNL     1      -9.352   9.549  70.132  1.00  0.00    -0.286 A  
HETATM   23  C   UNL     1     -11.950  10.296  70.819  1.00  0.00    -0.456 A  
ENDBRANCH  17  18
ENDBRANCH  10  17
ENDBRANCH   7   8
ENDBRANCH   6   7
ENDBRANCH   5   6
ENDBRANCH   4   5
ENDBRANCH   2   4
TORSDOF 7
ENDMDL
MODEL       17
REMARK 921   NORMALIZED FREE ENERGY PREDICTED BY IDOCK:   -6.35 KCAL/MOL
REMARK 922        TOTAL FREE ENERGY PREDICTED BY IDOCK:   -9.34 KCAL/MOL
REMARK 923 INTER-LIGAND FREE ENERGY PREDICTED BY IDOCK:   -8.43 KCAL/MOL
REMARK 924 INTRA-LIGAND FREE ENERGY PREDICTED BY IDOCK:   -0.91 KCAL/MOL
REMARK 927      BINDING AFFINITY PREDICTED BY RF-SCORE:    0.00 PKD
ROOT
HETATM    1  C   UNL     1      -9.032  10.662  62.504  1.00  0.00    -0.290 C  
HETATM    2  N   UNL     1     -10.107  10.725  63.499  1.00  0.00    -0.334 NA 
HETATM    3  C   UNL     1      -9.646  10.130  64.755  1.00  0.00    -0.314 C  
ENDROOT
BRANCH   2   4
HETATM    4  C   UNL     1     -10.542  12.124  63.667  1.00  0.00    -0.461 C  
BRANCH   4   5
HETATM    5  C   UNL     1     -12.062  12.295  63.736  1.00  0.00    -0.624 C  
BRANCH   5   6
HETATM    6  C   UNL     1     -12.467  13.079  64.979  1.00  0.00    -0.477 C  
BRANCH   6   7
HETATM    7  O   UNL     1     -11.330  13.133  65.842  1.00  0.00    -0.299 OA 
BRANCH   7   8
HETATM    8  C   UNL     1     -11.616  12.843  67.129  1.00  0.00    -0.363 A  
HETATM    9  N   UNL     1     -11.827  11.583  67.507  1.00  0.00    -0.631 NA 
HETATM   10  N   UNL     1     -12.103  11.703  68.828  1.00  0.00    -0.433 NA 
HETATM   11  C   UNL     1     -11.726  15.739  69.584  1.00  0.00    -0.363 A  
HETATM   12  C   UNL     1     -12.031  13.000  69.296  1.00  0.00    -0.278 A  
HETATM   13  C   UNL     1     -12.227  13.567  70.564  1.00  0.00    -0.433 A  
HETATM   14  C   UNL     1     -11.695  13.771  68.185  1.00  0.00    -0.392 A  
HETATM   15  C   UNL     1     -11.538  15.162  68.324  1.00  0.00    -0.357 A  
HETATM   16  C   UNL     1     -12.067  14.953  70.684  1.00  0.00    -0.366 A  
BRANCH  10  17
HETATM   17  C   UNL     1     -12.355  10.498  69.610  1.00  0.00    -0.075 C  
BRANCH  17  18
HETATM   18  C   UNL     1     -11.093   9.920  70.205  1.00  0.00    -0.353 A  
HETATM   19  C   UNL     1     -11.105   9.306  71.468  1.00  0.00    -0.443 A  
HETATM   20  C   UNL     1      -8.739   8.850  71.301  1.00  0.00    -0.279 A  
HETATM   21  C   UNL     1      -8.718   9.432  70.035  1.00  0.00    -0.227 A  
HETATM   22  C   UNL     1      -9.933   8.782  72.014  1.00  0.00    -0.391 A  
HETATM   23  C   UNL     1      -9.888   9.960  69.487  1.00  0.00    -0.241 A  
ENDBRANCH  17  18
ENDBRANCH  10  17
ENDBRANCH   7   8
ENDBRANCH   6   7
ENDBRANCH   5   6
ENDBRANCH   4   5
ENDBRANCH   2   4
TORSDOF 7
ENDMDL
MODEL       18
REMARK 921   NORMALIZED FREE ENERGY PREDICTED BY IDOCK:   -6.34 KCAL/MOL
REMARK 922        TOTAL FREE ENERGY PREDICTED BY IDOCK:   -9.32 KCAL/MOL
REMARK 923 INTER-LIGAND FREE ENERGY PREDICTED BY IDOCK:   -8.26 KCAL/MOL
REMARK 924 INTRA-LIGAND FREE ENERGY PREDICTED BY IDOCK:   -1.06 KCAL/MOL
REMARK 927      BINDING AFFINITY PREDICTED BY RF-SCORE:    0.00 PKD
ROOT
HETATM    1  C   UNL     1      -9.132  10.973  62.625  1.00  0.00    -0.343 C  
HETATM    2  N   UNL     1     -10.182  10.967  63.649  1.00  0.00    -0.349 NA 
HETATM    3  C   UNL     1      -9.594  10.642  64.950  1.00  0.00    -0.269 C  
ENDROOT
BRANCH   2   4
HETATM    4  C   UNL     1     -10.873  12.270  63.655  1.00  0.00    -0.469 C  
BRANCH   4   5
HETATM    5  C   UNL     1     -12.303  12.209  64.196  1.00  0.00    -0.508 C  
BRANCH   5   6
HETATM    6  C   UNL     1     -12.546  13.309  65.224  1.00  0.00    -0.470 C  
BRANCH   6   7
HETATM    7  O   UNL     1     -12.132  12.805  66.496  1.00  0.00    -0.468 OA 
BRANCH   7   8
HETATM    8  C   UNL     1     -11.425  13.696  67.223  1.00  0.00    -0.343 A  
HETATM    9  N   UNL     1     -10.442  14.398  66.662  1.00  0.00    -0.271 NA 
HETATM   10  N   UNL     1      -9.971  15.141  67.692  1.00  0.00    -0.228 NA 
HETATM   11  C   UNL     1     -12.404  14.136  70.867  1.00  0.00    -0.438 A  
HETATM   12  C   UNL     1     -10.659  14.952  68.875  1.00  0.00    -0.247 A  
HETATM   13  C   UNL     1     -10.521  15.507  70.155  1.00  0.00    -0.317 A  
HETATM   14  C   UNL     1     -11.638  14.006  68.580  1.00  0.00    -0.360 A  
HETATM   15  C   UNL     1     -12.527  13.587  69.586  1.00  0.00    -0.107 A  
HETATM   16  C   UNL     1     -11.414  15.078  71.145  1.00  0.00    -0.355 A  
BRANCH  10  17
HETATM   17  C   UNL     1      -8.888  16.086  67.445  1.00  0.00    -0.184 C  
BRANCH  17  18
HETATM   18  C   UNL     1      -9.374  17.513  67.362  1.00  0.00    -0.249 A  
HETATM   19  C   UNL     1     -10.050  17.981  66.224  1.00  0.00    -0.363 A  
HETATM   20  C   UNL     1     -10.270  20.172  67.218  1.00  0.00    -0.540 A  
HETATM   21  C   UNL     1      -9.624  19.713  68.365  1.00  0.00    -0.468 A  
HETATM   22  C   UNL     1     -10.489  19.304  66.151  1.00  0.00    -0.577 A  
HETATM   23  C   UNL     1      -9.181  18.392  68.439  1.00  0.00    -0.341 A  
ENDBRANCH  17  18
ENDBRANCH  10  17
ENDBRANCH   7   8
ENDBRANCH   6   7
ENDBRANCH   5   6
ENDBRANCH   4   5
ENDBRANCH   2   4
TORSDOF 7
ENDMDL
MODEL       19
REMARK 921   NORMALIZED FREE ENERGY PREDICTED BY IDOCK:   -6.34 KCAL/MOL
REMARK 922        TOTAL FREE ENERGY PREDICTED BY IDOCK:   -9.32 KCAL/MOL
REMARK 923 INTER-LIGAND FREE ENERGY PREDICTED BY IDOCK:   -8.53 KCAL/MOL
REMARK 924 INTRA-LIGAND FREE ENERGY PREDICTED BY IDOCK:   -0.80 KCAL/MOL
REMARK 927      BINDING AFFINITY PREDICTED BY RF-SCORE:    0.00 PKD
ROOT
HETATM    1  C   UNL     1     -14.210  15.333  72.160  1.00  0.00    -0.571 C  
HETATM    2  N   UNL     1     -12.895  15.936  72.400  1.00  0.00    -0.444 NA 
HETATM    3  C   UNL     1     -12.552  15.811  73.818  1.00  0.00    -0.610 C  
ENDROOT
BRANCH   2   4
HETATM    4  C   UNL     1     -11.894  15.304  71.521  1.00  0.00    -0.380 C  
BRANCH   4   5
HETATM    5  C   UNL     1     -12.407  15.012  70.109  1.00  0.00    -0.380 C  
BRANCH   5   6
HETATM    6  C   UNL     1     -11.717  13.787  69.519  1.00  0.00    -0.323 C  
BRANCH   6   7
HETATM    7  O   UNL     1     -12.254  13.581  68.211  1.00  0.00    -0.313 OA 
BRANCH   7   8
HETATM    8  C   UNL     1     -11.555  12.690  67.476  1.00  0.00    -0.359 A  
HETATM    9  N   UNL     1     -10.689  11.864  68.060  1.00  0.00    -0.200 NA 
HETATM   10  N   UNL     1     -10.183  11.164  67.016  1.00  0.00    -0.207 NA 
HETATM   11  C   UNL     1     -12.216  12.619  63.736  1.00  0.00    -0.600 A  
HETATM   12  C   UNL     1     -10.739  11.503  65.798  1.00  0.00    -0.271 A  
HETATM   13  C   UNL     1     -10.525  11.038  64.493  1.00  0.00    -0.411 A  
HETATM   14  C   UNL     1     -11.663  12.506  66.084  1.00  0.00    -0.466 A  
HETATM   15  C   UNL     1     -12.416  13.077  65.043  1.00  0.00    -0.534 A  
HETATM   16  C   UNL     1     -11.283  11.618  63.468  1.00  0.00    -0.462 A  
BRANCH  10  17
HETATM   17  C   UNL     1      -9.207  10.112  67.277  1.00  0.00    -0.138 C  
BRANCH  17  18
HETATM   18  C   UNL     1      -9.854   8.820  67.718  1.00  0.00    -0.217 A  
HETATM   19  C   UNL     1      -9.947   8.487  69.079  1.00  0.00    -0.197 A  
HETATM   20  C   UNL     1     -11.056   6.414  68.526  1.00  0.00    -0.385 A  
HETATM   21  C   UNL     1     -10.994   6.744  67.174  1.00  0.00    -0.458 A  
HETATM   22  C   UNL     1     -10.538   7.288  69.479  1.00  0.00    -0.244 A  
HETATM   23  C   UNL     1     -10.401   7.942  66.771  1.00  0.00    -0.357 A  
ENDBRANCH  17  18
ENDBRANCH  10  17
ENDBRANCH   7   8
ENDBRANCH   6   7
ENDBRANCH   5   6
ENDBRANCH   4   5
ENDBRANCH   2   4
TORSDOF 7
ENDMDL
MODEL       20
REMARK 921   NORMALIZED FREE ENERGY PREDICTED BY IDOCK:   -6.33 KCAL/MOL
REMARK 922        TOTAL FREE ENERGY PREDICTED BY IDOCK:   -9.31 KCAL/MOL
REMARK 923 INTER-LIGAND FREE ENERGY PREDICTED BY IDOCK:   -8.41 KCAL/MOL
REMARK 924 INTRA-LIGAND FREE ENERGY PREDICTED BY IDOCK:   -0.90 KCAL/MOL
REMARK 927      BINDING AFFINITY PREDICTED BY RF-SCORE:    0.00 PKD
ROOT
HETATM    1  C   UNL     1     -14.247  15.645  72.318  1.00  0.00    -0.448 C  
HETATM    2  N   UNL     1     -13.280  14.690  72.870  1.00  0.00    -0.494 NA 
HETATM    3  C   UNL     1     -13.578  13.348  72.366  1.00  0.00    -0.606 C  
ENDROOT
BRANCH   2   4
HETATM    4  C   UNL     1     -11.911  15.125  72.536  1.00  0.00    -0.391 C  
BRANCH   4   5
HETATM    5  C   UNL     1     -11.840  16.083  71.346  1.00  0.00    -0.531 C  
BRANCH   5   6
HETATM    6  C   UNL     1     -10.829  15.598  70.312  1.00  0.00    -0.350 C  
BRANCH   6   7
HETATM    7  O   UNL     1     -11.529  15.417  69.080  1.00  0.00    -0.289 OA 
BRANCH   7   8
HETATM    8  C   UNL     1     -11.342  14.199  68.528  1.00  0.00    -0.283 A  
HETATM    9  N   UNL     1     -10.813  13.207  69.243  1.00  0.00    -0.083 NA 
HETATM   10  N   UNL     1     -10.764  12.184  68.357  1.00  0.00    -0.220 NA 
HETATM   11  C   UNL     1     -12.433  13.735  64.920  1.00  0.00    -0.420 A  
HETATM   12  C   UNL     1     -11.284  12.497  67.117  1.00  0.00    -0.300 A  
HETATM   13  C   UNL     1     -11.437  11.758  65.935  1.00  0.00    -0.273 A  
HETATM   14  C   UNL     1     -11.686  13.828  67.215  1.00  0.00    -0.416 A  
HETATM   15  C   UNL     1     -12.270  14.462  66.104  1.00  0.00    -0.358 A  
HETATM   16  C   UNL     1     -12.021  12.405  64.839  1.00  0.00    -0.458 A  
BRANCH  10  17
HETATM   17  C   UNL     1     -10.267  10.887  68.801  1.00  0.00    -0.196 C  
BRANCH  17  18
HETATM   18  C   UNL     1     -11.090  10.306  69.926  1.00  0.00    -0.362 A  
HETATM   19  C   UNL     1     -12.473  10.536  70.001  1.00  0.00    -0.243 A  
HETATM   20  C   UNL     1     -12.611   9.222  72.024  1.00  0.00    -0.465 A  
HETATM   21  C   UNL     1     -11.244   8.964  71.946  1.00  0.00    -0.447 A  
HETATM   22  C   UNL     1     -13.227  10.002  71.048  1.00  0.00    -0.399 A  
HETATM   23  C   UNL     1     -10.487   9.499  70.902  1.00  0.00    -0.382 A  
ENDBRANCH  17  18
ENDBRANCH  10  17
ENDBRANCH   7   8
ENDBRANCH   6   7
ENDBRANCH   5   6
ENDBRANCH   4   5
ENDBRANCH   2   4
TORSDOF 7
ENDMDL
MODEL       21
REMARK 921   NORMALIZED FREE ENERGY PREDICTED BY IDOCK:   -6.29 KCAL/MOL
REMARK 922        TOTAL FREE ENERGY PREDICTED BY IDOCK:   -9.26 KCAL/MOL
REMARK 923 INTER-LIGAND FREE ENERGY PREDICTED BY IDOCK:   -8.57 KCAL/MOL
REMARK 924 INTRA-LIGAND FREE ENERGY PREDICTED BY IDOCK:   -0.68 KCAL/MOL
REMARK 927      BINDING AFFINITY PREDICTED BY RF-SCORE:    0.00 PKD
ROOT
HETATM    1  C   UNL     1     -11.953  13.238  63.239  1.00  0.00    -0.310 C  
HETATM    2  N   UNL     1     -12.333  13.799  64.540  1.00  0.00    -0.579 NA 
HETATM    3  C   UNL     1     -12.401  12.725  65.533  1.00  0.00    -0.434 C  
ENDROOT
BRANCH   2   4
HETATM    4  C   UNL     1     -11.377  14.856  64.920  1.00  0.00    -0.413 C  
BRANCH   4   5
HETATM    5  C   UNL     1     -10.572  14.536  66.181  1.00  0.00    -0.308 C  
BRANCH   5   6
HETATM    6  C   UNL     1     -11.061  15.364  67.366  1.00  0.00    -0.311 C  
BRANCH   6   7
HETATM    7  O   UNL     1     -10.411  14.862  68.535  1.00  0.00    -0.231 OA 
BRANCH   7   8
HETATM    8  C   UNL     1     -11.201  14.068  69.290  1.00  0.00    -0.261 A  
HETATM    9  N   UNL     1     -11.413  12.800  68.943  1.00  0.00    -0.285 NA 
HETATM   10  N   UNL     1     -12.254  12.355  69.908  1.00  0.00    -0.210 NA 
HETATM   11  C   UNL     1     -12.706  15.588  72.429  1.00  0.00    -0.488 A  
HETATM   12  C   UNL     1     -12.542  13.301  70.873  1.00  0.00    -0.306 A  
HETATM   13  C   UNL     1     -13.338  13.271  72.027  1.00  0.00    -0.582 A  
HETATM   14  C   UNL     1     -11.841  14.441  70.488  1.00  0.00    -0.367 A  
HETATM   15  C   UNL     1     -11.919  15.606  71.273  1.00  0.00    -0.467 A  
HETATM   16  C   UNL     1     -13.406  14.439  72.797  1.00  0.00    -0.606 A  
BRANCH  10  17
HETATM   17  C   UNL     1     -12.687  10.963  69.883  1.00  0.00    -0.045 C  
BRANCH  17  18
HETATM   18  C   UNL     1     -11.774  10.059  70.677  1.00  0.00    -0.421 A  
HETATM   19  C   UNL     1     -12.268   9.287  71.740  1.00  0.00    -0.457 A  
HETATM   20  C   UNL     1     -10.065   8.384  72.148  1.00  0.00    -0.376 A  
HETATM   21  C   UNL     1      -9.566   9.125  71.078  1.00  0.00    -0.350 A  
HETATM   22  C   UNL     1     -11.417   8.460  72.475  1.00  0.00    -0.422 A  
HETATM   23  C   UNL     1     -10.415   9.955  70.344  1.00  0.00    -0.347 A  
ENDBRANCH  17  18
ENDBRANCH  10  17
ENDBRANCH   7   8
ENDBRANCH   6   7
ENDBRANCH   5   6
ENDBRANCH   4   5
ENDBRANCH   2   4
TORSDOF 7
ENDMDL
MODEL       22
REMARK 921   NORMALIZED FREE ENERGY PREDICTED BY IDOCK:   -6.28 KCAL/MOL
REMARK 922        TOTAL FREE ENERGY PREDICTED BY IDOCK:   -9.24 KCAL/MOL
REMARK 923 INTER-LIGAND FREE ENERGY PREDICTED BY IDOCK:   -8.62 KCAL/MOL
REMARK 924 INTRA-LIGAND FREE ENERGY PREDICTED BY IDOCK:   -0.62 KCAL/MOL
REMARK 927      BINDING AFFINITY PREDICTED BY RF-SCORE:    0.00 PKD
ROOT
HETATM    1  C   UNL     1     -10.199  18.022  66.738  1.00  0.00    -0.364 C  
HETATM    2  N   UNL     1      -9.741  17.015  65.775  1.00  0.00    -0.547 NA 
HETATM    3  C   UNL     1      -8.528  16.371  66.282  1.00  0.00    -0.337 C  
ENDROOT
BRANCH   2   4
HETATM    4  C   UNL     1     -10.825  16.049  65.517  1.00  0.00    -0.292 C  
BRANCH   4   5
HETATM    5  C   UNL     1     -10.476  14.611  65.906  1.00  0.00    -0.325 C  
BRANCH   5   6
HETATM    6  C   UNL     1     -11.463  14.068  66.934  1.00  0.00    -0.356 C  
BRANCH   6   7
HETATM    7  O   UNL     1     -10.928  14.347  68.230  1.00  0.00    -0.236 OA 
BRANCH   7   8
HETATM    8  C   UNL     1     -11.585  13.720  69.229  1.00  0.00    -0.312 A  
HETATM    9  N   UNL     1     -11.865  12.421  69.143  1.00  0.00    -0.310 NA 
HETATM   10  N   UNL     1     -12.533  12.175  70.296  1.00  0.00    -0.148 NA 
HETATM   11  C   UNL     1     -12.520  15.797  72.269  1.00  0.00    -0.533 A  
HETATM   12  C   UNL     1     -12.645  13.278  71.120  1.00  0.00    -0.325 A  
HETATM   13  C   UNL     1     -13.233  13.471  72.378  1.00  0.00    -0.577 A  
HETATM   14  C   UNL     1     -12.008  14.311  70.435  1.00  0.00    -0.402 A  
HETATM   15  C   UNL     1     -11.941  15.592  71.012  1.00  0.00    -0.445 A  
HETATM   16  C   UNL     1     -13.157  14.752  72.938  1.00  0.00    -0.596 A  
BRANCH  10  17
HETATM   17  C   UNL     1     -12.977  10.816  70.580  1.00  0.00    -0.232 C  
BRANCH  17  18
HETATM   18  C   UNL     1     -11.864   9.943  71.109  1.00  0.00    -0.472 A  
HETATM   19  C   UNL     1     -10.581   9.986  70.540  1.00  0.00    -0.313 A  
HETATM   20  C   UNL     1      -9.802   8.312  72.099  1.00  0.00    -0.342 A  
HETATM   21  C   UNL     1     -11.064   8.279  72.690  1.00  0.00    -0.400 A  
HETATM   22  C   UNL     1      -9.559   9.170  71.029  1.00  0.00    -0.350 A  
HETATM   23  C   UNL     1     -12.089   9.092  72.201  1.00  0.00    -0.412 A  
ENDBRANCH  17  18
ENDBRANCH  10  17
ENDBRANCH   7   8
ENDBRANCH   6   7
ENDBRANCH   5   6
ENDBRANCH   4   5
ENDBRANCH   2   4
TORSDOF 7
ENDMDL
MODEL       23
REMARK 921   NORMALIZED FREE ENERGY PREDICTED BY IDOCK:   -6.25 KCAL/MOL
REMARK 922        TOTAL FREE ENERGY PREDICTED BY IDOCK:   -9.19 KCAL/MOL
REMARK 923 INTER-LIGAND FREE ENERGY PREDICTED BY IDOCK:   -8.26 KCAL/MOL
REMARK 924 INTRA-LIGAND FREE ENERGY PREDICTED BY IDOCK:   -0.93 KCAL/MOL
REMARK 927      BINDING AFFINITY PREDICTED BY RF-SCORE:    0.00 PKD
ROOT
HETATM    1  C   UNL     1     -11.412   9.375  71.476  1.00  0.00    -0.397 C  
HETATM    2  N   UNL     1     -12.841   9.698  71.394  1.00  0.00    -0.356 NA 
HETATM    3  C   UNL     1     -13.573   8.929  72.401  1.00  0.00    -0.447 C  
ENDROOT
BRANCH   2   4
HETATM    4  C   UNL     1     -13.027  11.152  71.551  1.00  0.00    -0.437 C  
BRANCH   4   5
HETATM    5  C   UNL     1     -12.218  11.990  70.558  1.00  0.00    -0.414 C  
BRANCH   5   6
HETATM    6  C   UNL     1     -12.317  13.476  70.889  1.00  0.00    -0.356 C  
BRANCH   6   7
HETATM    7  O   UNL     1     -12.777  14.147  69.715  1.00  0.00    -0.212 OA 
BRANCH   7   8
HETATM    8  C   UNL     1     -11.779  14.640  68.951  1.00  0.00    -0.309 A  
HETATM    9  N   UNL     1     -10.828  15.400  69.491  1.00  0.00    -0.248 NA 
HETATM   10  N   UNL     1     -10.047  15.712  68.429  1.00  0.00    -0.212 NA 
HETATM   11  C   UNL     1     -11.787  13.718  65.267  1.00  0.00    -0.365 A  
HETATM   12  C   UNL     1     -10.462  15.135  67.245  1.00  0.00    -0.271 A  
HETATM   13  C   UNL     1      -9.959  15.180  65.937  1.00  0.00    -0.355 A  
HETATM   14  C   UNL     1     -11.604  14.407  67.574  1.00  0.00    -0.398 A  
HETATM   15  C   UNL     1     -12.281  13.685  66.575  1.00  0.00    -0.454 A  
HETATM   16  C   UNL     1     -10.645  14.455  64.954  1.00  0.00    -0.456 A  
BRANCH  10  17
HETATM   17  C   UNL     1      -8.853  16.521  68.643  1.00  0.00    -0.237 C  
BRANCH  17  18
HETATM   18  C   UNL     1      -9.009  17.931  68.126  1.00  0.00    -0.268 A  
HETATM   19  C   UNL     1      -8.053  18.496  67.266  1.00  0.00    -0.245 A  
HETATM   20  C   UNL     1      -9.310  20.556  67.173  1.00  0.00    -0.513 A  
HETATM   21  C   UNL     1     -10.281  19.999  68.004  1.00  0.00    -0.538 A  
HETATM   22  C   UNL     1      -8.201  19.803  66.799  1.00  0.00    -0.344 A  
HETATM   23  C   UNL     1     -10.134  18.694  68.475  1.00  0.00    -0.426 A  
ENDBRANCH  17  18
ENDBRANCH  10  17
ENDBRANCH   7   8
ENDBRANCH   6   7
ENDBRANCH   5   6
ENDBRANCH   4   5
ENDBRANCH   2   4
TORSDOF 7
ENDMDL
MODEL       24
REMARK 921   NORMALIZED FREE ENERGY PREDICTED BY IDOCK:   -6.24 KCAL/MOL
REMARK 922        TOTAL FREE ENERGY PREDICTED BY IDOCK:   -9.18 KCAL/MOL
REMARK 923 INTER-LIGAND FREE ENERGY PREDICTED BY IDOCK:   -8.21 KCAL/MOL
REMARK 924 INTRA-LIGAND FREE ENERGY PREDICTED BY IDOCK:   -0.96 KCAL/MOL
REMARK 927      BINDING AFFINITY PREDICTED BY RF-SCORE:    0.00 PKD
ROOT
HETATM    1  C   UNL     1     -10.790   7.902  72.771  1.00  0.00    -0.386 C  
HETATM    2  N   UNL     1     -10.434   8.978  71.838  1.00  0.00    -0.345 NA 
HETATM    3  C   UNL     1      -9.076   8.760  71.339  1.00  0.00    -0.243 C  
ENDROOT
BRANCH   2   4
HETATM    4  C   UNL     1     -11.430   9.038  70.752  1.00  0.00    -0.282 C  
BRANCH   4   5
HETATM    5  C   UNL     1     -11.996  10.439  70.510  1.00  0.00    -0.427 C  
BRANCH   5   6
HETATM    6  C   UNL     1     -11.335  11.095  69.302  1.00  0.00    -0.281 C  
BRANCH   6   7
HETATM    7  O   UNL     1     -12.139  12.216  68.930  1.00  0.00    -0.267 OA 
BRANCH   7   8
HETATM    8  C   UNL     1     -11.692  13.388  69.432  1.00  0.00    -0.325 A  
HETATM    9  N   UNL     1     -10.616  13.978  68.914  1.00  0.00    -0.245 NA 
HETATM   10  N   UNL     1     -10.475  15.085  69.682  1.00  0.00    -0.235 NA 
HETATM   11  C   UNL     1     -13.660  14.918  72.297  1.00  0.00    -0.538 A  
HETATM   12  C   UNL     1     -11.458  15.224  70.642  1.00  0.00    -0.319 A  
HETATM   13  C   UNL     1     -11.700  16.198  71.622  1.00  0.00    -0.558 A  
HETATM   14  C   UNL     1     -12.285  14.114  70.483  1.00  0.00    -0.431 A  
HETATM   15  C   UNL     1     -13.404  13.952  71.319  1.00  0.00    -0.314 A  
HETATM   16  C   UNL     1     -12.819  16.021  72.446  1.00  0.00    -0.470 A  
BRANCH  10  17
HETATM   17  C   UNL     1      -9.398  16.021  69.383  1.00  0.00    -0.218 C  
BRANCH  17  18
HETATM   18  C   UNL     1      -9.831  17.117  68.438  1.00  0.00    -0.296 A  
HETATM   19  C   UNL     1      -9.988  18.438  68.886  1.00  0.00    -0.374 A  
HETATM   20  C   UNL     1     -10.640  19.145  66.671  1.00  0.00    -0.520 A  
HETATM   21  C   UNL     1     -10.462  17.843  66.206  1.00  0.00    -0.320 A  
HETATM   22  C   UNL     1     -10.397  19.443  68.009  1.00  0.00    -0.536 A  
HETATM   23  C   UNL     1     -10.057  16.835  67.082  1.00  0.00    -0.282 A  
ENDBRANCH  17  18
ENDBRANCH  10  17
ENDBRANCH   7   8
ENDBRANCH   6   7
ENDBRANCH   5   6
ENDBRANCH   4   5
ENDBRANCH   2   4
TORSDOF 7
ENDMDL
MODEL       25
REMARK 921   NORMALIZED FREE ENERGY PREDICTED BY IDOCK:   -6.22 KCAL/MOL
REMARK 922        TOTAL FREE ENERGY PREDICTED BY IDOCK:   -9.15 KCAL/MOL
REMARK 923 INTER-LIGAND FREE ENERGY PREDICTED BY IDOCK:   -8.42 KCAL/MOL
REMARK 924 INTRA-LIGAND FREE ENERGY PREDICTED BY IDOCK:   -0.73 KCAL/MOL
REMARK 927      BINDING AFFINITY PREDICTED BY RF-SCORE:    0.00 PKD
ROOT
HETATM    1  C   UNL     1      -9.141  10.135  62.607  1.00  0.00    -0.290 C  
HETATM    2  N   UNL     1     -10.185  10.597  63.527  1.00  0.00    -0.233 NA 
HETATM    3  C   UNL     1      -9.756  10.364  64.908  1.00  0.00    -0.309 C  
ENDROOT
BRANCH   2   4
HETATM    4  C   UNL     1     -10.484  12.016  63.263  1.00  0.00    -0.359 C  
BRANCH   4   5
HETATM    5  C   UNL     1     -11.942  12.400  63.524  1.00  0.00    -0.627 C  
BRANCH   5   6
HETATM    6  C   UNL     1     -12.038  13.791  64.144  1.00  0.00    -0.433 C  
BRANCH   6   7
HETATM    7  O   UNL     1     -10.809  14.041  64.828  1.00  0.00    -0.382 OA 
BRANCH   7   8
HETATM    8  C   UNL     1     -10.976  14.420  66.113  1.00  0.00    -0.320 A  
HETATM    9  N   UNL     1     -10.841  15.698  66.463  1.00  0.00    -0.295 NA 
HETATM   10  N   UNL     1     -11.052  15.672  67.801  1.00  0.00    -0.320 NA 
HETATM   11  C   UNL     1     -11.893  11.718  68.620  1.00  0.00    -0.369 A  
HETATM   12  C   UNL     1     -11.355  14.417  68.292  1.00  0.00    -0.287 A  
HETATM   13  C   UNL     1     -11.648  13.943  69.579  1.00  0.00    -0.358 A  
HETATM   14  C   UNL     1     -11.323  13.574  67.183  1.00  0.00    -0.346 A  
HETATM   15  C   UNL     1     -11.595  12.203  67.342  1.00  0.00    -0.410 A  
HETATM   16  C   UNL     1     -11.916  12.576  69.719  1.00  0.00    -0.359 A  
BRANCH  10  17
HETATM   17  C   UNL     1     -11.023  16.925  68.546  1.00  0.00    -0.290 C  
BRANCH  17  18
HETATM   18  C   UNL     1     -10.161  17.972  67.882  1.00  0.00    -0.386 A  
HETATM   19  C   UNL     1      -8.762  17.934  67.994  1.00  0.00    -0.256 A  
HETATM   20  C   UNL     1      -8.569  19.928  66.645  1.00  0.00    -0.390 A  
HETATM   21  C   UNL     1      -9.956  19.963  66.503  1.00  0.00    -0.591 A  
HETATM   22  C   UNL     1      -7.973  18.910  67.385  1.00  0.00    -0.264 A  
HETATM   23  C   UNL     1     -10.748  18.990  67.115  1.00  0.00    -0.541 A  
ENDBRANCH  17  18
ENDBRANCH  10  17
ENDBRANCH   7   8
ENDBRANCH   6   7
ENDBRANCH   5   6
ENDBRANCH   4   5
ENDBRANCH   2   4
TORSDOF 7
ENDMDL
MODEL       26
REMARK 921   NORMALIZED FREE ENERGY PREDICTED BY IDOCK:   -6.19 KCAL/MOL
REMARK 922        TOTAL FREE ENERGY PREDICTED BY IDOCK:   -9.11 KCAL/MOL
REMARK 923 INTER-LIGAND FREE ENERGY PREDICTED BY IDOCK:   -8.13 KCAL/MOL
REMARK 924 INTRA-LIGAND FREE ENERGY PREDICTED BY IDOCK:   -0.98 KCAL/MOL
REMARK 927      BINDING AFFINITY PREDICTED BY RF-SCORE:    0.00 PKD
ROOT
HETATM    1  C   UNL     1     -11.586   8.075  72.500  1.00  0.00    -0.403 C  
HETATM    2  N   UNL     1     -12.392   8.780  71.498  1.00  0.00    -0.316 NA 
HETATM    3  C   UNL     1     -13.625   9.267  72.119  1.00  0.00    -0.471 C  
ENDROOT
BRANCH   2   4
HETATM    4  C   UNL     1     -11.596   9.868  70.901  1.00  0.00    -0.373 C  
BRANCH   4   5
HETATM    5  C   UNL     1     -10.186   9.445  70.484  1.00  0.00    -0.332 C  
BRANCH   5   6
HETATM    6  C   UNL     1      -9.805  10.061  69.141  1.00  0.00    -0.205 C  
BRANCH   6   7
HETATM    7  O   UNL     1     -10.793   9.659  68.190  1.00  0.00    -0.237 OA 
BRANCH   7   8
HETATM    8  C   UNL     1     -11.015  10.577  67.225  1.00  0.00    -0.260 A  
HETATM    9  N   UNL     1     -11.796  11.630  67.459  1.00  0.00    -0.624 NA 
HETATM   10  N   UNL     1     -11.792  12.284  66.273  1.00  0.00    -0.581 NA 
HETATM   11  C   UNL     1      -9.281  10.045  63.887  1.00  0.00    -0.317 A  
HETATM   12  C   UNL     1     -10.997  11.689  65.313  1.00  0.00    -0.268 A  
HETATM   13  C   UNL     1     -10.700  12.022  63.983  1.00  0.00    -0.426 A  
HETATM   14  C   UNL     1     -10.460  10.561  65.930  1.00  0.00    -0.224 A  
HETATM   15  C   UNL     1      -9.589   9.722  65.213  1.00  0.00    -0.368 A  
HETATM   16  C   UNL     1      -9.831  11.176  63.283  1.00  0.00    -0.415 A  
BRANCH  10  17
HETATM   17  C   UNL     1     -12.526  13.538  66.155  1.00  0.00    -0.365 C  
BRANCH  17  18
HETATM   18  C   UNL     1     -11.684  14.737  66.520  1.00  0.00    -0.278 A  
HETATM   19  C   UNL     1     -10.948  15.428  65.544  1.00  0.00    -0.350 A  
HETATM   20  C   UNL     1     -10.120  16.965  67.213  1.00  0.00    -0.286 A  
HETATM   21  C   UNL     1     -10.867  16.306  68.187  1.00  0.00    -0.342 A  
HETATM   22  C   UNL     1     -10.166  16.530  65.890  1.00  0.00    -0.368 A  
HETATM   23  C   UNL     1     -11.648  15.201  67.844  1.00  0.00    -0.326 A  
ENDBRANCH  17  18
ENDBRANCH  10  17
ENDBRANCH   7   8
ENDBRANCH   6   7
ENDBRANCH   5   6
ENDBRANCH   4   5
ENDBRANCH   2   4
TORSDOF 7
ENDMDL
MODEL       27
REMARK 921   NORMALIZED FREE ENERGY PREDICTED BY IDOCK:   -6.14 KCAL/MOL
REMARK 922        TOTAL FREE ENERGY PREDICTED BY IDOCK:   -9.04 KCAL/MOL
REMARK 923 INTER-LIGAND FREE ENERGY PREDICTED BY IDOCK:   -8.18 KCAL/MOL
REMARK 924 INTRA-LIGAND FREE ENERGY PREDICTED BY IDOCK:   -0.86 KCAL/MOL
REMARK 927      BINDING AFFINITY PREDICTED BY RF-SCORE:    0.00 PKD
ROOT
HETATM    1  C   UNL     1      -9.227  11.120  62.964  1.00  0.00    -0.316 C  
HETATM    2  N   UNL     1     -10.453  11.162  63.768  1.00  0.00    -0.374 NA 
HETATM    3  C   UNL     1     -10.217  10.503  65.054  1.00  0.00    -0.295 C  
ENDROOT
BRANCH   2   4
HETATM    4  C   UNL     1     -10.891  12.561  63.925  1.00  0.00    -0.431 C  
BRANCH   4   5
HETATM    5  C   UNL     1     -12.371  12.709  64.290  1.00  0.00    -0.517 C  
BRANCH   5   6
HETATM    6  C   UNL     1     -12.565  13.772  65.366  1.00  0.00    -0.497 C  
BRANCH   6   7
HETATM    7  O   UNL     1     -11.725  13.423  66.468  1.00  0.00    -0.337 OA 
BRANCH   7   8
HETATM    8  C   UNL     1     -11.504  14.447  67.321  1.00  0.00    -0.359 A  
HETATM    9  N   UNL     1     -11.032  15.609  66.873  1.00  0.00    -0.288 NA 
HETATM   10  N   UNL     1     -10.923  16.351  68.001  1.00  0.00    -0.346 NA 
HETATM   11  C   UNL     1     -12.336  13.875  70.982  1.00  0.00    -0.453 A  
HETATM   12  C   UNL     1     -11.351  15.696  69.139  1.00  0.00    -0.338 A  
HETATM   13  C   UNL     1     -11.423  16.078  70.487  1.00  0.00    -0.409 A  
HETATM   14  C   UNL     1     -11.754  14.435  68.706  1.00  0.00    -0.372 A  
HETATM   15  C   UNL     1     -12.255  13.505  69.636  1.00  0.00    -0.304 A  
HETATM   16  C   UNL     1     -11.923  15.141  71.399  1.00  0.00    -0.408 A  
BRANCH  10  17
HETATM   17  C   UNL     1     -10.464  17.731  67.899  1.00  0.00    -0.397 C  
BRANCH  17  18
HETATM   18  C   UNL     1      -9.029  17.897  68.338  1.00  0.00    -0.285 A  
HETATM   19  C   UNL     1      -8.160  16.796  68.399  1.00  0.00    -0.219 A  
HETATM   20  C   UNL     1      -6.362  18.219  69.159  1.00  0.00    -0.252 A  
HETATM   21  C   UNL     1      -7.206  19.325  69.077  1.00  0.00    -0.388 A  
HETATM   22  C   UNL     1      -6.837  16.956  68.814  1.00  0.00    -0.195 A  
HETATM   23  C   UNL     1      -8.530  19.167  68.666  1.00  0.00    -0.397 A  
ENDBRANCH  17  18
ENDBRANCH  10  17
ENDBRANCH   7   8
ENDBRANCH   6   7
ENDBRANCH   5   6
ENDBRANCH   4   5
ENDBRANCH   2   4
TORSDOF 7
ENDMDL
MODEL       28
REMARK 921   NORMALIZED FREE ENERGY PREDICTED BY IDOCK:   -6.14 KCAL/MOL
REMARK 922        TOTAL FREE ENERGY PREDICTED BY IDOCK:   -9.04 KCAL/MOL
REMARK 923 INTER-LIGAND FREE ENERGY PREDICTED BY IDOCK:   -8.31 KCAL/MOL
REMARK 924 INTRA-LIGAND FREE ENERGY PREDICTED BY IDOCK:   -0.73 KCAL/MOL
REMARK 927      BINDING AFFINITY PREDICTED BY RF-SCORE:    0.00 PKD
ROOT
HETATM    1  C   UNL     1     -10.352   5.416  66.514  1.00  0.00    -0.269 C  
HETATM    2  N   UNL     1     -10.857   6.615  67.191  1.00  0.00    -0.364 NA 
HETATM    3  C   UNL     1     -11.135   6.302  68.594  1.00  0.00    -0.325 C  
ENDROOT
BRANCH   2   4
HETATM    4  C   UNL     1      -9.885   7.713  67.041  1.00  0.00    -0.215 C  
BRANCH   4   5
HETATM    5  C   UNL     1     -10.527   9.099  66.947  1.00  0.00    -0.287 C  
BRANCH   5   6
HETATM    6  C   UNL     1      -9.484  10.198  67.125  1.00  0.00    -0.158 C  
BRANCH   6   7
HETATM    7  O   UNL     1      -9.308  10.398  68.529  1.00  0.00    -0.147 OA 
BRANCH   7   8
HETATM    8  C   UNL     1     -10.331  11.060  69.110  1.00  0.00    -0.188 A  
HETATM    9  N   UNL     1     -10.617  12.311  68.751  1.00  0.00    -0.221 NA 
HETATM   10  N   UNL     1     -11.659  12.629  69.556  1.00  0.00    -0.293 NA 
HETATM   11  C   UNL     1     -12.354   9.192  71.726  1.00  0.00    -0.444 A  
HETATM   12  C   UNL     1     -12.060  11.597  70.381  1.00  0.00    -0.373 A  
HETATM   13  C   UNL     1     -13.075  11.486  71.342  1.00  0.00    -0.359 A  
HETATM   14  C   UNL     1     -11.198  10.541  70.090  1.00  0.00    -0.389 A  
HETATM   15  C   UNL     1     -11.342   9.317  70.769  1.00  0.00    -0.349 A  
HETATM   16  C   UNL     1     -13.204  10.261  72.008  1.00  0.00    -0.516 A  
BRANCH  10  17
HETATM   17  C   UNL     1     -12.282  13.941  69.420  1.00  0.00    -0.292 C  
BRANCH  17  18
HETATM   18  C   UNL     1     -12.540  14.599  70.755  1.00  0.00    -0.415 A  
HETATM   19  C   UNL     1     -13.850  14.818  71.211  1.00  0.00    -0.460 A  
HETATM   20  C   UNL     1     -13.007  15.826  73.238  1.00  0.00    -0.675 A  
HETATM   21  C   UNL     1     -11.702  15.589  72.810  1.00  0.00    -0.545 A  
HETATM   22  C   UNL     1     -14.081  15.434  72.442  1.00  0.00    -0.645 A  
HETATM   23  C   UNL     1     -11.468  14.976  71.578  1.00  0.00    -0.377 A  
ENDBRANCH  17  18
ENDBRANCH  10  17
ENDBRANCH   7   8
ENDBRANCH   6   7
ENDBRANCH   5   6
ENDBRANCH   4   5
ENDBRANCH   2   4
TORSDOF 7
ENDMDL
MODEL       29
REMARK 921   NORMALIZED FREE ENERGY PREDICTED BY IDOCK:   -6.14 KCAL/MOL
REMARK 922        TOTAL FREE ENERGY PREDICTED BY IDOCK:   -9.04 KCAL/MOL
REMARK 923 INTER-LIGAND FREE ENERGY PREDICTED BY IDOCK:   -7.92 KCAL/MOL
REMARK 924 INTRA-LIGAND FREE ENERGY PREDICTED BY IDOCK:   -1.12 KCAL/MOL
REMARK 927      BINDING AFFINITY PREDICTED BY RF-SCORE:    0.00 PKD
ROOT
HETATM    1  C   UNL     1     -13.598   9.060  72.384  1.00  0.00    -0.477 C  
HETATM    2  N   UNL     1     -13.094   9.670  71.149  1.00  0.00    -0.336 NA 
HETATM    3  C   UNL     1     -12.885  11.103  71.364  1.00  0.00    -0.439 C  
ENDROOT
BRANCH   2   4
HETATM    4  C   UNL     1     -11.863   8.979  70.724  1.00  0.00    -0.206 C  
BRANCH   4   5
HETATM    5  C   UNL     1     -10.619   9.871  70.735  1.00  0.00    -0.309 C  
BRANCH   5   6
HETATM    6  C   UNL     1      -9.995   9.956  69.346  1.00  0.00    -0.212 C  
BRANCH   6   7
HETATM    7  O   UNL     1     -11.007   9.604  68.400  1.00  0.00    -0.198 OA 
BRANCH   7   8
HETATM    8  C   UNL     1     -11.151  10.506  67.406  1.00  0.00    -0.252 A  
HETATM    9  N   UNL     1     -11.918  11.583  67.575  1.00  0.00    -0.622 NA 
HETATM   10  N   UNL     1     -11.830  12.212  66.379  1.00  0.00    -0.607 NA 
HETATM   11  C   UNL     1      -9.247   9.864  64.183  1.00  0.00    -0.312 A  
HETATM   12  C   UNL     1     -10.998  11.578  65.477  1.00  0.00    -0.229 A  
HETATM   13  C   UNL     1     -10.619  11.876  64.160  1.00  0.00    -0.397 A  
HETATM   14  C   UNL     1     -10.526  10.451  66.145  1.00  0.00    -0.224 A  
HETATM   15  C   UNL     1      -9.637   9.576  65.495  1.00  0.00    -0.349 A  
HETATM   16  C   UNL     1      -9.734  10.995  63.527  1.00  0.00    -0.375 A  
BRANCH  10  17
HETATM   17  C   UNL     1     -12.525  13.481  66.195  1.00  0.00    -0.365 C  
BRANCH  17  18
HETATM   18  C   UNL     1     -11.661  14.669  66.545  1.00  0.00    -0.350 A  
HETATM   19  C   UNL     1     -11.540  15.107  67.873  1.00  0.00    -0.326 A  
HETATM   20  C   UNL     1     -10.053  16.881  67.184  1.00  0.00    -0.287 A  
HETATM   21  C   UNL     1     -10.142  16.440  65.865  1.00  0.00    -0.370 A  
HETATM   22  C   UNL     1     -10.746  16.211  68.189  1.00  0.00    -0.315 A  
HETATM   23  C   UNL     1     -10.938  15.339  65.547  1.00  0.00    -0.365 A  
ENDBRANCH  17  18
ENDBRANCH  10  17
ENDBRANCH   7   8
ENDBRANCH   6   7
ENDBRANCH   5   6
ENDBRANCH   4   5
ENDBRANCH   2   4
TORSDOF 7
ENDMDL
MODEL       30
REMARK 921   NORMALIZED FREE ENERGY PREDICTED BY IDOCK:   -6.13 KCAL/MOL
REMARK 922        TOTAL FREE ENERGY PREDICTED BY IDOCK:   -9.03 KCAL/MOL
REMARK 923 INTER-LIGAND FREE ENERGY PREDICTED BY IDOCK:   -8.08 KCAL/MOL
REMARK 924 INTRA-LIGAND FREE ENERGY PREDICTED BY IDOCK:   -0.95 KCAL/MOL
REMARK 927      BINDING AFFINITY PREDICTED BY RF-SCORE:    0.00 PKD
ROOT
HETATM    1  C   UNL     1     -12.034   6.395  71.876  1.00  0.00    -0.329 C  
HETATM    2  N   UNL     1     -12.651   7.635  71.391  1.00  0.00    -0.337 NA 
HETATM    3  C   UNL     1     -14.096   7.583  71.620  1.00  0.00    -0.440 C  
ENDROOT
BRANCH   2   4
HETATM    4  C   UNL     1     -12.018   8.792  72.050  1.00  0.00    -0.376 C  
BRANCH   4   5
HETATM    5  C   UNL     1     -10.618   9.114  71.523  1.00  0.00    -0.428 C  
BRANCH   5   6
HETATM    6  C   UNL     1     -10.686  10.090  70.353  1.00  0.00    -0.307 C  
BRANCH   6   7
HETATM    7  O   UNL     1     -12.038  10.542  70.251  1.00  0.00    -0.282 OA 
BRANCH   7   8
HETATM    8  C   UNL     1     -12.145  11.860  69.979  1.00  0.00    -0.291 A  
HETATM    9  N   UNL     1     -11.745  12.343  68.804  1.00  0.00    -0.317 NA 
HETATM   10  N   UNL     1     -11.985  13.671  68.921  1.00  0.00    -0.356 NA 
HETATM   11  C   UNL     1     -13.674  14.072  72.662  1.00  0.00    -0.586 A  
HETATM   12  C   UNL     1     -12.561  14.028  70.124  1.00  0.00    -0.251 A  
HETATM   13  C   UNL     1     -12.975  15.259  70.653  1.00  0.00    -0.442 A  
HETATM   14  C   UNL     1     -12.689  12.837  70.836  1.00  0.00    -0.277 A  
HETATM   15  C   UNL     1     -13.253  12.851  72.124  1.00  0.00    -0.552 A  
HETATM   16  C   UNL     1     -13.535  15.256  71.937  1.00  0.00    -0.547 A  
BRANCH  10  17
HETATM   17  C   UNL     1     -11.702  14.544  67.787  1.00  0.00    -0.374 C  
BRANCH  17  18
HETATM   18  C   UNL     1     -10.544  15.477  68.051  1.00  0.00    -0.270 A  
HETATM   19  C   UNL     1      -9.269  14.977  68.359  1.00  0.00    -0.193 A  
HETATM   20  C   UNL     1      -8.400  17.224  68.542  1.00  0.00    -0.267 A  
HETATM   21  C   UNL     1      -9.654  17.733  68.211  1.00  0.00    -0.312 A  
HETATM   22  C   UNL     1      -8.206  15.846  68.610  1.00  0.00    -0.182 A  
HETATM   23  C   UNL     1     -10.720  16.867  67.963  1.00  0.00    -0.364 A  
ENDBRANCH  17  18
ENDBRANCH  10  17
ENDBRANCH   7   8
ENDBRANCH   6   7
ENDBRANCH   5   6
ENDBRANCH   4   5
ENDBRANCH   2   4
TORSDOF 7
ENDMDL
MODEL       31
REMARK 921   NORMALIZED FREE ENERGY PREDICTED BY IDOCK:   -6.10 KCAL/MOL
REMARK 922        TOTAL FREE ENERGY PREDICTED BY IDOCK:   -8.98 KCAL/MOL
REMARK 923 INTER-LIGAND FREE ENERGY PREDICTED BY IDOCK:   -8.04 KCAL/MOL
REMARK 924 INTRA-LIGAND FREE ENERGY PREDICTED BY IDOCK:   -0.95 KCAL/MOL
REMARK 927      BINDING AFFINITY PREDICTED BY RF-SCORE:    0.00 PKD
ROOT
HETATM    1  C   UNL     1     -10.415   8.845  67.427  1.00  0.00    -0.277 C  
HETATM    2  N   UNL     1      -9.363   8.383  68.340  1.00  0.00    -0.135 NA 
HETATM    3  C   UNL     1      -8.051   8.678  67.762  1.00  0.00    -0.107 C  
ENDROOT
BRANCH   2   4
HETATM    4  C   UNL     1      -9.548   9.009  69.662  1.00  0.00    -0.171 C  
BRANCH   4   5
HETATM    5  C   UNL     1     -10.903   8.705  70.306  1.00  0.00    -0.250 C  
BRANCH   5   6
HETATM    6  C   UNL     1     -11.326   9.828  71.247  1.00  0.00    -0.375 C  
BRANCH   6   7
HETATM    7  O   UNL     1     -12.476  10.455  70.676  1.00  0.00    -0.313 OA 
BRANCH   7   8
HETATM    8  C   UNL     1     -12.270  11.742  70.325  1.00  0.00    -0.299 A  
HETATM    9  N   UNL     1     -11.554  12.041  69.242  1.00  0.00    -0.298 NA 
HETATM   10  N   UNL     1     -11.551  13.395  69.242  1.00  0.00    -0.292 NA 
HETATM   11  C   UNL     1     -13.856  14.417  72.506  1.00  0.00    -0.559 A  
HETATM   12  C   UNL     1     -12.280  13.953  70.274  1.00  0.00    -0.358 A  
HETATM   13  C   UNL     1     -12.548  15.279  70.642  1.00  0.00    -0.471 A  
HETATM   14  C   UNL     1     -12.777  12.871  70.997  1.00  0.00    -0.338 A  
HETATM   15  C   UNL     1     -13.578  13.098  72.130  1.00  0.00    -0.637 A  
HETATM   16  C   UNL     1     -13.346  15.488  71.773  1.00  0.00    -0.577 A  
BRANCH  10  17
HETATM   17  C   UNL     1     -10.881  14.101  68.156  1.00  0.00    -0.248 C  
BRANCH  17  18
HETATM   18  C   UNL     1     -11.158  13.483  66.807  1.00  0.00    -0.311 A  
HETATM   19  C   UNL     1     -12.402  13.648  66.178  1.00  0.00    -0.476 A  
HETATM   20  C   UNL     1     -11.662  12.326  64.297  1.00  0.00    -0.456 A  
HETATM   21  C   UNL     1     -10.413  12.177  64.897  1.00  0.00    -0.325 A  
HETATM   22  C   UNL     1     -12.654  13.067  64.935  1.00  0.00    -0.490 A  
HETATM   23  C   UNL     1     -10.159  12.754  66.142  1.00  0.00    -0.274 A  
ENDBRANCH  17  18
ENDBRANCH  10  17
ENDBRANCH   7   8
ENDBRANCH   6   7
ENDBRANCH   5   6
ENDBRANCH   4   5
ENDBRANCH   2   4
TORSDOF 7
ENDMDL
MODEL       32
REMARK 921   NORMALIZED FREE ENERGY PREDICTED BY IDOCK:   -6.04 KCAL/MOL
REMARK 922        TOTAL FREE ENERGY PREDICTED BY IDOCK:   -8.90 KCAL/MOL
REMARK 923 INTER-LIGAND FREE ENERGY PREDICTED BY IDOCK:   -7.97 KCAL/MOL
REMARK 924 INTRA-LIGAND FREE ENERGY PREDICTED BY IDOCK:   -0.93 KCAL/MOL
REMARK 927      BINDING AFFINITY PREDICTED BY RF-SCORE:    0.00 PKD
ROOT
HETATM    1  C   UNL     1      -9.906  10.062  64.722  1.00  0.00    -0.254 C  
HETATM    2  N   UNL     1      -9.364  10.942  63.681  1.00  0.00    -0.242 NA 
HETATM    3  C   UNL     1      -9.102  10.162  62.471  1.00  0.00    -0.287 C  
ENDROOT
BRANCH   2   4
HETATM    4  C   UNL     1     -10.299  12.056  63.441  1.00  0.00    -0.434 C  
BRANCH   4   5
HETATM    5  C   UNL     1     -11.737  11.761  63.875  1.00  0.00    -0.461 C  
BRANCH   5   6
HETATM    6  C   UNL     1     -12.241  12.819  64.852  1.00  0.00    -0.463 C  
BRANCH   6   7
HETATM    7  O   UNL     1     -12.072  12.297  66.171  1.00  0.00    -0.625 OA 
BRANCH   7   8
HETATM    8  C   UNL     1     -11.488  13.167  67.023  1.00  0.00    -0.336 A  
HETATM    9  N   UNL     1     -12.192  14.162  67.562  1.00  0.00    -0.314 NA 
HETATM   10  N   UNL     1     -11.274  14.811  68.317  1.00  0.00    -0.273 NA 
HETATM   11  C   UNL     1      -7.821  12.608  67.839  1.00  0.00    -0.154 A  
HETATM   12  C   UNL     1     -10.023  14.227  68.296  1.00  0.00    -0.239 A  
HETATM   13  C   UNL     1      -8.811  14.551  68.923  1.00  0.00    -0.103 A  
HETATM   14  C   UNL     1     -10.148  13.125  67.454  1.00  0.00    -0.229 A  
HETATM   15  C   UNL     1      -9.035  12.298  67.217  1.00  0.00    -0.187 A  
HETATM   16  C   UNL     1      -7.712  13.718  68.676  1.00  0.00    -0.120 A  
BRANCH  10  17
HETATM   17  C   UNL     1     -11.695  15.963  69.107  1.00  0.00    -0.363 C  
BRANCH  17  18
HETATM   18  C   UNL     1     -12.197  15.572  70.476  1.00  0.00    -0.444 A  
HETATM   19  C   UNL     1     -13.407  14.876  70.630  1.00  0.00    -0.253 A  
HETATM   20  C   UNL     1     -13.122  14.852  73.029  1.00  0.00    -0.605 A  
HETATM   21  C   UNL     1     -11.906  15.519  72.889  1.00  0.00    -0.565 A  
HETATM   22  C   UNL     1     -13.868  14.525  71.900  1.00  0.00    -0.545 A  
HETATM   23  C   UNL     1     -11.443  15.874  71.620  1.00  0.00    -0.473 A  
ENDBRANCH  17  18
ENDBRANCH  10  17
ENDBRANCH   7   8
ENDBRANCH   6   7
ENDBRANCH   5   6
ENDBRANCH   4   5
ENDBRANCH   2   4
TORSDOF 7
ENDMDL
MODEL       33
REMARK 921   NORMALIZED FREE ENERGY PREDICTED BY IDOCK:   -5.91 KCAL/MOL
REMARK 922        TOTAL FREE ENERGY PREDICTED BY IDOCK:   -8.72 KCAL/MOL
REMARK 923 INTER-LIGAND FREE ENERGY PREDICTED BY IDOCK:   -7.78 KCAL/MOL
REMARK 924 INTRA-LIGAND FREE ENERGY PREDICTED BY IDOCK:   -0.94 KCAL/MOL
REMARK 927      BINDING AFFINITY PREDICTED BY RF-SCORE:    0.00 PKD
ROOT
HETATM    1  C   UNL     1     -11.127   6.261  68.994  1.00  0.00    -0.378 C  
HETATM    2  N   UNL     1     -11.102   6.678  70.400  1.00  0.00    -0.296 NA 
HETATM    3  C   UNL     1     -10.464   5.637  71.207  1.00  0.00    -0.236 C  
ENDROOT
BRANCH   2   4
HETATM    4  C   UNL     1     -10.416   7.979  70.517  1.00  0.00    -0.214 C  
BRANCH   4   5
HETATM    5  C   UNL     1     -11.368   9.175  70.591  1.00  0.00    -0.323 C  
BRANCH   5   6
HETATM    6  C   UNL     1     -10.920  10.289  69.651  1.00  0.00    -0.270 C  
BRANCH   6   7
HETATM    7  O   UNL     1     -10.826   9.730  68.339  1.00  0.00    -0.233 OA 
BRANCH   7   8
HETATM    8  C   UNL     1     -11.045  10.628  67.355  1.00  0.00    -0.272 A  
HETATM    9  N   UNL     1     -11.801  11.702  67.576  1.00  0.00    -0.624 NA 
HETATM   10  N   UNL     1     -11.804  12.326  66.374  1.00  0.00    -0.589 NA 
HETATM   11  C   UNL     1      -9.379   9.979  64.004  1.00  0.00    -0.324 A  
HETATM   12  C   UNL     1     -11.037  11.692  65.416  1.00  0.00    -0.239 A  
HETATM   13  C   UNL     1     -10.756  11.986  64.074  1.00  0.00    -0.426 A  
HETATM   14  C   UNL     1     -10.513  10.569  66.052  1.00  0.00    -0.226 A  
HETATM   15  C   UNL     1      -9.670   9.695  65.342  1.00  0.00    -0.365 A  
HETATM   16  C   UNL     1      -9.916  11.106  63.381  1.00  0.00    -0.430 A  
BRANCH  10  17
HETATM   17  C   UNL     1     -12.515  13.592  66.236  1.00  0.00    -0.366 C  
BRANCH  17  18
HETATM   18  C   UNL     1     -11.644  14.783  66.560  1.00  0.00    -0.306 A  
HETATM   19  C   UNL     1     -10.909  15.434  65.557  1.00  0.00    -0.384 A  
HETATM   20  C   UNL     1     -10.026  16.994  67.176  1.00  0.00    -0.281 A  
HETATM   21  C   UNL     1     -10.772  16.374  68.177  1.00  0.00    -0.336 A  
HETATM   22  C   UNL     1     -10.100  16.529  65.866  1.00  0.00    -0.359 A  
HETATM   23  C   UNL     1     -11.579  15.277  67.872  1.00  0.00    -0.301 A  
ENDBRANCH  17  18
ENDBRANCH  10  17
ENDBRANCH   7   8
ENDBRANCH   6   7
ENDBRANCH   5   6
ENDBRANCH   4   5
ENDBRANCH   2   4
TORSDOF 7
ENDMDL
MODEL       34
REMARK 921   NORMALIZED FREE ENERGY PREDICTED BY IDOCK:   -5.91 KCAL/MOL
REMARK 922        TOTAL FREE ENERGY PREDICTED BY IDOCK:   -8.72 KCAL/MOL
REMARK 923 INTER-LIGAND FREE ENERGY PREDICTED BY IDOCK:   -8.42 KCAL/MOL
REMARK 924 INTRA-LIGAND FREE ENERGY PREDICTED BY IDOCK:   -0.30 KCAL/MOL
REMARK 927      BINDING AFFINITY PREDICTED BY RF-SCORE:    0.00 PKD
ROOT
HETATM    1  C   UNL     1      -9.984  20.093  66.749  1.00  0.00    -0.469 C  
HETATM    2  N   UNL     1      -9.283  18.946  66.161  1.00  0.00    -0.472 NA 
HETATM    3  C   UNL     1      -7.884  18.956  66.592  1.00  0.00    -0.259 C  
ENDROOT
BRANCH   2   4
HETATM    4  C   UNL     1      -9.977  17.700  66.533  1.00  0.00    -0.332 C  
BRANCH   4   5
HETATM    5  C   UNL     1     -10.685  17.768  67.888  1.00  0.00    -0.327 C  
BRANCH   5   6
HETATM    6  C   UNL     1     -10.461  16.488  68.686  1.00  0.00    -0.304 C  
BRANCH   6   7
HETATM    7  O   UNL     1     -11.658  15.713  68.598  1.00  0.00    -0.356 OA 
BRANCH   7   8
HETATM    8  C   UNL     1     -11.447  14.440  68.198  1.00  0.00    -0.310 A  
HETATM    9  N   UNL     1     -10.988  13.530  69.056  1.00  0.00    -0.248 NA 
HETATM   10  N   UNL     1     -10.887  12.415  68.293  1.00  0.00    -0.226 NA 
HETATM   11  C   UNL     1     -12.270  13.589  64.590  1.00  0.00    -0.450 A  
HETATM   12  C   UNL     1     -11.307  12.593  66.990  1.00  0.00    -0.323 A  
HETATM   13  C   UNL     1     -11.381  11.730  65.888  1.00  0.00    -0.324 A  
HETATM   14  C   UNL     1     -11.696  13.929  66.911  1.00  0.00    -0.425 A  
HETATM   15  C   UNL     1     -12.186  14.441  65.696  1.00  0.00    -0.352 A  
HETATM   16  C   UNL     1     -11.871  12.256  64.686  1.00  0.00    -0.435 A  
BRANCH  10  17
HETATM   17  C   UNL     1     -10.443  11.172  68.913  1.00  0.00    -0.207 C  
BRANCH  17  18
HETATM   18  C   UNL     1     -11.361  10.720  70.024  1.00  0.00    -0.397 A  
HETATM   19  C   UNL     1     -12.296  11.601  70.591  1.00  0.00    -0.437 A  
HETATM   20  C   UNL     1     -13.061   9.869  72.092  1.00  0.00    -0.497 A  
HETATM   21  C   UNL     1     -12.156   8.977  71.520  1.00  0.00    -0.410 A  
HETATM   22  C   UNL     1     -13.136  11.178  71.623  1.00  0.00    -0.529 A  
HETATM   23  C   UNL     1     -11.313   9.397  70.490  1.00  0.00    -0.328 A  
ENDBRANCH  17  18
ENDBRANCH  10  17
ENDBRANCH   7   8
ENDBRANCH   6   7
ENDBRANCH   5   6
ENDBRANCH   4   5
ENDBRANCH   2   4
TORSDOF 7
ENDMDL
MODEL       35
REMARK 921   NORMALIZED FREE ENERGY PREDICTED BY IDOCK:   -5.86 KCAL/MOL
REMARK 922        TOTAL FREE ENERGY PREDICTED BY IDOCK:   -8.65 KCAL/MOL
REMARK 923 INTER-LIGAND FREE ENERGY PREDICTED BY IDOCK:   -8.12 KCAL/MOL
REMARK 924 INTRA-LIGAND FREE ENERGY PREDICTED BY IDOCK:   -0.53 KCAL/MOL
REMARK 927      BINDING AFFINITY PREDICTED BY RF-SCORE:    0.00 PKD
ROOT
HETATM    1  C   UNL     1     -14.330  14.969  71.611  1.00  0.00    -0.584 C  
HETATM    2  N   UNL     1     -13.102  15.697  71.274  1.00  0.00    -0.500 NA 
HETATM    3  C   UNL     1     -12.308  15.902  72.486  1.00  0.00    -0.483 C  
ENDROOT
BRANCH   2   4
HETATM    4  C   UNL     1     -12.361  14.960  70.234  1.00  0.00    -0.341 C  
BRANCH   4   5
HETATM    5  C   UNL     1     -11.563  15.859  69.288  1.00  0.00    -0.372 C  
BRANCH   5   6
HETATM    6  C   UNL     1     -10.236  15.211  68.907  1.00  0.00    -0.236 C  
BRANCH   6   7
HETATM    7  O   UNL     1     -10.316  14.849  67.527  1.00  0.00    -0.237 OA 
BRANCH   7   8
HETATM    8  C   UNL     1     -10.134  13.530  67.305  1.00  0.00    -0.235 A  
HETATM    9  N   UNL     1      -9.821  12.713  68.309  1.00  0.00    -0.228 NA 
HETATM   10  N   UNL     1      -9.699  11.510  67.698  1.00  0.00    -0.172 NA 
HETATM   11  C   UNL     1     -10.607  12.281  63.750  1.00  0.00    -0.488 A  
HETATM   12  C   UNL     1      -9.965  11.546  66.343  1.00  0.00    -0.209 A  
HETATM   13  C   UNL     1      -9.967  10.558  65.348  1.00  0.00    -0.353 A  
HETATM   14  C   UNL     1     -10.270  12.876  66.065  1.00  0.00    -0.293 A  
HETATM   15  C   UNL     1     -10.597  13.257  64.751  1.00  0.00    -0.402 A  
HETATM   16  C   UNL     1     -10.294  10.954  64.045  1.00  0.00    -0.417 A  
BRANCH  10  17
HETATM   17  C   UNL     1      -9.394  10.334  68.505  1.00  0.00    -0.155 C  
BRANCH  17  18
HETATM   18  C   UNL     1     -10.395  10.119  69.614  1.00  0.00    -0.278 A  
HETATM   19  C   UNL     1     -10.096   9.287  70.705  1.00  0.00    -0.358 A  
HETATM   20  C   UNL     1     -12.267   9.724  71.670  1.00  0.00    -0.488 A  
HETATM   21  C   UNL     1     -12.567  10.573  70.607  1.00  0.00    -0.457 A  
HETATM   22  C   UNL     1     -11.030   9.086  71.723  1.00  0.00    -0.443 A  
HETATM   23  C   UNL     1     -11.636  10.773  69.586  1.00  0.00    -0.388 A  
ENDBRANCH  17  18
ENDBRANCH  10  17
ENDBRANCH   7   8
ENDBRANCH   6   7
ENDBRANCH   5   6
ENDBRANCH   4   5
ENDBRANCH   2   4
TORSDOF 7
ENDMDL
MODEL       36
REMARK 921   NORMALIZED FREE ENERGY PREDICTED BY IDOCK:   -5.85 KCAL/MOL
REMARK 922        TOTAL FREE ENERGY PREDICTED BY IDOCK:   -8.63 KCAL/MOL
REMARK 923 INTER-LIGAND FREE ENERGY PREDICTED BY IDOCK:   -8.01 KCAL/MOL
REMARK 924 INTRA-LIGAND FREE ENERGY PREDICTED BY IDOCK:   -0.62 KCAL/MOL
REMARK 927      BINDING AFFINITY PREDICTED BY RF-SCORE:    0.00 PKD
ROOT
HETATM    1  C   UNL     1     -14.183  15.264  72.270  1.00  0.00    -0.547 C  
HETATM    2  N   UNL     1     -12.928  15.935  72.626  1.00  0.00    -0.462 NA 
HETATM    3  C   UNL     1     -12.507  15.506  73.961  1.00  0.00    -0.653 C  
ENDROOT
BRANCH   2   4
HETATM    4  C   UNL     1     -11.910  15.653  71.598  1.00  0.00    -0.429 C  
BRANCH   4   5
HETATM    5  C   UNL     1     -12.464  14.957  70.353  1.00  0.00    -0.403 C  
BRANCH   5   6
HETATM    6  C   UNL     1     -11.384  14.803  69.287  1.00  0.00    -0.294 C  
BRANCH   6   7
HETATM    7  O   UNL     1     -12.027  14.371  68.086  1.00  0.00    -0.328 OA 
BRANCH   7   8
HETATM    8  C   UNL     1     -11.389  13.353  67.470  1.00  0.00    -0.298 A  
HETATM    9  N   UNL     1     -10.498  12.615  68.131  1.00  0.00    -0.224 NA 
HETATM   10  N   UNL     1     -10.071  11.738  67.191  1.00  0.00    -0.202 NA 
HETATM   11  C   UNL     1     -12.290  12.673  63.843  1.00  0.00    -0.546 A  
HETATM   12  C   UNL     1     -10.699  11.882  65.970  1.00  0.00    -0.285 A  
HETATM   13  C   UNL     1     -10.576  11.200  64.751  1.00  0.00    -0.371 A  
HETATM   14  C   UNL     1     -11.589  12.940  66.139  1.00  0.00    -0.423 A  
HETATM   15  C   UNL     1     -12.400  13.348  65.064  1.00  0.00    -0.481 A  
HETATM   16  C   UNL     1     -11.390  11.618  63.691  1.00  0.00    -0.485 A  
BRANCH  10  17
HETATM   17  C   UNL     1      -9.095  10.721  67.565  1.00  0.00    -0.139 C  
BRANCH  17  18
HETATM   18  C   UNL     1      -9.460  10.014  68.849  1.00  0.00    -0.172 A  
HETATM   19  C   UNL     1      -8.504   9.807  69.856  1.00  0.00    -0.217 A  
HETATM   20  C   UNL     1     -10.150   8.695  71.231  1.00  0.00    -0.312 A  
HETATM   21  C   UNL     1     -11.116   8.918  70.250  1.00  0.00    -0.251 A  
HETATM   22  C   UNL     1      -8.847   9.145  71.036  1.00  0.00    -0.267 A  
HETATM   23  C   UNL     1     -10.775   9.576  69.068  1.00  0.00    -0.224 A  
ENDBRANCH  17  18
ENDBRANCH  10  17
ENDBRANCH   7   8
ENDBRANCH   6   7
ENDBRANCH   5   6
ENDBRANCH   4   5
ENDBRANCH   2   4
TORSDOF 7
ENDMDL
MODEL       37
REMARK 921   NORMALIZED FREE ENERGY PREDICTED BY IDOCK:   -5.85 KCAL/MOL
REMARK 922        TOTAL FREE ENERGY PREDICTED BY IDOCK:   -8.63 KCAL/MOL
REMARK 923 INTER-LIGAND FREE ENERGY PREDICTED BY IDOCK:   -7.94 KCAL/MOL
REMARK 924 INTRA-LIGAND FREE ENERGY PREDICTED BY IDOCK:   -0.69 KCAL/MOL
REMARK 927      BINDING AFFINITY PREDICTED BY RF-SCORE:    0.00 PKD
ROOT
HETATM    1  C   UNL     1     -14.371  15.187  72.691  1.00  0.00    -0.016 C  
HETATM    2  N   UNL     1     -13.316  14.228  73.035  1.00  0.00    -0.644 NA 
HETATM    3  C   UNL     1     -13.504  12.998  72.264  1.00  0.00    -0.547 C  
ENDROOT
BRANCH   2   4
HETATM    4  C   UNL     1     -11.996  14.841  72.801  1.00  0.00    -0.140 C  
BRANCH   4   5
HETATM    5  C   UNL     1     -12.066  16.262  72.235  1.00  0.00    -0.567 C  
BRANCH   5   6
HETATM    6  C   UNL     1     -11.519  16.310  70.812  1.00  0.00    -0.297 C  
BRANCH   6   7
HETATM    7  O   UNL     1     -11.410  14.963  70.349  1.00  0.00    -0.254 OA 
BRANCH   7   8
HETATM    8  C   UNL     1     -11.307  14.862  69.007  1.00  0.00    -0.292 A  
HETATM    9  N   UNL     1     -12.107  14.042  68.327  1.00  0.00    -0.334 NA 
HETATM   10  N   UNL     1     -11.690  14.198  67.048  1.00  0.00    -0.385 NA 
HETATM   11  C   UNL     1      -8.712  17.041  67.291  1.00  0.00    -0.212 A  
HETATM   12  C   UNL     1     -10.676  15.125  66.903  1.00  0.00    -0.308 A  
HETATM   13  C   UNL     1      -9.968  15.595  65.788  1.00  0.00    -0.390 A  
HETATM   14  C   UNL     1     -10.417  15.588  68.192  1.00  0.00    -0.259 A  
HETATM   15  C   UNL     1      -9.422  16.560  68.396  1.00  0.00    -0.223 A  
HETATM   16  C   UNL     1      -8.981  16.563  66.009  1.00  0.00    -0.276 A  
BRANCH  10  17
HETATM   17  C   UNL     1     -12.375  13.470  65.987  1.00  0.00    -0.433 C  
BRANCH  17  18
HETATM   18  C   UNL     1     -11.481  12.458  65.310  1.00  0.00    -0.389 A  
HETATM   19  C   UNL     1     -10.976  11.354  66.015  1.00  0.00    -0.286 A  
HETATM   20  C   UNL     1      -9.817  10.584  64.041  1.00  0.00    -0.387 A  
HETATM   21  C   UNL     1     -10.333  11.661  63.321  1.00  0.00    -0.444 A  
HETATM   22  C   UNL     1     -10.144  10.427  65.385  1.00  0.00    -0.354 A  
HETATM   23  C   UNL     1     -11.162  12.591  63.950  1.00  0.00    -0.496 A  
ENDBRANCH  17  18
ENDBRANCH  10  17
ENDBRANCH   7   8
ENDBRANCH   6   7
ENDBRANCH   5   6
ENDBRANCH   4   5
ENDBRANCH   2   4
TORSDOF 7
ENDMDL
MODEL       38
REMARK 921   NORMALIZED FREE ENERGY PREDICTED BY IDOCK:   -5.84 KCAL/MOL
REMARK 922        TOTAL FREE ENERGY PREDICTED BY IDOCK:   -8.62 KCAL/MOL
REMARK 923 INTER-LIGAND FREE ENERGY PREDICTED BY IDOCK:   -7.57 KCAL/MOL
REMARK 924 INTRA-LIGAND FREE ENERGY PREDICTED BY IDOCK:   -1.06 KCAL/MOL
REMARK 927      BINDING AFFINITY PREDICTED BY RF-SCORE:    0.00 PKD
ROOT
HETATM    1  C   UNL     1     -10.356  10.719  64.875  1.00  0.00    -0.299 C  
HETATM    2  N   UNL     1     -10.019  11.778  63.918  1.00  0.00    -0.322 NA 
HETATM    3  C   UNL     1      -9.423  11.182  62.721  1.00  0.00    -0.329 C  
ENDROOT
BRANCH   2   4
HETATM    4  C   UNL     1     -11.225  12.568  63.612  1.00  0.00    -0.483 C  
BRANCH   4   5
HETATM    5  C   UNL     1     -12.356  12.389  64.627  1.00  0.00    -0.518 C  
BRANCH   5   6
HETATM    6  C   UNL     1     -12.498  13.622  65.512  1.00  0.00    -0.503 C  
BRANCH   6   7
HETATM    7  O   UNL     1     -12.258  13.212  66.860  1.00  0.00    -0.342 OA 
BRANCH   7   8
HETATM    8  C   UNL     1     -11.371  13.994  67.511  1.00  0.00    -0.321 A  
HETATM    9  N   UNL     1     -11.730  15.197  67.956  1.00  0.00    -0.333 NA 
HETATM   10  N   UNL     1     -10.590  15.669  68.515  1.00  0.00    -0.248 NA 
HETATM   11  C   UNL     1      -7.883  12.591  68.054  1.00  0.00    -0.147 A  
HETATM   12  C   UNL     1      -9.536  14.777  68.466  1.00  0.00    -0.218 A  
HETATM   13  C   UNL     1      -8.211  14.844  68.919  1.00  0.00    -0.171 A  
HETATM   14  C   UNL     1     -10.039  13.653  67.815  1.00  0.00    -0.242 A  
HETATM   15  C   UNL     1      -9.206  12.539  67.603  1.00  0.00    -0.190 A  
HETATM   16  C   UNL     1      -7.395  13.727  68.699  1.00  0.00    -0.117 A  
BRANCH  10  17
HETATM   17  C   UNL     1     -10.606  16.978  69.157  1.00  0.00    -0.303 C  
BRANCH  17  18
HETATM   18  C   UNL     1     -10.059  18.067  68.264  1.00  0.00    -0.390 A  
HETATM   19  C   UNL     1     -10.870  18.687  67.301  1.00  0.00    -0.369 A  
HETATM   20  C   UNL     1      -9.029  20.089  66.609  1.00  0.00    -0.446 A  
HETATM   21  C   UNL     1      -8.220  19.501  67.579  1.00  0.00    -0.328 A  
HETATM   22  C   UNL     1     -10.356  19.686  66.474  1.00  0.00    -0.601 A  
HETATM   23  C   UNL     1      -8.731  18.499  68.405  1.00  0.00    -0.351 A  
ENDBRANCH  17  18
ENDBRANCH  10  17
ENDBRANCH   7   8
ENDBRANCH   6   7
ENDBRANCH   5   6
ENDBRANCH   4   5
ENDBRANCH   2   4
TORSDOF 7
ENDMDL
MODEL       39
REMARK 921   NORMALIZED FREE ENERGY PREDICTED BY IDOCK:   -5.84 KCAL/MOL
REMARK 922        TOTAL FREE ENERGY PREDICTED BY IDOCK:   -8.62 KCAL/MOL
REMARK 923 INTER-LIGAND FREE ENERGY PREDICTED BY IDOCK:   -8.00 KCAL/MOL
REMARK 924 INTRA-LIGAND FREE ENERGY PREDICTED BY IDOCK:   -0.62 KCAL/MOL
REMARK 927      BINDING AFFINITY PREDICTED BY RF-SCORE:    0.00 PKD
ROOT
HETATM    1  C   UNL     1     -13.428  15.906  73.183  1.00  0.00    -0.563 C  
HETATM    2  N   UNL     1     -13.857  15.150  72.002  1.00  0.00    -0.452 NA 
HETATM    3  C   UNL     1     -12.894  15.350  70.918  1.00  0.00    -0.476 C  
ENDROOT
BRANCH   2   4
HETATM    4  C   UNL     1     -14.015  13.728  72.357  1.00  0.00    -0.548 C  
BRANCH   4   5
HETATM    5  C   UNL     1     -12.901  12.828  71.817  1.00  0.00    -0.342 C  
BRANCH   5   6
HETATM    6  C   UNL     1     -13.285  11.356  71.928  1.00  0.00    -0.380 C  
BRANCH   6   7
HETATM    7  O   UNL     1     -13.277  10.811  70.607  1.00  0.00    -0.218 OA 
BRANCH   7   8
HETATM    8  C   UNL     1     -12.117  11.017  69.947  1.00  0.00    -0.361 A  
HETATM    9  N   UNL     1     -12.026  11.968  69.019  1.00  0.00    -0.295 NA 
HETATM   10  N   UNL     1     -10.750  11.848  68.581  1.00  0.00    -0.228 NA 
HETATM   11  C   UNL     1      -9.162   8.828  70.897  1.00  0.00    -0.261 A  
HETATM   12  C   UNL     1     -10.027  10.872  69.238  1.00  0.00    -0.113 A  
HETATM   13  C   UNL     1      -8.703  10.424  69.117  1.00  0.00    -0.173 A  
HETATM   14  C   UNL     1     -10.913  10.318  70.159  1.00  0.00    -0.377 A  
HETATM   15  C   UNL     1     -10.481   9.280  71.005  1.00  0.00    -0.384 A  
HETATM   16  C   UNL     1      -8.290   9.390  69.966  1.00  0.00    -0.190 A  
BRANCH  10  17
HETATM   17  C   UNL     1     -10.261  12.772  67.565  1.00  0.00    -0.216 C  
BRANCH  17  18
HETATM   18  C   UNL     1     -10.702  12.386  66.173  1.00  0.00    -0.292 A  
HETATM   19  C   UNL     1     -10.073  11.340  65.480  1.00  0.00    -0.306 A  
HETATM   20  C   UNL     1     -11.530  11.680  63.583  1.00  0.00    -0.458 A  
HETATM   21  C   UNL     1     -12.181  12.703  64.270  1.00  0.00    -0.524 A  
HETATM   22  C   UNL     1     -10.480  10.994  64.190  1.00  0.00    -0.434 A  
HETATM   23  C   UNL     1     -11.774  13.052  65.559  1.00  0.00    -0.408 A  
ENDBRANCH  17  18
ENDBRANCH  10  17
ENDBRANCH   7   8
ENDBRANCH   6   7
ENDBRANCH   5   6
ENDBRANCH   4   5
ENDBRANCH   2   4
TORSDOF 7
ENDMDL
MODEL       40
REMARK 921   NORMALIZED FREE ENERGY PREDICTED BY IDOCK:   -5.82 KCAL/MOL
REMARK 922        TOTAL FREE ENERGY PREDICTED BY IDOCK:   -8.59 KCAL/MOL
REMARK 923 INTER-LIGAND FREE ENERGY PREDICTED BY IDOCK:   -8.72 KCAL/MOL
REMARK 924 INTRA-LIGAND FREE ENERGY PREDICTED BY IDOCK:    0.13 KCAL/MOL
REMARK 927      BINDING AFFINITY PREDICTED BY RF-SCORE:    0.00 PKD
ROOT
HETATM    1  C   UNL     1     -12.064  12.464  63.528  1.00  0.00    -0.558 C  
HETATM    2  N   UNL     1     -11.693  13.369  64.621  1.00  0.00    -0.355 NA 
HETATM    3  C   UNL     1     -12.466  14.607  64.513  1.00  0.00    -0.292 C  
ENDROOT
BRANCH   2   4
HETATM    4  C   UNL     1     -11.898  12.689  65.914  1.00  0.00    -0.444 C  
BRANCH   4   5
HETATM    5  C   UNL     1     -10.654  11.967  66.436  1.00  0.00    -0.284 C  
BRANCH   5   6
HETATM    6  C   UNL     1     -11.035  10.860  67.414  1.00  0.00    -0.293 C  
BRANCH   6   7
HETATM    7  O   UNL     1     -10.418  11.164  68.667  1.00  0.00    -0.181 OA 
BRANCH   7   8
HETATM    8  C   UNL     1     -11.272  11.120  69.712  1.00  0.00    -0.245 A  
HETATM    9  N   UNL     1     -11.918  12.217  70.104  1.00  0.00    -0.345 NA 
HETATM   10  N   UNL     1     -12.637  11.784  71.167  1.00  0.00    -0.361 NA 
HETATM   11  C   UNL     1     -11.774   7.759  71.408  1.00  0.00    -0.310 A  
HETATM   12  C   UNL     1     -12.489  10.436  71.427  1.00  0.00    -0.415 A  
HETATM   13  C   UNL     1     -13.039   9.588  72.399  1.00  0.00    -0.430 A  
HETATM   14  C   UNL     1     -11.596   9.974  70.462  1.00  0.00    -0.403 A  
HETATM   15  C   UNL     1     -11.229   8.616  70.446  1.00  0.00    -0.236 A  
HETATM   16  C   UNL     1     -12.663   8.240  72.369  1.00  0.00    -0.287 A  
BRANCH  10  17
HETATM   17  C   UNL     1     -13.521  12.721  71.851  1.00  0.00    -0.358 C  
BRANCH  17  18
HETATM   18  C   UNL     1     -12.875  14.067  72.075  1.00  0.00    -0.415 A  
HETATM   19  C   UNL     1     -12.999  14.732  73.306  1.00  0.00    -0.608 A  
HETATM   20  C   UNL     1     -11.670  16.572  72.480  1.00  0.00    -0.350 A  
HETATM   21  C   UNL     1     -11.517  15.911  71.262  1.00  0.00    -0.489 A  
HETATM   22  C   UNL     1     -12.405  15.979  73.503  1.00  0.00    -0.671 A  
HETATM   23  C   UNL     1     -12.111  14.665  71.061  1.00  0.00    -0.393 A  
ENDBRANCH  17  18
ENDBRANCH  10  17
ENDBRANCH   7   8
ENDBRANCH   6   7
ENDBRANCH   5   6
ENDBRANCH   4   5
ENDBRANCH   2   4
TORSDOF 7
ENDMDL
MODEL       41
REMARK 921   NORMALIZED FREE ENERGY PREDICTED BY IDOCK:   -5.81 KCAL/MOL
REMARK 922        TOTAL FREE ENERGY PREDICTED BY IDOCK:   -8.57 KCAL/MOL
REMARK 923 INTER-LIGAND FREE ENERGY PREDICTED BY IDOCK:   -7.74 KCAL/MOL
REMARK 924 INTRA-LIGAND FREE ENERGY PREDICTED BY IDOCK:   -0.83 KCAL/MOL
REMARK 927      BINDING AFFINITY PREDICTED BY RF-SCORE:    0.00 PKD
ROOT
HETATM    1  C   UNL     1     -11.400   6.361  70.187  1.00  0.00    -0.420 C  
HETATM    2  N   UNL     1     -11.129   7.628  70.873  1.00  0.00    -0.258 NA 
HETATM    3  C   UNL     1      -9.999   7.456  71.789  1.00  0.00    -0.171 C  
ENDROOT
BRANCH   2   4
HETATM    4  C   UNL     1     -10.888   8.687  69.876  1.00  0.00    -0.208 C  
BRANCH   4   5
HETATM    5  C   UNL     1     -10.917  10.103  70.458  1.00  0.00    -0.380 C  
BRANCH   5   6
HETATM    6  C   UNL     1     -12.155  10.861  69.990  1.00  0.00    -0.355 C  
BRANCH   6   7
HETATM    7  O   UNL     1     -12.054  11.012  68.573  1.00  0.00    -0.573 OA 
BRANCH   7   8
HETATM    8  C   UNL     1     -11.899  12.294  68.178  1.00  0.00    -0.311 A  
HETATM    9  N   UNL     1     -11.958  13.286  69.065  1.00  0.00    -0.311 NA 
HETATM   10  N   UNL     1     -11.788  14.390  68.299  1.00  0.00    -0.334 NA 
HETATM   11  C   UNL     1     -11.240  12.911  64.489  1.00  0.00    -0.372 A  
HETATM   12  C   UNL     1     -11.585  14.114  66.961  1.00  0.00    -0.382 A  
HETATM   13  C   UNL     1     -11.362  14.931  65.844  1.00  0.00    -0.306 A  
HETATM   14  C   UNL     1     -11.641  12.725  66.863  1.00  0.00    -0.428 A  
HETATM   15  C   UNL     1     -11.467  12.108  65.611  1.00  0.00    -0.408 A  
HETATM   16  C   UNL     1     -11.191  14.300  64.605  1.00  0.00    -0.370 A  
BRANCH  10  17
HETATM   17  C   UNL     1     -11.754  15.699  68.943  1.00  0.00    -0.384 C  
BRANCH  17  18
HETATM   18  C   UNL     1     -10.440  16.412  68.733  1.00  0.00    -0.300 A  
HETATM   19  C   UNL     1     -10.396  17.692  68.157  1.00  0.00    -0.386 A  
HETATM   20  C   UNL     1      -7.988  17.728  68.347  1.00  0.00    -0.293 A  
HETATM   21  C   UNL     1      -8.019  16.469  68.945  1.00  0.00    -0.239 A  
HETATM   22  C   UNL     1      -9.177  18.342  67.960  1.00  0.00    -0.300 A  
HETATM   23  C   UNL     1      -9.236  15.815  69.141  1.00  0.00    -0.256 A  
ENDBRANCH  17  18
ENDBRANCH  10  17
ENDBRANCH   7   8
ENDBRANCH   6   7
ENDBRANCH   5   6
ENDBRANCH   4   5
ENDBRANCH   2   4
TORSDOF 7
ENDMDL
MODEL       42
REMARK 921   NORMALIZED FREE ENERGY PREDICTED BY IDOCK:   -5.80 KCAL/MOL
REMARK 922        TOTAL FREE ENERGY PREDICTED BY IDOCK:   -8.56 KCAL/MOL
REMARK 923 INTER-LIGAND FREE ENERGY PREDICTED BY IDOCK:   -7.71 KCAL/MOL
REMARK 924 INTRA-LIGAND FREE ENERGY PREDICTED BY IDOCK:   -0.85 KCAL/MOL
REMARK 927      BINDING AFFINITY PREDICTED BY RF-SCORE:    0.00 PKD
ROOT
HETATM    1  C   UNL     1     -10.173  19.897  68.468  1.00  0.00    -0.409 C  
HETATM    2  N   UNL     1     -10.806  19.208  67.338  1.00  0.00    -0.481 NA 
HETATM    3  C   UNL     1     -10.365  19.822  66.084  1.00  0.00    -0.524 C  
ENDROOT
BRANCH   2   4
HETATM    4  C   UNL     1     -10.493  17.769  67.399  1.00  0.00    -0.364 C  
BRANCH   4   5
HETATM    5  C   UNL     1      -9.830  17.335  68.709  1.00  0.00    -0.306 C  
BRANCH   5   6
HETATM    6  C   UNL     1     -10.535  16.120  69.302  1.00  0.00    -0.267 C  
BRANCH   6   7
HETATM    7  O   UNL     1     -11.606  15.774  68.422  1.00  0.00    -0.373 OA 
BRANCH   7   8
HETATM    8  C   UNL     1     -11.619  14.469  68.077  1.00  0.00    -0.336 A  
HETATM    9  N   UNL     1     -11.841  13.530  68.995  1.00  0.00    -0.326 NA 
HETATM   10  N   UNL     1     -11.751  12.380  68.284  1.00  0.00    -0.332 NA 
HETATM   11  C   UNL     1     -11.062  13.629  64.415  1.00  0.00    -0.378 A  
HETATM   12  C   UNL     1     -11.518  12.576  66.937  1.00  0.00    -0.353 A  
HETATM   13  C   UNL     1     -11.367  11.692  65.859  1.00  0.00    -0.262 A  
HETATM   14  C   UNL     1     -11.441  13.958  66.777  1.00  0.00    -0.369 A  
HETATM   15  C   UNL     1     -11.210  14.500  65.500  1.00  0.00    -0.335 A  
HETATM   16  C   UNL     1     -11.137  12.248  64.594  1.00  0.00    -0.358 A  
BRANCH  10  17
HETATM   17  C   UNL     1     -11.982  11.109  68.962  1.00  0.00    -0.320 C  
BRANCH  17  18
HETATM   18  C   UNL     1     -10.706  10.494  69.486  1.00  0.00    -0.291 A  
HETATM   19  C   UNL     1      -9.465  10.801  68.906  1.00  0.00    -0.190 A  
HETATM   20  C   UNL     1      -8.341   9.342  70.469  1.00  0.00    -0.233 A  
HETATM   21  C   UNL     1      -9.563   9.050  71.072  1.00  0.00    -0.348 A  
HETATM   22  C   UNL     1      -8.291  10.222  69.391  1.00  0.00    -0.169 A  
HETATM   23  C   UNL     1     -10.739   9.625  70.587  1.00  0.00    -0.388 A  
ENDBRANCH  17  18
ENDBRANCH  10  17
ENDBRANCH   7   8
ENDBRANCH   6   7
ENDBRANCH   5   6
ENDBRANCH   4   5
ENDBRANCH   2   4
TORSDOF 7
ENDMDL
MODEL       43
REMARK 921   NORMALIZED FREE ENERGY PREDICTED BY IDOCK:   -5.79 KCAL/MOL
REMARK 922        TOTAL FREE ENERGY PREDICTED BY IDOCK:   -8.55 KCAL/MOL
REMARK 923 INTER-LIGAND FREE ENERGY PREDICTED BY IDOCK:   -7.66 KCAL/MOL
REMARK 924 INTRA-LIGAND FREE ENERGY PREDICTED BY IDOCK:   -0.89 KCAL/MOL
REMARK 927      BINDING AFFINITY PREDICTED BY RF-SCORE:    0.00 PKD
ROOT
HETATM    1  C   UNL     1     -13.961  13.734  72.230  1.00  0.00    -0.573 C  
HETATM    2  N   UNL     1     -13.327  15.029  71.960  1.00  0.00    -0.347 NA 
HETATM    3  C   UNL     1     -13.264  15.808  73.198  1.00  0.00    -0.591 C  
ENDROOT
BRANCH   2   4
HETATM    4  C   UNL     1     -11.996  14.812  71.364  1.00  0.00    -0.345 C  
BRANCH   4   5
HETATM    5  C   UNL     1     -11.500  15.985  70.516  1.00  0.00    -0.409 C  
BRANCH   5   6
HETATM    6  C   UNL     1     -10.984  15.503  69.164  1.00  0.00    -0.259 C  
BRANCH   6   7
HETATM    7  O   UNL     1     -12.113  15.066  68.405  1.00  0.00    -0.242 OA 
BRANCH   7   8
HETATM    8  C   UNL     1     -11.909  13.898  67.760  1.00  0.00    -0.380 A  
HETATM    9  N   UNL     1     -11.667  12.781  68.444  1.00  0.00    -0.322 NA 
HETATM   10  N   UNL     1     -11.496  11.857  67.470  1.00  0.00    -0.382 NA 
HETATM   11  C   UNL     1     -12.117  13.945  63.968  1.00  0.00    -0.437 A  
HETATM   12  C   UNL     1     -11.663  12.357  66.193  1.00  0.00    -0.400 A  
HETATM   13  C   UNL     1     -11.588  11.768  64.923  1.00  0.00    -0.226 A  
HETATM   14  C   UNL     1     -11.952  13.709  66.365  1.00  0.00    -0.466 A  
HETATM   15  C   UNL     1     -12.183  14.521  65.241  1.00  0.00    -0.321 A  
HETATM   16  C   UNL     1     -11.821  12.590  63.814  1.00  0.00    -0.577 A  
BRANCH  10  17
HETATM   17  C   UNL     1     -11.245  10.470  67.846  1.00  0.00    -0.289 C  
BRANCH  17  18
HETATM   18  C   UNL     1      -9.976   9.926  67.236  1.00  0.00    -0.245 A  
HETATM   19  C   UNL     1     -10.003   8.800  66.396  1.00  0.00    -0.346 A  
HETATM   20  C   UNL     1      -7.607   8.921  66.109  1.00  0.00    -0.091 A  
HETATM   21  C   UNL     1      -7.569  10.055  66.918  1.00  0.00    -0.096 A  
HETATM   22  C   UNL     1      -8.824   8.298  65.843  1.00  0.00    -0.197 A  
HETATM   23  C   UNL     1      -8.746  10.557  67.476  1.00  0.00    -0.125 A  
ENDBRANCH  17  18
ENDBRANCH  10  17
ENDBRANCH   7   8
ENDBRANCH   6   7
ENDBRANCH   5   6
ENDBRANCH   4   5
ENDBRANCH   2   4
TORSDOF 7
ENDMDL
MODEL       44
REMARK 921   NORMALIZED FREE ENERGY PREDICTED BY IDOCK:   -5.79 KCAL/MOL
REMARK 922        TOTAL FREE ENERGY PREDICTED BY IDOCK:   -8.55 KCAL/MOL
REMARK 923 INTER-LIGAND FREE ENERGY PREDICTED BY IDOCK:   -7.74 KCAL/MOL
REMARK 924 INTRA-LIGAND FREE ENERGY PREDICTED BY IDOCK:   -0.80 KCAL/MOL
REMARK 927      BINDING AFFINITY PREDICTED BY RF-SCORE:    0.00 PKD
ROOT
HETATM    1  C   UNL     1      -9.296   8.140  71.085  1.00  0.00    -0.154 C  
HETATM    2  N   UNL     1     -10.439   7.455  71.698  1.00  0.00    -0.198 NA 
HETATM    3  C   UNL     1     -10.443   7.710  73.140  1.00  0.00    -0.374 C  
ENDROOT
BRANCH   2   4
HETATM    4  C   UNL     1     -11.686   7.895  71.046  1.00  0.00    -0.277 C  
BRANCH   4   5
HETATM    5  C   UNL     1     -12.472   8.932  71.851  1.00  0.00    -0.445 C  
BRANCH   5   6
HETATM    6  C   UNL     1     -12.882  10.110  70.973  1.00  0.00    -0.382 C  
BRANCH   6   7
HETATM    7  O   UNL     1     -11.693  10.821  70.627  1.00  0.00    -0.325 OA 
BRANCH   7   8
HETATM    8  C   UNL     1     -11.920  12.094  70.239  1.00  0.00    -0.305 A  
HETATM    9  N   UNL     1     -11.528  12.515  69.038  1.00  0.00    -0.284 NA 
HETATM   10  N   UNL     1     -11.902  13.817  69.034  1.00  0.00    -0.338 NA 
HETATM   11  C   UNL     1     -13.756  14.354  72.678  1.00  0.00    -0.546 A  
HETATM   12  C   UNL     1     -12.553  14.213  70.185  1.00  0.00    -0.268 A  
HETATM   13  C   UNL     1     -13.106  15.435  70.594  1.00  0.00    -0.405 A  
HETATM   14  C   UNL     1     -12.588  13.078  70.993  1.00  0.00    -0.386 A  
HETATM   15  C   UNL     1     -13.197  13.142  72.259  1.00  0.00    -0.555 A  
HETATM   16  C   UNL     1     -13.708  15.481  71.858  1.00  0.00    -0.593 A  
BRANCH  10  17
HETATM   17  C   UNL     1     -11.665  14.617  67.837  1.00  0.00    -0.351 C  
BRANCH  17  18
HETATM   18  C   UNL     1     -10.575  15.643  68.034  1.00  0.00    -0.271 A  
HETATM   19  C   UNL     1     -10.761  16.978  67.641  1.00  0.00    -0.295 A  
HETATM   20  C   UNL     1      -8.539  17.542  68.402  1.00  0.00    -0.275 A  
HETATM   21  C   UNL     1      -8.351  16.227  68.822  1.00  0.00    -0.235 A  
HETATM   22  C   UNL     1      -9.745  17.920  67.818  1.00  0.00    -0.283 A  
HETATM   23  C   UNL     1      -9.363  15.283  68.643  1.00  0.00    -0.201 A  
ENDBRANCH  17  18
ENDBRANCH  10  17
ENDBRANCH   7   8
ENDBRANCH   6   7
ENDBRANCH   5   6
ENDBRANCH   4   5
ENDBRANCH   2   4
TORSDOF 7
ENDMDL
MODEL       45
REMARK 921   NORMALIZED FREE ENERGY PREDICTED BY IDOCK:   -5.78 KCAL/MOL
REMARK 922        TOTAL FREE ENERGY PREDICTED BY IDOCK:   -8.54 KCAL/MOL
REMARK 923 INTER-LIGAND FREE ENERGY PREDICTED BY IDOCK:   -7.86 KCAL/MOL
REMARK 924 INTRA-LIGAND FREE ENERGY PREDICTED BY IDOCK:   -0.68 KCAL/MOL
REMARK 927      BINDING AFFINITY PREDICTED BY RF-SCORE:    0.00 PKD
ROOT
HETATM    1  C   UNL     1      -7.360  21.207  67.111  1.00  0.00    -0.135 C  
HETATM    2  N   UNL     1      -8.328  20.135  67.370  1.00  0.00    -0.330 NA 
HETATM    3  C   UNL     1      -9.667  20.585  66.986  1.00  0.00    -0.408 C  
ENDROOT
BRANCH   2   4
HETATM    4  C   UNL     1      -7.917  18.915  66.651  1.00  0.00    -0.270 C  
BRANCH   4   5
HETATM    5  C   UNL     1      -8.968  17.803  66.671  1.00  0.00    -0.283 C  
BRANCH   5   6
HETATM    6  C   UNL     1      -8.766  16.882  67.870  1.00  0.00    -0.213 C  
BRANCH   6   7
HETATM    7  O   UNL     1      -8.463  15.581  67.365  1.00  0.00    -0.160 OA 
BRANCH   7   8
HETATM    8  C   UNL     1      -9.477  14.700  67.504  1.00  0.00    -0.198 A  
HETATM    9  N   UNL     1      -9.707  14.114  68.678  1.00  0.00    -0.219 NA 
HETATM   10  N   UNL     1     -10.759  13.303  68.415  1.00  0.00    -0.250 NA 
HETATM   11  C   UNL     1     -11.639  14.036  64.453  1.00  0.00    -0.385 A  
HETATM   12  C   UNL     1     -11.220  13.395  67.116  1.00  0.00    -0.302 A  
HETATM   13  C   UNL     1     -12.265  12.760  66.430  1.00  0.00    -0.242 A  
HETATM   14  C   UNL     1     -10.390  14.328  66.499  1.00  0.00    -0.278 A  
HETATM   15  C   UNL     1     -10.597  14.659  65.147  1.00  0.00    -0.441 A  
HETATM   16  C   UNL     1     -12.457  13.100  65.085  1.00  0.00    -0.539 A  
BRANCH  10  17
HETATM   17  C   UNL     1     -11.330  12.511  69.498  1.00  0.00    -0.171 C  
BRANCH  17  18
HETATM   18  C   UNL     1     -12.212  13.329  70.411  1.00  0.00    -0.404 A  
HETATM   19  C   UNL     1     -12.367  14.711  70.216  1.00  0.00    -0.406 A  
HETATM   20  C   UNL     1     -13.851  14.842  72.117  1.00  0.00    -0.578 A  
HETATM   21  C   UNL     1     -13.728  13.466  72.305  1.00  0.00    -0.705 A  
HETATM   22  C   UNL     1     -13.177  15.463  71.069  1.00  0.00    -0.560 A  
HETATM   23  C   UNL     1     -12.916  12.713  71.456  1.00  0.00    -0.380 A  
ENDBRANCH  17  18
ENDBRANCH  10  17
ENDBRANCH   7   8
ENDBRANCH   6   7
ENDBRANCH   5   6
ENDBRANCH   4   5
ENDBRANCH   2   4
TORSDOF 7
ENDMDL
MODEL       46
REMARK 921   NORMALIZED FREE ENERGY PREDICTED BY IDOCK:   -5.76 KCAL/MOL
REMARK 922        TOTAL FREE ENERGY PREDICTED BY IDOCK:   -8.51 KCAL/MOL
REMARK 923 INTER-LIGAND FREE ENERGY PREDICTED BY IDOCK:   -7.62 KCAL/MOL
REMARK 924 INTRA-LIGAND FREE ENERGY PREDICTED BY IDOCK:   -0.89 KCAL/MOL
REMARK 927      BINDING AFFINITY PREDICTED BY RF-SCORE:    0.00 PKD
ROOT
HETATM    1  C   UNL     1      -9.051  17.363  68.571  1.00  0.00    -0.273 C  
HETATM    2  N   UNL     1     -10.457  17.650  68.268  1.00  0.00    -0.380 NA 
HETATM    3  C   UNL     1     -10.545  18.358  66.989  1.00  0.00    -0.366 C  
ENDROOT
BRANCH   2   4
HETATM    4  C   UNL     1     -11.228  16.393  68.269  1.00  0.00    -0.300 C  
BRANCH   4   5
HETATM    5  C   UNL     1     -10.543  15.248  69.019  1.00  0.00    -0.245 C  
BRANCH   5   6
HETATM    6  C   UNL     1     -11.535  14.136  69.342  1.00  0.00    -0.288 C  
BRANCH   6   7
HETATM    7  O   UNL     1     -12.157  13.748  68.115  1.00  0.00    -0.364 OA 
BRANCH   7   8
HETATM    8  C   UNL     1     -11.471  12.799  67.441  1.00  0.00    -0.340 A  
HETATM    9  N   UNL     1     -10.629  11.990  68.081  1.00  0.00    -0.202 NA 
HETATM   10  N   UNL     1     -10.131  11.218  67.086  1.00  0.00    -0.189 NA 
HETATM   11  C   UNL     1     -12.101  12.520  63.706  1.00  0.00    -0.615 A  
HETATM   12  C   UNL     1     -10.668  11.496  65.845  1.00  0.00    -0.272 A  
HETATM   13  C   UNL     1     -10.453  10.950  64.571  1.00  0.00    -0.393 A  
HETATM   14  C   UNL     1     -11.571  12.535  66.062  1.00  0.00    -0.456 A  
HETATM   15  C   UNL     1     -12.302  13.059  64.981  1.00  0.00    -0.526 A  
HETATM   16  C   UNL     1     -11.189  11.484  63.506  1.00  0.00    -0.412 A  
BRANCH  10  17
HETATM   17  C   UNL     1      -9.181  10.162  67.419  1.00  0.00    -0.141 C  
BRANCH  17  18
HETATM   18  C   UNL     1      -9.864   8.869  67.794  1.00  0.00    -0.208 A  
HETATM   19  C   UNL     1     -10.197   7.918  66.816  1.00  0.00    -0.358 A  
HETATM   20  C   UNL     1     -11.135   6.467  68.505  1.00  0.00    -0.385 A  
HETATM   21  C   UNL     1     -10.786   7.390  69.489  1.00  0.00    -0.233 A  
HETATM   22  C   UNL     1     -10.835   6.728  67.170  1.00  0.00    -0.462 A  
HETATM   23  C   UNL     1     -10.150   8.582  69.137  1.00  0.00    -0.207 A  
ENDBRANCH  17  18
ENDBRANCH  10  17
ENDBRANCH   7   8
ENDBRANCH   6   7
ENDBRANCH   5   6
ENDBRANCH   4   5
ENDBRANCH   2   4
TORSDOF 7
ENDMDL
MODEL       47
REMARK 921   NORMALIZED FREE ENERGY PREDICTED BY IDOCK:   -5.75 KCAL/MOL
REMARK 922        TOTAL FREE ENERGY PREDICTED BY IDOCK:   -8.50 KCAL/MOL
REMARK 923 INTER-LIGAND FREE ENERGY PREDICTED BY IDOCK:   -7.67 KCAL/MOL
REMARK 924 INTRA-LIGAND FREE ENERGY PREDICTED BY IDOCK:   -0.82 KCAL/MOL
REMARK 927      BINDING AFFINITY PREDICTED BY RF-SCORE:    0.00 PKD
ROOT
HETATM    1  C   UNL     1      -8.347  19.171  68.587  1.00  0.00    -0.368 C  
HETATM    2  N   UNL     1      -9.790  19.100  68.335  1.00  0.00    -0.378 NA 
HETATM    3  C   UNL     1     -10.160  20.103  67.335  1.00  0.00    -0.416 C  
ENDROOT
BRANCH   2   4
HETATM    4  C   UNL     1     -10.150  17.732  67.918  1.00  0.00    -0.342 C  
BRANCH   4   5
HETATM    5  C   UNL     1     -10.595  16.831  69.073  1.00  0.00    -0.343 C  
BRANCH   5   6
HETATM    6  C   UNL     1      -9.581  15.720  69.321  1.00  0.00    -0.270 C  
BRANCH   6   7
HETATM    7  O   UNL     1      -9.121  15.268  68.046  1.00  0.00    -0.173 OA 
BRANCH   7   8
HETATM    8  C   UNL     1      -9.727  14.137  67.625  1.00  0.00    -0.228 A  
HETATM    9  N   UNL     1      -9.558  12.993  68.287  1.00  0.00    -0.222 NA 
HETATM   10  N   UNL     1     -10.285  12.110  67.560  1.00  0.00    -0.197 NA 
HETATM   11  C   UNL     1     -11.945  14.392  64.552  1.00  0.00    -0.487 A  
HETATM   12  C   UNL     1     -10.936  12.679  66.483  1.00  0.00    -0.269 A  
HETATM   13  C   UNL     1     -11.780  12.152  65.495  1.00  0.00    -0.384 A  
HETATM   14  C   UNL     1     -10.589  14.028  66.518  1.00  0.00    -0.279 A  
HETATM   15  C   UNL     1     -11.098  14.903  65.541  1.00  0.00    -0.353 A  
HETATM   16  C   UNL     1     -12.277  13.037  64.531  1.00  0.00    -0.476 A  
BRANCH  10  17
HETATM   17  C   UNL     1     -10.372  10.726  68.011  1.00  0.00    -0.182 C  
BRANCH  17  18
HETATM   18  C   UNL     1     -11.139  10.588  69.305  1.00  0.00    -0.298 A  
HETATM   19  C   UNL     1     -10.946   9.478  70.143  1.00  0.00    -0.302 A  
HETATM   20  C   UNL     1     -12.572  10.339  71.708  1.00  0.00    -0.488 A  
HETATM   21  C   UNL     1     -12.754  11.459  70.899  1.00  0.00    -0.397 A  
HETATM   22  C   UNL     1     -11.664   9.352  71.334  1.00  0.00    -0.448 A  
HETATM   23  C   UNL     1     -12.039  11.586  69.706  1.00  0.00    -0.374 A  
ENDBRANCH  17  18
ENDBRANCH  10  17
ENDBRANCH   7   8
ENDBRANCH   6   7
ENDBRANCH   5   6
ENDBRANCH   4   5
ENDBRANCH   2   4
TORSDOF 7
ENDMDL
MODEL       48
REMARK 921   NORMALIZED FREE ENERGY PREDICTED BY IDOCK:   -5.75 KCAL/MOL
REMARK 922        TOTAL FREE ENERGY PREDICTED BY IDOCK:   -8.49 KCAL/MOL
REMARK 923 INTER-LIGAND FREE ENERGY PREDICTED BY IDOCK:   -7.69 KCAL/MOL
REMARK 924 INTRA-LIGAND FREE ENERGY PREDICTED BY IDOCK:   -0.79 KCAL/MOL
REMARK 927      BINDING AFFINITY PREDICTED BY RF-SCORE:    0.00 PKD
ROOT
HETATM    1  C   UNL     1     -11.992  15.839  70.980  1.00  0.00    -0.419 C  
HETATM    2  N   UNL     1     -12.309  14.437  71.273  1.00  0.00    -0.341 NA 
HETATM    3  C   UNL     1     -13.588  14.364  71.983  1.00  0.00    -0.424 C  
ENDROOT
BRANCH   2   4
HETATM    4  C   UNL     1     -12.317  13.661  70.020  1.00  0.00    -0.278 C  
BRANCH   4   5
HETATM    5  C   UNL     1     -11.929  12.191  70.200  1.00  0.00    -0.394 C  
BRANCH   5   6
HETATM    6  C   UNL     1     -11.064  11.708  69.040  1.00  0.00    -0.241 C  
BRANCH   6   7
HETATM    7  O   UNL     1     -11.936  11.415  67.948  1.00  0.00    -0.626 OA 
BRANCH   7   8
HETATM    8  C   UNL     1     -11.570  12.008  66.792  1.00  0.00    -0.321 A  
HETATM    9  N   UNL     1     -11.896  13.277  66.550  1.00  0.00    -0.380 NA 
HETATM   10  N   UNL     1     -11.387  13.493  65.314  1.00  0.00    -0.287 NA 
HETATM   11  C   UNL     1      -9.545   9.935  64.336  1.00  0.00    -0.257 A  
HETATM   12  C   UNL     1     -10.716  12.405  64.790  1.00  0.00    -0.298 A  
HETATM   13  C   UNL     1     -10.044  12.195  63.578  1.00  0.00    -0.410 A  
HETATM   14  C   UNL     1     -10.814  11.413  65.764  1.00  0.00    -0.290 A  
HETATM   15  C   UNL     1     -10.222  10.157  65.540  1.00  0.00    -0.288 A  
HETATM   16  C   UNL     1      -9.461  10.938  63.371  1.00  0.00    -0.339 A  
BRANCH  10  17
HETATM   17  C   UNL     1     -11.518  14.817  64.716  1.00  0.00    -0.410 C  
BRANCH  17  18
HETATM   18  C   UNL     1     -10.640  15.845  65.390  1.00  0.00    -0.439 A  
HETATM   19  C   UNL     1      -9.461  15.466  66.051  1.00  0.00    -0.381 A  
HETATM   20  C   UNL     1      -9.017  17.766  66.642  1.00  0.00    -0.283 A  
HETATM   21  C   UNL     1     -10.171  18.159  65.966  1.00  0.00    -0.325 A  
HETATM   22  C   UNL     1      -8.659  16.420  66.679  1.00  0.00    -0.295 A  
HETATM   23  C   UNL     1     -10.976  17.206  65.340  1.00  0.00     0.034 A  
ENDBRANCH  17  18
ENDBRANCH  10  17
ENDBRANCH   7   8
ENDBRANCH   6   7
ENDBRANCH   5   6
ENDBRANCH   4   5
ENDBRANCH   2   4
TORSDOF 7
ENDMDL
MODEL       49
REMARK 921   NORMALIZED FREE ENERGY PREDICTED BY IDOCK:   -5.72 KCAL/MOL
REMARK 922        TOTAL FREE ENERGY PREDICTED BY IDOCK:   -8.45 KCAL/MOL
REMARK 923 INTER-LIGAND FREE ENERGY PREDICTED BY IDOCK:   -7.93 KCAL/MOL
REMARK 924 INTRA-LIGAND FREE ENERGY PREDICTED BY IDOCK:   -0.52 KCAL/MOL
REMARK 927      BINDING AFFINITY PREDICTED BY RF-SCORE:    0.00 PKD
ROOT
HETATM    1  C   UNL     1     -12.314  11.916  63.379  1.00  0.00    -0.462 C  
HETATM    2  N   UNL     1     -11.044  11.668  64.071  1.00  0.00    -0.373 NA 
HETATM    3  C   UNL     1      -9.964  11.572  63.087  1.00  0.00    -0.377 C  
ENDROOT
BRANCH   2   4
HETATM    4  C   UNL     1     -10.808  12.731  65.064  1.00  0.00    -0.292 C  
BRANCH   4   5
HETATM    5  C   UNL     1     -11.885  12.816  66.148  1.00  0.00    -0.484 C  
BRANCH   5   6
HETATM    6  C   UNL     1     -11.314  12.459  67.516  1.00  0.00    -0.315 C  
BRANCH   6   7
HETATM    7  O   UNL     1     -12.284  12.831  68.496  1.00  0.00    -0.182 OA 
BRANCH   7   8
HETATM    8  C   UNL     1     -11.974  13.968  69.156  1.00  0.00    -0.360 A  
HETATM    9  N   UNL     1     -11.316  14.949  68.540  1.00  0.00    -0.283 NA 
HETATM   10  N   UNL     1     -11.175  15.880  69.513  1.00  0.00    -0.300 NA 
HETATM   11  C   UNL     1     -13.106  14.247  72.770  1.00  0.00    -0.589 A  
HETATM   12  C   UNL     1     -11.762  15.525  70.712  1.00  0.00    -0.362 A  
HETATM   13  C   UNL     1     -11.862  16.174  71.951  1.00  0.00    -0.605 A  
HETATM   14  C   UNL     1     -12.310  14.264  70.491  1.00  0.00    -0.430 A  
HETATM   15  C   UNL     1     -12.995  13.609  71.531  1.00  0.00    -0.443 A  
HETATM   16  C   UNL     1     -12.547  15.508  72.976  1.00  0.00    -0.557 A  
BRANCH  10  17
HETATM   17  C   UNL     1     -10.520  17.143  69.194  1.00  0.00    -0.296 C  
BRANCH  17  18
HETATM   18  C   UNL     1      -9.106  16.953  68.699  1.00  0.00    -0.265 A  
HETATM   19  C   UNL     1      -8.572  17.784  67.702  1.00  0.00    -0.230 A  
HETATM   20  C   UNL     1      -6.475  16.587  67.785  1.00  0.00    -0.162 A  
HETATM   21  C   UNL     1      -6.984  15.772  68.795  1.00  0.00    -0.124 A  
HETATM   22  C   UNL     1      -7.267  17.597  67.244  1.00  0.00    -0.203 A  
HETATM   23  C   UNL     1      -8.290  15.955  69.252  1.00  0.00    -0.238 A  
ENDBRANCH  17  18
ENDBRANCH  10  17
ENDBRANCH   7   8
ENDBRANCH   6   7
ENDBRANCH   5   6
ENDBRANCH   4   5
ENDBRANCH   2   4
TORSDOF 7
ENDMDL
MODEL       50
REMARK 921   NORMALIZED FREE ENERGY PREDICTED BY IDOCK:   -5.71 KCAL/MOL
REMARK 922        TOTAL FREE ENERGY PREDICTED BY IDOCK:   -8.44 KCAL/MOL
REMARK 923 INTER-LIGAND FREE ENERGY PREDICTED BY IDOCK:   -7.48 KCAL/MOL
REMARK 924 INTRA-LIGAND FREE ENERGY PREDICTED BY IDOCK:   -0.95 KCAL/MOL
REMARK 927      BINDING AFFINITY PREDICTED BY RF-SCORE:    0.00 PKD
ROOT
HETATM    1  C   UNL     1     -10.030  19.695  68.829  1.00  0.00    -0.451 C  
HETATM    2  N   UNL     1     -10.705  19.313  67.584  1.00  0.00    -0.451 NA 
HETATM    3  C   UNL     1     -10.047  19.965  66.451  1.00  0.00    -0.499 C  
ENDROOT
BRANCH   2   4
HETATM    4  C   UNL     1     -10.715  17.844  67.459  1.00  0.00    -0.321 C  
BRANCH   4   5
HETATM    5  C   UNL     1     -10.010  17.120  68.609  1.00  0.00    -0.313 C  
BRANCH   5   6
HETATM    6  C   UNL     1     -10.893  16.019  69.185  1.00  0.00    -0.281 C  
BRANCH   6   7
HETATM    7  O   UNL     1     -11.890  15.714  68.208  1.00  0.00    -0.318 OA 
BRANCH   7   8
HETATM    8  C   UNL     1     -11.826  14.445  67.752  1.00  0.00    -0.368 A  
HETATM    9  N   UNL     1     -11.715  13.426  68.603  1.00  0.00    -0.328 NA 
HETATM   10  N   UNL     1     -11.656  12.349  67.784  1.00  0.00    -0.333 NA 
HETATM   11  C   UNL     1     -12.037  13.932  63.995  1.00  0.00    -0.437 A  
HETATM   12  C   UNL     1     -11.766  12.663  66.443  1.00  0.00    -0.405 A  
HETATM   13  C   UNL     1     -11.765  11.881  65.279  1.00  0.00    -0.232 A  
HETATM   14  C   UNL     1     -11.894  14.049  66.403  1.00  0.00    -0.437 A  
HETATM   15  C   UNL     1     -12.032  14.700  65.163  1.00  0.00    -0.334 A  
HETATM   16  C   UNL     1     -11.903  12.545  64.054  1.00  0.00    -0.510 A  
BRANCH  10  17
HETATM   17  C   UNL     1     -11.569  11.017  68.371  1.00  0.00    -0.302 C  
BRANCH  17  18
HETATM   18  C   UNL     1     -10.340  10.265  67.920  1.00  0.00    -0.234 A  
HETATM   19  C   UNL     1      -9.053  10.763  68.178  1.00  0.00    -0.151 A  
HETATM   20  C   UNL     1      -8.061   8.858  67.073  1.00  0.00    -0.109 A  
HETATM   21  C   UNL     1      -9.332   8.338  66.834  1.00  0.00    -0.222 A  
HETATM   22  C   UNL     1      -7.921  10.067  67.750  1.00  0.00    -0.105 A  
HETATM   23  C   UNL     1     -10.465   9.034  67.258  1.00  0.00    -0.343 A  
ENDBRANCH  17  18
ENDBRANCH  10  17
ENDBRANCH   7   8
ENDBRANCH   6   7
ENDBRANCH   5   6
ENDBRANCH   4   5
ENDBRANCH   2   4
TORSDOF 7
ENDMDL
MODEL       51
REMARK 921   NORMALIZED FREE ENERGY PREDICTED BY IDOCK:   -5.68 KCAL/MOL
REMARK 922        TOTAL FREE ENERGY PREDICTED BY IDOCK:   -8.39 KCAL/MOL
REMARK 923 INTER-LIGAND FREE ENERGY PREDICTED BY IDOCK:   -7.72 KCAL/MOL
REMARK 924 INTRA-LIGAND FREE ENERGY PREDICTED BY IDOCK:   -0.67 KCAL/MOL
REMARK 927      BINDING AFFINITY PREDICTED BY RF-SCORE:    0.00 PKD
ROOT
HETATM    1  C   UNL     1     -12.475  15.727  74.202  1.00  0.00    -0.655 C  
HETATM    2  N   UNL     1     -12.700  14.951  72.978  1.00  0.00    -0.432 NA 
HETATM    3  C   UNL     1     -14.000  15.306  72.407  1.00  0.00    -0.543 C  
ENDROOT
BRANCH   2   4
HETATM    4  C   UNL     1     -11.590  15.183  72.035  1.00  0.00    -0.412 C  
BRANCH   4   5
HETATM    5  C   UNL     1     -12.043  15.650  70.650  1.00  0.00    -0.443 C  
BRANCH   5   6
HETATM    6  C   UNL     1     -11.232  14.970  69.552  1.00  0.00    -0.276 C  
BRANCH   6   7
HETATM    7  O   UNL     1     -12.038  13.921  69.012  1.00  0.00    -0.349 OA 
BRANCH   7   8
HETATM    8  C   UNL     1     -11.545  12.687  69.249  1.00  0.00    -0.318 A  
HETATM    9  N   UNL     1     -10.524  12.218  68.534  1.00  0.00    -0.232 NA 
HETATM   10  N   UNL     1     -10.343  10.974  69.038  1.00  0.00    -0.214 NA 
HETATM   11  C   UNL     1     -13.149  10.680  72.046  1.00  0.00    -0.501 A  
HETATM   12  C   UNL     1     -11.199  10.666  70.077  1.00  0.00    -0.309 A  
HETATM   13  C   UNL     1     -11.353   9.524  70.876  1.00  0.00    -0.410 A  
HETATM   14  C   UNL     1     -11.997  11.796  70.242  1.00  0.00    -0.429 A  
HETATM   15  C   UNL     1     -12.988  11.811  71.239  1.00  0.00    -0.353 A  
HETATM   16  C   UNL     1     -12.345   9.555  71.865  1.00  0.00    -0.450 A  
BRANCH  10  17
HETATM   17  C   UNL     1      -9.259  10.150  68.517  1.00  0.00    -0.144 C  
BRANCH  17  18
HETATM   18  C   UNL     1      -9.118  10.261  67.017  1.00  0.00    -0.154 A  
HETATM   19  C   UNL     1      -7.852  10.273  66.410  1.00  0.00    -0.119 A  
HETATM   20  C   UNL     1      -8.868  10.472  64.228  1.00  0.00    -0.209 A  
HETATM   21  C   UNL     1     -10.132  10.435  64.815  1.00  0.00    -0.387 A  
HETATM   22  C   UNL     1      -7.729  10.384  65.024  1.00  0.00    -0.095 A  
HETATM   23  C   UNL     1     -10.257  10.327  66.201  1.00  0.00    -0.285 A  
ENDBRANCH  17  18
ENDBRANCH  10  17
ENDBRANCH   7   8
ENDBRANCH   6   7
ENDBRANCH   5   6
ENDBRANCH   4   5
ENDBRANCH   2   4
TORSDOF 7
ENDMDL
MODEL       52
REMARK 921   NORMALIZED FREE ENERGY PREDICTED BY IDOCK:   -5.68 KCAL/MOL
REMARK 922        TOTAL FREE ENERGY PREDICTED BY IDOCK:   -8.39 KCAL/MOL
REMARK 923 INTER-LIGAND FREE ENERGY PREDICTED BY IDOCK:   -7.81 KCAL/MOL
REMARK 924 INTRA-LIGAND FREE ENERGY PREDICTED BY IDOCK:   -0.58 KCAL/MOL
REMARK 927      BINDING AFFINITY PREDICTED BY RF-SCORE:    0.00 PKD
ROOT
HETATM    1  C   UNL     1      -8.725  19.378  67.712  1.00  0.00    -0.311 C  
HETATM    2  N   UNL     1     -10.165  19.388  67.431  1.00  0.00    -0.390 NA 
HETATM    3  C   UNL     1     -10.382  19.674  66.011  1.00  0.00    -0.523 C  
ENDROOT
BRANCH   2   4
HETATM    4  C   UNL     1     -10.756  18.102  67.842  1.00  0.00    -0.311 C  
BRANCH   4   5
HETATM    5  C   UNL     1      -9.806  17.214  68.649  1.00  0.00    -0.300 C  
BRANCH   5   6
HETATM    6  C   UNL     1      -9.931  15.754  68.227  1.00  0.00    -0.221 C  
BRANCH   6   7
HETATM    7  O   UNL     1     -11.323  15.440  68.178  1.00  0.00    -0.324 OA 
BRANCH   7   8
HETATM    8  C   UNL     1     -11.676  14.427  68.998  1.00  0.00    -0.310 A  
HETATM    9  N   UNL     1     -11.310  13.176  68.723  1.00  0.00    -0.272 NA 
HETATM   10  N   UNL     1     -11.861  12.466  69.737  1.00  0.00    -0.331 NA 
HETATM   11  C   UNL     1     -13.670  15.316  72.106  1.00  0.00    -0.598 A  
HETATM   12  C   UNL     1     -12.528  13.245  70.662  1.00  0.00    -0.298 A  
HETATM   13  C   UNL     1     -13.220  12.938  71.843  1.00  0.00    -0.521 A  
HETATM   14  C   UNL     1     -12.404  14.552  70.196  1.00  0.00    -0.398 A  
HETATM   15  C   UNL     1     -12.981  15.609  70.924  1.00  0.00    -0.471 A  
HETATM   16  C   UNL     1     -13.788  14.001  72.555  1.00  0.00    -0.610 A  
BRANCH  10  17
HETATM   17  C   UNL     1     -11.636  11.027  69.797  1.00  0.00    -0.325 C  
BRANCH  17  18
HETATM   18  C   UNL     1     -10.614  10.559  68.789  1.00  0.00    -0.233 A  
HETATM   19  C   UNL     1     -11.005  10.114  67.516  1.00  0.00    -0.319 A  
HETATM   20  C   UNL     1      -8.703   9.689  66.923  1.00  0.00    -0.139 A  
HETATM   21  C   UNL     1      -8.297  10.154  68.173  1.00  0.00    -0.117 A  
HETATM   22  C   UNL     1     -10.055   9.675  66.592  1.00  0.00    -0.307 A  
HETATM   23  C   UNL     1      -9.246  10.590  69.100  1.00  0.00    -0.183 A  
ENDBRANCH  17  18
ENDBRANCH  10  17
ENDBRANCH   7   8
ENDBRANCH   6   7
ENDBRANCH   5   6
ENDBRANCH   4   5
ENDBRANCH   2   4
TORSDOF 7
ENDMDL
MODEL       53
REMARK 921   NORMALIZED FREE ENERGY PREDICTED BY IDOCK:   -5.66 KCAL/MOL
REMARK 922        TOTAL FREE ENERGY PREDICTED BY IDOCK:   -8.36 KCAL/MOL
REMARK 923 INTER-LIGAND FREE ENERGY PREDICTED BY IDOCK:   -7.36 KCAL/MOL
REMARK 924 INTRA-LIGAND FREE ENERGY PREDICTED BY IDOCK:   -0.99 KCAL/MOL
REMARK 927      BINDING AFFINITY PREDICTED BY RF-SCORE:    0.00 PKD
ROOT
HETATM    1  C   UNL     1      -9.522   9.475  65.269  1.00  0.00    -0.258 C  
HETATM    2  N   UNL     1      -8.987  10.556  64.435  1.00  0.00    -0.200 NA 
HETATM    3  C   UNL     1      -7.634  10.209  63.995  1.00  0.00    -0.128 C  
ENDROOT
BRANCH   2   4
HETATM    4  C   UNL     1      -9.900  10.804  63.304  1.00  0.00    -0.346 C  
BRANCH   4   5
HETATM    5  C   UNL     1     -10.564  12.183  63.336  1.00  0.00    -0.454 C  
BRANCH   5   6
HETATM    6  C   UNL     1     -12.074  12.058  63.511  1.00  0.00    -0.526 C  
BRANCH   6   7
HETATM    7  O   UNL     1     -12.551  13.308  64.012  1.00  0.00    -0.645 OA 
BRANCH   7   8
HETATM    8  C   UNL     1     -12.140  13.576  65.270  1.00  0.00    -0.411 A  
HETATM    9  N   UNL     1     -12.347  12.698  66.250  1.00  0.00    -0.501 NA 
HETATM   10  N   UNL     1     -11.831  13.324  67.335  1.00  0.00    -0.368 NA 
HETATM   11  C   UNL     1     -10.345  16.873  65.850  1.00  0.00    -0.327 A  
HETATM   12  C   UNL     1     -11.271  14.555  67.053  1.00  0.00    -0.337 A  
HETATM   13  C   UNL     1     -10.634  15.515  67.851  1.00  0.00    -0.274 A  
HETATM   14  C   UNL     1     -11.454  14.734  65.683  1.00  0.00    -0.327 A  
HETATM   15  C   UNL     1     -10.987  15.908  65.066  1.00  0.00    -0.426 A  
HETATM   16  C   UNL     1     -10.175  16.678  67.220  1.00  0.00    -0.290 A  
BRANCH  10  17
HETATM   17  C   UNL     1     -11.841  12.635  68.620  1.00  0.00    -0.302 C  
BRANCH  17  18
HETATM   18  C   UNL     1     -10.634  11.747  68.809  1.00  0.00    -0.234 A  
HETATM   19  C   UNL     1      -9.374  12.127  68.320  1.00  0.00    -0.198 A  
HETATM   20  C   UNL     1      -8.397  10.086  69.166  1.00  0.00    -0.146 A  
HETATM   21  C   UNL     1      -9.636   9.709  69.681  1.00  0.00    -0.225 A  
HETATM   22  C   UNL     1      -8.265  11.297  68.492  1.00  0.00    -0.150 A  
HETATM   23  C   UNL     1     -10.748  10.535  69.508  1.00  0.00    -0.291 A  
ENDBRANCH  17  18
ENDBRANCH  10  17
ENDBRANCH   7   8
ENDBRANCH   6   7
ENDBRANCH   5   6
ENDBRANCH   4   5
ENDBRANCH   2   4
TORSDOF 7
ENDMDL
MODEL       54
REMARK 921   NORMALIZED FREE ENERGY PREDICTED BY IDOCK:   -5.65 KCAL/MOL
REMARK 922        TOTAL FREE ENERGY PREDICTED BY IDOCK:   -8.35 KCAL/MOL
REMARK 923 INTER-LIGAND FREE ENERGY PREDICTED BY IDOCK:   -7.57 KCAL/MOL
REMARK 924 INTRA-LIGAND FREE ENERGY PREDICTED BY IDOCK:   -0.78 KCAL/MOL
REMARK 927      BINDING AFFINITY PREDICTED BY RF-SCORE:    0.00 PKD
ROOT
HETATM    1  C   UNL     1      -9.184   7.070  67.565  1.00  0.00    -0.124 C  
HETATM    2  N   UNL     1     -10.273   6.721  68.484  1.00  0.00    -0.166 NA 
HETATM    3  C   UNL     1      -9.847   5.622  69.351  1.00  0.00    -0.175 C  
ENDROOT
BRANCH   2   4
HETATM    4  C   UNL     1     -10.676   7.916  69.248  1.00  0.00    -0.135 C  
BRANCH   4   5
HETATM    5  C   UNL     1     -10.492   9.230  68.484  1.00  0.00    -0.240 C  
BRANCH   5   6
HETATM    6  C   UNL     1     -10.622  10.428  69.419  1.00  0.00    -0.239 C  
BRANCH   6   7
HETATM    7  O   UNL     1      -9.798  11.471  68.895  1.00  0.00    -0.173 OA 
BRANCH   7   8
HETATM    8  C   UNL     1     -10.497  12.534  68.442  1.00  0.00    -0.240 A  
HETATM    9  N   UNL     1     -10.655  13.614  69.205  1.00  0.00    -0.122 NA 
HETATM   10  N   UNL     1     -11.414  14.426  68.431  1.00  0.00    -0.284 NA 
HETATM   11  C   UNL     1     -11.910  12.315  64.923  1.00  0.00    -0.417 A  
HETATM   12  C   UNL     1     -11.702  13.899  67.187  1.00  0.00    -0.388 A  
HETATM   13  C   UNL     1     -12.430  14.387  66.092  1.00  0.00    -0.276 A  
HETATM   14  C   UNL     1     -11.090  12.648  67.170  1.00  0.00    -0.321 A  
HETATM   15  C   UNL     1     -11.191  11.838  66.024  1.00  0.00    -0.352 A  
HETATM   16  C   UNL     1     -12.521  13.568  64.960  1.00  0.00    -0.462 A  
BRANCH  10  17
HETATM   17  C   UNL     1     -11.767  15.751  68.929  1.00  0.00    -0.394 C  
BRANCH  17  18
HETATM   18  C   UNL     1     -12.322  15.711  70.333  1.00  0.00    -0.427 A  
HETATM   19  C   UNL     1     -13.617  15.229  70.584  1.00  0.00    -0.187 A  
HETATM   20  C   UNL     1     -13.345  15.645  72.948  1.00  0.00    -0.651 A  
HETATM   21  C   UNL     1     -12.048  16.101  72.716  1.00  0.00    -0.653 A  
HETATM   22  C   UNL     1     -14.126  15.204  71.883  1.00  0.00    -0.649 A  
HETATM   23  C   UNL     1     -11.537  16.131  71.418  1.00  0.00    -0.495 A  
ENDBRANCH  17  18
ENDBRANCH  10  17
ENDBRANCH   7   8
ENDBRANCH   6   7
ENDBRANCH   5   6
ENDBRANCH   4   5
ENDBRANCH   2   4
TORSDOF 7
ENDMDL
MODEL       55
REMARK 921   NORMALIZED FREE ENERGY PREDICTED BY IDOCK:   -5.64 KCAL/MOL
REMARK 922        TOTAL FREE ENERGY PREDICTED BY IDOCK:   -8.34 KCAL/MOL
REMARK 923 INTER-LIGAND FREE ENERGY PREDICTED BY IDOCK:   -7.49 KCAL/MOL
REMARK 924 INTRA-LIGAND FREE ENERGY PREDICTED BY IDOCK:   -0.85 KCAL/MOL
REMARK 927      BINDING AFFINITY PREDICTED BY RF-SCORE:    0.00 PKD
ROOT
HETATM    1  C   UNL     1     -11.816   7.876  71.447  1.00  0.00    -0.299 C  
HETATM    2  N   UNL     1     -12.605   9.079  71.163  1.00  0.00    -0.260 NA 
HETATM    3  C   UNL     1     -13.466   9.380  72.308  1.00  0.00    -0.465 C  
ENDROOT
BRANCH   2   4
HETATM    4  C   UNL     1     -11.701  10.196  70.831  1.00  0.00    -0.378 C  
BRANCH   4   5
HETATM    5  C   UNL     1     -12.090  10.948  69.556  1.00  0.00    -0.380 C  
BRANCH   5   6
HETATM    6  C   UNL     1     -11.755  12.432  69.674  1.00  0.00    -0.307 C  
BRANCH   6   7
HETATM    7  O   UNL     1     -10.583  12.669  68.892  1.00  0.00    -0.212 OA 
BRANCH   7   8
HETATM    8  C   UNL     1     -10.759  13.597  67.927  1.00  0.00    -0.247 A  
HETATM    9  N   UNL     1     -10.408  14.865  68.136  1.00  0.00    -0.234 NA 
HETATM   10  N   UNL     1     -10.755  15.474  66.977  1.00  0.00    -0.319 NA 
HETATM   11  C   UNL     1     -12.220  12.420  64.625  1.00  0.00    -0.499 A  
HETATM   12  C   UNL     1     -11.278  14.613  66.032  1.00  0.00    -0.342 A  
HETATM   13  C   UNL     1     -11.749  14.807  64.726  1.00  0.00    -0.422 A  
HETATM   14  C   UNL     1     -11.276  13.359  66.639  1.00  0.00    -0.330 A  
HETATM   15  C   UNL     1     -11.752  12.241  65.931  1.00  0.00    -0.451 A  
HETATM   16  C   UNL     1     -12.220  13.684  64.034  1.00  0.00    -0.443 A  
BRANCH  10  17
HETATM   17  C   UNL     1     -10.480  16.897  66.816  1.00  0.00    -0.260 C  
BRANCH  17  18
HETATM   18  C   UNL     1      -9.034  17.240  67.086  1.00  0.00    -0.236 A  
HETATM   19  C   UNL     1      -8.668  17.976  68.224  1.00  0.00    -0.289 A  
HETATM   20  C   UNL     1      -6.342  17.875  67.578  1.00  0.00    -0.179 A  
HETATM   21  C   UNL     1      -6.689  17.120  66.458  1.00  0.00    -0.290 A  
HETATM   22  C   UNL     1      -7.330  18.297  68.464  1.00  0.00    -0.297 A  
HETATM   23  C   UNL     1      -8.026  16.801  66.215  1.00  0.00    -0.352 A  
ENDBRANCH  17  18
ENDBRANCH  10  17
ENDBRANCH   7   8
ENDBRANCH   6   7
ENDBRANCH   5   6
ENDBRANCH   4   5
ENDBRANCH   2   4
TORSDOF 7
ENDMDL
MODEL       56
REMARK 921   NORMALIZED FREE ENERGY PREDICTED BY IDOCK:   -5.61 KCAL/MOL
REMARK 922        TOTAL FREE ENERGY PREDICTED BY IDOCK:   -8.30 KCAL/MOL
REMARK 923 INTER-LIGAND FREE ENERGY PREDICTED BY IDOCK:   -7.47 KCAL/MOL
REMARK 924 INTRA-LIGAND FREE ENERGY PREDICTED BY IDOCK:   -0.83 KCAL/MOL
REMARK 927      BINDING AFFINITY PREDICTED BY RF-SCORE:    0.00 PKD
ROOT
HETATM    1  C   UNL     1     -12.712  15.339  73.516  1.00  0.00    -0.559 C  
HETATM    2  N   UNL     1     -13.606  15.022  72.398  1.00  0.00    -0.417 NA 
HETATM    3  C   UNL     1     -12.960  15.392  71.137  1.00  0.00    -0.479 C  
ENDROOT
BRANCH   2   4
HETATM    4  C   UNL     1     -13.967  13.593  72.445  1.00  0.00    -0.548 C  
BRANCH   4   5
HETATM    5  C   UNL     1     -13.097  12.705  71.552  1.00  0.00    -0.373 C  
BRANCH   5   6
HETATM    6  C   UNL     1     -13.237  11.237  71.940  1.00  0.00    -0.386 C  
BRANCH   6   7
HETATM    7  O   UNL     1     -13.244  10.474  70.731  1.00  0.00    -0.335 OA 
BRANCH   7   8
HETATM    8  C   UNL     1     -12.067  10.501  70.070  1.00  0.00    -0.274 A  
HETATM    9  N   UNL     1     -11.954  11.160  68.918  1.00  0.00    -0.478 NA 
HETATM   10  N   UNL     1     -10.667  10.936  68.563  1.00  0.00    -0.189 NA 
HETATM   11  C   UNL     1      -9.134   8.690  71.663  1.00  0.00    -0.318 A  
HETATM   12  C   UNL     1      -9.959  10.187  69.482  1.00  0.00    -0.235 A  
HETATM   13  C   UNL     1      -8.631   9.737  69.523  1.00  0.00    -0.186 A  
HETATM   14  C   UNL     1     -10.868   9.900  70.498  1.00  0.00    -0.391 A  
HETATM   15  C   UNL     1     -10.457   9.141  71.608  1.00  0.00    -0.403 A  
HETATM   16  C   UNL     1      -8.238   8.982  70.635  1.00  0.00    -0.207 A  
BRANCH  10  17
HETATM   17  C   UNL     1     -10.153  11.548  67.343  1.00  0.00    -0.191 C  
BRANCH  17  18
HETATM   18  C   UNL     1     -10.154  13.056  67.408  1.00  0.00    -0.231 A  
HETATM   19  C   UNL     1      -9.263  13.744  68.247  1.00  0.00    -0.204 A  
HETATM   20  C   UNL     1     -10.169  15.863  67.522  1.00  0.00    -0.269 A  
HETATM   21  C   UNL     1     -11.041  15.194  66.665  1.00  0.00    -0.308 A  
HETATM   22  C   UNL     1      -9.275  15.139  68.308  1.00  0.00    -0.188 A  
HETATM   23  C   UNL     1     -11.032  13.800  66.604  1.00  0.00    -0.298 A  
ENDBRANCH  17  18
ENDBRANCH  10  17
ENDBRANCH   7   8
ENDBRANCH   6   7
ENDBRANCH   5   6
ENDBRANCH   4   5
ENDBRANCH   2   4
TORSDOF 7
ENDMDL
MODEL       57
REMARK 921   NORMALIZED FREE ENERGY PREDICTED BY IDOCK:   -5.60 KCAL/MOL
REMARK 922        TOTAL FREE ENERGY PREDICTED BY IDOCK:   -8.28 KCAL/MOL
REMARK 923 INTER-LIGAND FREE ENERGY PREDICTED BY IDOCK:   -7.85 KCAL/MOL
REMARK 924 INTRA-LIGAND FREE ENERGY PREDICTED BY IDOCK:   -0.43 KCAL/MOL
REMARK 927      BINDING AFFINITY PREDICTED BY RF-SCORE:    0.00 PKD
ROOT
HETATM    1  C   UNL     1      -9.353  10.215  64.024  1.00  0.00    -0.287 C  
HETATM    2  N   UNL     1      -9.454   9.722  65.402  1.00  0.00    -0.250 NA 
HETATM    3  C   UNL     1      -8.570   8.567  65.572  1.00  0.00    -0.180 C  
ENDROOT
BRANCH   2   4
HETATM    4  C   UNL     1      -9.138  10.813  66.341  1.00  0.00    -0.171 C  
BRANCH   4   5
HETATM    5  C   UNL     1     -10.210  11.904  66.404  1.00  0.00    -0.240 C  
BRANCH   5   6
HETATM    6  C   UNL     1     -11.265  11.575  67.456  1.00  0.00    -0.298 C  
BRANCH   6   7
HETATM    7  O   UNL     1     -11.496  12.762  68.216  1.00  0.00    -0.269 OA 
BRANCH   7   8
HETATM    8  C   UNL     1     -12.025  12.525  69.436  1.00  0.00    -0.256 A  
HETATM    9  N   UNL     1     -12.119  11.281  69.902  1.00  0.00    -0.332 NA 
HETATM   10  N   UNL     1     -12.710  11.450  71.109  1.00  0.00    -0.401 NA 
HETATM   11  C   UNL     1     -13.157  15.535  71.457  1.00  0.00    -0.573 A  
HETATM   12  C   UNL     1     -12.953  12.771  71.428  1.00  0.00    -0.266 A  
HETATM   13  C   UNL     1     -13.525  13.390  72.549  1.00  0.00    -0.640 A  
HETATM   14  C   UNL     1     -12.493  13.502  70.335  1.00  0.00    -0.345 A  
HETATM   15  C   UNL     1     -12.593  14.905  70.343  1.00  0.00    -0.394 A  
HETATM   16  C   UNL     1     -13.617  14.787  72.541  1.00  0.00    -0.571 A  
BRANCH  10  17
HETATM   17  C   UNL     1     -12.945  10.283  71.951  1.00  0.00    -0.449 C  
BRANCH  17  18
HETATM   18  C   UNL     1     -12.108   9.095  71.541  1.00  0.00    -0.422 A  
HETATM   19  C   UNL     1     -12.708   7.912  71.081  1.00  0.00    -0.175 A  
HETATM   20  C   UNL     1     -10.539   6.892  70.783  1.00  0.00    -0.245 A  
HETATM   21  C   UNL     1      -9.929   8.070  71.211  1.00  0.00    -0.211 A  
HETATM   22  C   UNL     1     -11.927   6.816  70.711  1.00  0.00    -0.433 A  
HETATM   23  C   UNL     1     -10.707   9.167  71.585  1.00  0.00    -0.441 A  
ENDBRANCH  17  18
ENDBRANCH  10  17
ENDBRANCH   7   8
ENDBRANCH   6   7
ENDBRANCH   5   6
ENDBRANCH   4   5
ENDBRANCH   2   4
TORSDOF 7
ENDMDL
MODEL       58
REMARK 921   NORMALIZED FREE ENERGY PREDICTED BY IDOCK:   -5.59 KCAL/MOL
REMARK 922        TOTAL FREE ENERGY PREDICTED BY IDOCK:   -8.27 KCAL/MOL
REMARK 923 INTER-LIGAND FREE ENERGY PREDICTED BY IDOCK:   -7.35 KCAL/MOL
REMARK 924 INTRA-LIGAND FREE ENERGY PREDICTED BY IDOCK:   -0.92 KCAL/MOL
REMARK 927      BINDING AFFINITY PREDICTED BY RF-SCORE:    0.00 PKD
ROOT
HETATM    1  C   UNL     1     -11.476  15.000  64.639  1.00  0.00    -0.381 C  
HETATM    2  N   UNL     1     -12.484  13.937  64.728  1.00  0.00    -0.600 NA 
HETATM    3  C   UNL     1     -12.240  12.946  63.678  1.00  0.00    -0.499 C  
ENDROOT
BRANCH   2   4
HETATM    4  C   UNL     1     -12.458  13.345  66.078  1.00  0.00    -0.369 C  
BRANCH   4   5
HETATM    5  C   UNL     1     -11.778  14.228  67.127  1.00  0.00    -0.430 C  
BRANCH   5   6
HETATM    6  C   UNL     1     -11.184  13.383  68.249  1.00  0.00    -0.279 C  
BRANCH   6   7
HETATM    7  O   UNL     1     -12.101  12.321  68.517  1.00  0.00    -0.279 OA 
BRANCH   7   8
HETATM    8  C   UNL     1     -11.513  11.217  69.027  1.00  0.00    -0.302 A  
HETATM    9  N   UNL     1     -10.460  10.671  68.420  1.00  0.00    -0.177 NA 
HETATM   10  N   UNL     1     -10.182   9.598  69.198  1.00  0.00    -0.192 NA 
HETATM   11  C   UNL     1     -12.946   9.811  72.251  1.00  0.00    -0.420 A  
HETATM   12  C   UNL     1     -11.008   9.480  70.299  1.00  0.00    -0.269 A  
HETATM   13  C   UNL     1     -11.069   8.550  71.346  1.00  0.00    -0.328 A  
HETATM   14  C   UNL     1     -11.890  10.554  70.210  1.00  0.00    -0.418 A  
HETATM   15  C   UNL     1     -12.877  10.729  71.198  1.00  0.00    -0.513 A  
HETATM   16  C   UNL     1     -12.058   8.738  72.321  1.00  0.00    -0.423 A  
BRANCH  10  17
HETATM   17  C   UNL     1      -9.038   8.758  68.861  1.00  0.00    -0.141 C  
BRANCH  17  18
HETATM   18  C   UNL     1      -9.448   7.454  68.218  1.00  0.00    -0.143 A  
HETATM   19  C   UNL     1     -10.402   7.425  67.188  1.00  0.00    -0.377 A  
HETATM   20  C   UNL     1     -10.204   5.023  67.033  1.00  0.00    -0.253 A  
HETATM   21  C   UNL     1      -9.237   5.040  68.036  1.00  0.00    -0.139 A  
HETATM   22  C   UNL     1     -10.782   6.216  66.605  1.00  0.00    -0.301 A  
HETATM   23  C   UNL     1      -8.857   6.248  68.623  1.00  0.00    -0.119 A  
ENDBRANCH  17  18
ENDBRANCH  10  17
ENDBRANCH   7   8
ENDBRANCH   6   7
ENDBRANCH   5   6
ENDBRANCH   4   5
ENDBRANCH   2   4
TORSDOF 7
ENDMDL
MODEL       59
REMARK 921   NORMALIZED FREE ENERGY PREDICTED BY IDOCK:   -5.59 KCAL/MOL
REMARK 922        TOTAL FREE ENERGY PREDICTED BY IDOCK:   -8.26 KCAL/MOL
REMARK 923 INTER-LIGAND FREE ENERGY PREDICTED BY IDOCK:   -7.44 KCAL/MOL
REMARK 924 INTRA-LIGAND FREE ENERGY PREDICTED BY IDOCK:   -0.82 KCAL/MOL
REMARK 927      BINDING AFFINITY PREDICTED BY RF-SCORE:    0.00 PKD
ROOT
HETATM    1  C   UNL     1      -8.205   8.895  70.834  1.00  0.00    -0.175 C  
HETATM    2  N   UNL     1      -9.248   8.037  71.407  1.00  0.00    -0.139 NA 
HETATM    3  C   UNL     1      -9.278   8.212  72.861  1.00  0.00    -0.273 C  
ENDROOT
BRANCH   2   4
HETATM    4  C   UNL     1     -10.544   8.348  70.777  1.00  0.00    -0.207 C  
BRANCH   4   5
HETATM    5  C   UNL     1     -11.126   9.701  71.193  1.00  0.00    -0.444 C  
BRANCH   5   6
HETATM    6  C   UNL     1     -11.610  10.485  69.978  1.00  0.00    -0.313 C  
BRANCH   6   7
HETATM    7  O   UNL     1     -10.973   9.928  68.827  1.00  0.00    -0.223 OA 
BRANCH   7   8
HETATM    8  C   UNL     1     -11.103  10.688  67.719  1.00  0.00    -0.321 A  
HETATM    9  N   UNL     1     -11.834  11.801  67.745  1.00  0.00    -0.592 NA 
HETATM   10  N   UNL     1     -11.743  12.256  66.472  1.00  0.00    -0.528 NA 
HETATM   11  C   UNL     1      -9.261   9.547  64.599  1.00  0.00    -0.247 A  
HETATM   12  C   UNL     1     -10.942  11.478  65.660  1.00  0.00    -0.236 A  
HETATM   13  C   UNL     1     -10.571  11.580  64.311  1.00  0.00    -0.405 A  
HETATM   14  C   UNL     1     -10.496  10.439  66.473  1.00  0.00    -0.262 A  
HETATM   15  C   UNL     1      -9.642   9.455  65.942  1.00  0.00    -0.338 A  
HETATM   16  C   UNL     1      -9.721  10.592  63.798  1.00  0.00    -0.385 A  
BRANCH  10  17
HETATM   17  C   UNL     1     -12.401  13.509  66.121  1.00  0.00    -0.407 C  
BRANCH  17  18
HETATM   18  C   UNL     1     -11.667  14.717  66.654  1.00  0.00    -0.345 A  
HETATM   19  C   UNL     1     -11.832  15.132  67.985  1.00  0.00    -0.225 A  
HETATM   20  C   UNL     1     -10.299  16.966  67.633  1.00  0.00    -0.317 A  
HETATM   21  C   UNL     1     -10.106  16.549  66.317  1.00  0.00    -0.347 A  
HETATM   22  C   UNL     1     -11.157  16.254  68.468  1.00  0.00    -0.368 A  
HETATM   23  C   UNL     1     -10.782  15.429  65.830  1.00  0.00    -0.343 A  
ENDBRANCH  17  18
ENDBRANCH  10  17
ENDBRANCH   7   8
ENDBRANCH   6   7
ENDBRANCH   5   6
ENDBRANCH   4   5
ENDBRANCH   2   4
TORSDOF 7
ENDMDL
MODEL       60
REMARK 921   NORMALIZED FREE ENERGY PREDICTED BY IDOCK:   -5.58 KCAL/MOL
REMARK 922        TOTAL FREE ENERGY PREDICTED BY IDOCK:   -8.26 KCAL/MOL
REMARK 923 INTER-LIGAND FREE ENERGY PREDICTED BY IDOCK:   -7.89 KCAL/MOL
REMARK 924 INTRA-LIGAND FREE ENERGY PREDICTED BY IDOCK:   -0.37 KCAL/MOL
REMARK 927      BINDING AFFINITY PREDICTED BY RF-SCORE:    0.00 PKD
ROOT
HETATM    1  C   UNL     1      -7.960  10.168  65.419  1.00  0.00    -0.144 C  
HETATM    2  N   UNL     1      -9.351  10.630  65.363  1.00  0.00    -0.197 NA 
HETATM    3  C   UNL     1      -9.909  10.339  64.041  1.00  0.00    -0.218 C  
ENDROOT
BRANCH   2   4
HETATM    4  C   UNL     1     -10.123  10.000  66.450  1.00  0.00    -0.241 C  
BRANCH   4   5
HETATM    5  C   UNL     1     -10.275  10.881  67.692  1.00  0.00    -0.214 C  
BRANCH   5   6
HETATM    6  C   UNL     1     -11.734  11.263  67.917  1.00  0.00    -0.214 C  
BRANCH   6   7
HETATM    7  O   UNL     1     -12.047  12.315  67.002  1.00  0.00    -0.575 OA 
BRANCH   7   8
HETATM    8  C   UNL     1     -11.631  13.531  67.418  1.00  0.00    -0.356 A  
HETATM    9  N   UNL     1     -11.420  13.767  68.711  1.00  0.00    -0.280 NA 
HETATM   10  N   UNL     1     -11.048  15.069  68.728  1.00  0.00    -0.249 NA 
HETATM   11  C   UNL     1     -11.042  16.173  64.754  1.00  0.00    -0.345 A  
HETATM   12  C   UNL     1     -10.981  15.644  67.473  1.00  0.00    -0.309 A  
HETATM   13  C   UNL     1     -10.640  16.931  67.033  1.00  0.00    -0.230 A  
HETATM   14  C   UNL     1     -11.351  14.634  66.588  1.00  0.00    -0.358 A  
HETATM   15  C   UNL     1     -11.384  14.895  65.207  1.00  0.00    -0.358 A  
HETATM   16  C   UNL     1     -10.678  17.174  65.655  1.00  0.00    -0.140 A  
BRANCH  10  17
HETATM   17  C   UNL     1     -10.689  15.687  69.999  1.00  0.00    -0.335 C  
BRANCH  17  18
HETATM   18  C   UNL     1     -11.816  15.638  71.003  1.00  0.00    -0.442 A  
HETATM   19  C   UNL     1     -13.126  15.328  70.605  1.00  0.00    -0.407 A  
HETATM   20  C   UNL     1     -13.904  15.553  72.880  1.00  0.00    -0.536 A  
HETATM   21  C   UNL     1     -12.603  15.836  73.294  1.00  0.00    -0.627 A  
HETATM   22  C   UNL     1     -14.164  15.293  71.537  1.00  0.00    -0.629 A  
HETATM   23  C   UNL     1     -11.564  15.875  72.363  1.00  0.00    -0.483 A  
ENDBRANCH  17  18
ENDBRANCH  10  17
ENDBRANCH   7   8
ENDBRANCH   6   7
ENDBRANCH   5   6
ENDBRANCH   4   5
ENDBRANCH   2   4
TORSDOF 7
ENDMDL
MODEL       61
REMARK 921   NORMALIZED FREE ENERGY PREDICTED BY IDOCK:   -5.58 KCAL/MOL
REMARK 922        TOTAL FREE ENERGY PREDICTED BY IDOCK:   -8.25 KCAL/MOL
REMARK 923 INTER-LIGAND FREE ENERGY PREDICTED BY IDOCK:   -7.39 KCAL/MOL
REMARK 924 INTRA-LIGAND FREE ENERGY PREDICTED BY IDOCK:   -0.86 KCAL/MOL
REMARK 927      BINDING AFFINITY PREDICTED BY RF-SCORE:    0.00 PKD
ROOT
HETATM    1  C   UNL     1     -13.573  13.182  72.507  1.00  0.00    -0.491 C  
HETATM    2  N   UNL     1     -13.645  14.596  72.892  1.00  0.00    -0.562 NA 
HETATM    3  C   UNL     1     -12.571  14.899  73.840  1.00  0.00    -0.380 C  
ENDROOT
BRANCH   2   4
HETATM    4  C   UNL     1     -13.585  15.440  71.685  1.00  0.00    -0.509 C  
BRANCH   4   5
HETATM    5  C   UNL     1     -12.180  15.952  71.359  1.00  0.00    -0.501 C  
BRANCH   5   6
HETATM    6  C   UNL     1     -11.876  15.805  69.871  1.00  0.00    -0.344 C  
BRANCH   6   7
HETATM    7  O   UNL     1     -10.456  15.823  69.720  1.00  0.00    -0.274 OA 
BRANCH   7   8
HETATM    8  C   UNL     1      -9.970  14.745  69.070  1.00  0.00    -0.218 A  
HETATM    9  N   UNL     1     -10.775  13.737  68.736  1.00  0.00    -0.251 NA 
HETATM   10  N   UNL     1      -9.934  12.859  68.139  1.00  0.00    -0.229 NA 
HETATM   11  C   UNL     1      -6.272  14.756  68.201  1.00  0.00    -0.145 A  
HETATM   12  C   UNL     1      -8.630  13.307  68.055  1.00  0.00    -0.178 A  
HETATM   13  C   UNL     1      -7.462  12.742  67.522  1.00  0.00    -0.154 A  
HETATM   14  C   UNL     1      -8.636  14.564  68.655  1.00  0.00    -0.168 A  
HETATM   15  C   UNL     1      -7.443  15.306  68.733  1.00  0.00    -0.135 A  
HETATM   16  C   UNL     1      -6.283  13.494  67.607  1.00  0.00    -0.139 A  
BRANCH  10  17
HETATM   17  C   UNL     1     -10.475  11.619  67.594  1.00  0.00    -0.191 C  
BRANCH  17  18
HETATM   18  C   UNL     1     -10.807  11.730  66.125  1.00  0.00    -0.336 A  
HETATM   19  C   UNL     1     -11.708  12.701  65.659  1.00  0.00    -0.458 A  
HETATM   20  C   UNL     1     -11.418  11.924  63.390  1.00  0.00    -0.470 A  
HETATM   21  C   UNL     1     -10.501  10.973  63.836  1.00  0.00    -0.422 A  
HETATM   22  C   UNL     1     -12.016  12.792  64.301  1.00  0.00    -0.473 A  
HETATM   23  C   UNL     1     -10.194  10.878  65.194  1.00  0.00    -0.360 A  
ENDBRANCH  17  18
ENDBRANCH  10  17
ENDBRANCH   7   8
ENDBRANCH   6   7
ENDBRANCH   5   6
ENDBRANCH   4   5
ENDBRANCH   2   4
TORSDOF 7
ENDMDL
MODEL       62
REMARK 921   NORMALIZED FREE ENERGY PREDICTED BY IDOCK:   -5.57 KCAL/MOL
REMARK 922        TOTAL FREE ENERGY PREDICTED BY IDOCK:   -8.24 KCAL/MOL
REMARK 923 INTER-LIGAND FREE ENERGY PREDICTED BY IDOCK:   -7.61 KCAL/MOL
REMARK 924 INTRA-LIGAND FREE ENERGY PREDICTED BY IDOCK:   -0.63 KCAL/MOL
REMARK 927      BINDING AFFINITY PREDICTED BY RF-SCORE:    0.00 PKD
ROOT
HETATM    1  C   UNL     1     -12.270  14.336  64.274  1.00  0.00    -0.423 C  
HETATM    2  N   UNL     1     -12.662  12.968  64.629  1.00  0.00    -0.709 NA 
HETATM    3  C   UNL     1     -12.430  12.082  63.487  1.00  0.00    -0.540 C  
ENDROOT
BRANCH   2   4
HETATM    4  C   UNL     1     -11.924  12.540  65.832  1.00  0.00    -0.409 C  
BRANCH   4   5
HETATM    5  C   UNL     1     -11.788  13.632  66.895  1.00  0.00    -0.451 C  
BRANCH   5   6
HETATM    6  C   UNL     1     -11.819  13.036  68.299  1.00  0.00    -0.343 C  
BRANCH   6   7
HETATM    7  O   UNL     1     -12.068  11.635  68.163  1.00  0.00    -0.577 OA 
BRANCH   7   8
HETATM    8  C   UNL     1     -11.544  10.896  69.164  1.00  0.00    -0.319 A  
HETATM    9  N   UNL     1     -12.330  10.383  70.109  1.00  0.00    -0.248 NA 
HETATM   10  N   UNL     1     -11.455   9.748  70.924  1.00  0.00    -0.339 NA 
HETATM   11  C   UNL     1      -7.792  10.311  69.115  1.00  0.00    -0.127 A  
HETATM   12  C   UNL     1     -10.144   9.816  70.492  1.00  0.00    -0.224 A  
HETATM   13  C   UNL     1      -8.945   9.306  71.010  1.00  0.00    -0.225 A  
HETATM   14  C   UNL     1     -10.185  10.562  69.317  1.00  0.00    -0.245 A  
HETATM   15  C   UNL     1      -8.994  10.817  68.612  1.00  0.00    -0.162 A  
HETATM   16  C   UNL     1      -7.769   9.569  70.295  1.00  0.00    -0.170 A  
BRANCH  10  17
HETATM   17  C   UNL     1     -11.965   9.018  72.078  1.00  0.00    -0.363 C  
BRANCH  17  18
HETATM   18  C   UNL     1     -11.386   7.627  72.185  1.00  0.00    -0.341 A  
HETATM   19  C   UNL     1     -11.488   6.719  71.119  1.00  0.00    -0.361 A  
HETATM   20  C   UNL     1     -10.308   5.042  72.396  1.00  0.00    -0.261 A  
HETATM   21  C   UNL     1     -10.175   5.942  73.451  1.00  0.00    -0.225 A  
HETATM   22  C   UNL     1     -10.958   5.432  71.228  1.00  0.00    -0.135 A  
HETATM   23  C   UNL     1     -10.707   7.228  73.346  1.00  0.00    -0.415 A  
ENDBRANCH  17  18
ENDBRANCH  10  17
ENDBRANCH   7   8
ENDBRANCH   6   7
ENDBRANCH   5   6
ENDBRANCH   4   5
ENDBRANCH   2   4
TORSDOF 7
ENDMDL
MODEL       63
REMARK 921   NORMALIZED FREE ENERGY PREDICTED BY IDOCK:   -5.57 KCAL/MOL
REMARK 922        TOTAL FREE ENERGY PREDICTED BY IDOCK:   -8.23 KCAL/MOL
REMARK 923 INTER-LIGAND FREE ENERGY PREDICTED BY IDOCK:   -7.66 KCAL/MOL
REMARK 924 INTRA-LIGAND FREE ENERGY PREDICTED BY IDOCK:   -0.57 KCAL/MOL
REMARK 927      BINDING AFFINITY PREDICTED BY RF-SCORE:    0.00 PKD
ROOT
HETATM    1  C   UNL     1      -8.544   7.850  65.688  1.00  0.00    -0.138 C  
HETATM    2  N   UNL     1      -9.613   7.870  66.692  1.00  0.00    -0.212 NA 
HETATM    3  C   UNL     1      -9.040   7.644  68.020  1.00  0.00    -0.135 C  
ENDROOT
BRANCH   2   4
HETATM    4  C   UNL     1     -10.347   9.146  66.606  1.00  0.00    -0.218 C  
BRANCH   4   5
HETATM    5  C   UNL     1      -9.626  10.320  67.273  1.00  0.00    -0.186 C  
BRANCH   5   6
HETATM    6  C   UNL     1     -10.221  11.651  66.827  1.00  0.00    -0.217 C  
BRANCH   6   7
HETATM    7  O   UNL     1     -11.617  11.619  67.125  1.00  0.00    -0.491 OA 
BRANCH   7   8
HETATM    8  C   UNL     1     -11.909  12.021  68.381  1.00  0.00    -0.300 A  
HETATM    9  N   UNL     1     -12.279  11.136  69.305  1.00  0.00    -0.397 NA 
HETATM   10  N   UNL     1     -12.503  11.909  70.395  1.00  0.00    -0.218 NA 
HETATM   11  C   UNL     1     -11.566  15.726  69.145  1.00  0.00    -0.399 A  
HETATM   12  C   UNL     1     -12.245  13.250  70.189  1.00  0.00    -0.306 A  
HETATM   13  C   UNL     1     -12.331  14.375  71.022  1.00  0.00    -0.427 A  
HETATM   14  C   UNL     1     -11.835  13.343  68.860  1.00  0.00    -0.373 A  
HETATM   15  C   UNL     1     -11.489  14.596  68.324  1.00  0.00    -0.337 A  
HETATM   16  C   UNL     1     -11.983  15.615  70.472  1.00  0.00    -0.417 A  
BRANCH  10  17
HETATM   17  C   UNL     1     -12.897  11.271  71.646  1.00  0.00    -0.405 C  
BRANCH  17  18
HETATM   18  C   UNL     1     -12.733   9.770  71.605  1.00  0.00    -0.517 A  
HETATM   19  C   UNL     1     -11.465   9.178  71.720  1.00  0.00    -0.452 A  
HETATM   20  C   UNL     1     -12.442   6.977  71.526  1.00  0.00    -0.426 A  
HETATM   21  C   UNL     1     -13.709   7.550  71.438  1.00  0.00    -0.414 A  
HETATM   22  C   UNL     1     -11.321   7.791  71.674  1.00  0.00    -0.291 A  
HETATM   23  C   UNL     1     -13.856   8.938  71.481  1.00  0.00    -0.388 A  
ENDBRANCH  17  18
ENDBRANCH  10  17
ENDBRANCH   7   8
ENDBRANCH   6   7
ENDBRANCH   5   6
ENDBRANCH   4   5
ENDBRANCH   2   4
TORSDOF 7
ENDMDL
MODEL       64
REMARK 921   NORMALIZED FREE ENERGY PREDICTED BY IDOCK:   -5.57 KCAL/MOL
REMARK 922        TOTAL FREE ENERGY PREDICTED BY IDOCK:   -8.23 KCAL/MOL
REMARK 923 INTER-LIGAND FREE ENERGY PREDICTED BY IDOCK:   -7.43 KCAL/MOL
REMARK 924 INTRA-LIGAND FREE ENERGY PREDICTED BY IDOCK:   -0.80 KCAL/MOL
REMARK 927      BINDING AFFINITY PREDICTED BY RF-SCORE:    0.00 PKD
ROOT
HETATM    1  C   UNL     1     -12.383  14.369  64.498  1.00  0.00    -0.418 C  
HETATM    2  N   UNL     1     -12.676  12.953  64.749  1.00  0.00    -0.706 NA 
HETATM    3  C   UNL     1     -12.423  12.180  63.532  1.00  0.00    -0.555 C  
ENDROOT
BRANCH   2   4
HETATM    4  C   UNL     1     -11.875  12.480  65.893  1.00  0.00    -0.430 C  
BRANCH   4   5
HETATM    5  C   UNL     1     -11.795  13.480  67.048  1.00  0.00    -0.447 C  
BRANCH   5   6
HETATM    6  C   UNL     1     -11.701  12.759  68.389  1.00  0.00    -0.339 C  
BRANCH   6   7
HETATM    7  O   UNL     1     -12.087  11.401  68.173  1.00  0.00    -0.623 OA 
BRANCH   7   8
HETATM    8  C   UNL     1     -11.245  10.506  68.735  1.00  0.00    -0.262 A  
HETATM    9  N   UNL     1     -11.065  10.485  70.054  1.00  0.00    -0.297 NA 
HETATM   10  N   UNL     1     -10.155   9.495  70.222  1.00  0.00    -0.245 NA 
HETATM   11  C   UNL     1      -9.500   8.061  66.412  1.00  0.00    -0.268 A  
HETATM   12  C   UNL     1      -9.790   8.870  69.046  1.00  0.00    -0.180 A  
HETATM   13  C   UNL     1      -8.909   7.817  68.762  1.00  0.00    -0.134 A  
HETATM   14  C   UNL     1     -10.515   9.518  68.048  1.00  0.00    -0.279 A  
HETATM   15  C   UNL     1     -10.372   9.113  66.709  1.00  0.00    -0.308 A  
HETATM   16  C   UNL     1      -8.779   7.426  67.423  1.00  0.00    -0.121 A  
BRANCH  10  17
HETATM   17  C   UNL     1      -9.731   9.147  71.573  1.00  0.00    -0.243 C  
BRANCH  17  18
HETATM   18  C   UNL     1     -10.400   7.893  72.084  1.00  0.00    -0.297 A  
HETATM   19  C   UNL     1     -11.642   7.479  71.577  1.00  0.00    -0.301 A  
HETATM   20  C   UNL     1     -11.636   5.560  73.044  1.00  0.00    -0.233 A  
HETATM   21  C   UNL     1     -10.390   5.945  73.537  1.00  0.00    -0.256 A  
HETATM   22  C   UNL     1     -12.258   6.324  72.059  1.00  0.00    -0.270 A  
HETATM   23  C   UNL     1      -9.773   7.101  73.058  1.00  0.00    -0.216 A  
ENDBRANCH  17  18
ENDBRANCH  10  17
ENDBRANCH   7   8
ENDBRANCH   6   7
ENDBRANCH   5   6
ENDBRANCH   4   5
ENDBRANCH   2   4
TORSDOF 7
ENDMDL
MODEL       65
REMARK 921   NORMALIZED FREE ENERGY PREDICTED BY IDOCK:   -5.54 KCAL/MOL
REMARK 922        TOTAL FREE ENERGY PREDICTED BY IDOCK:   -8.20 KCAL/MOL
REMARK 923 INTER-LIGAND FREE ENERGY PREDICTED BY IDOCK:   -7.28 KCAL/MOL
REMARK 924 INTRA-LIGAND FREE ENERGY PREDICTED BY IDOCK:   -0.92 KCAL/MOL
REMARK 927      BINDING AFFINITY PREDICTED BY RF-SCORE:    0.00 PKD
ROOT
HETATM    1  C   UNL     1     -14.286  15.172  72.008  1.00  0.00    -0.577 C  
HETATM    2  N   UNL     1     -13.108  15.859  72.549  1.00  0.00    -0.470 NA 
HETATM    3  C   UNL     1     -12.653  15.169  73.757  1.00  0.00    -0.575 C  
ENDROOT
BRANCH   2   4
HETATM    4  C   UNL     1     -12.060  15.929  71.514  1.00  0.00    -0.470 C  
BRANCH   4   5
HETATM    5  C   UNL     1     -12.468  15.307  70.177  1.00  0.00    -0.374 C  
BRANCH   5   6
HETATM    6  C   UNL     1     -11.707  15.947  69.021  1.00  0.00    -0.370 C  
BRANCH   6   7
HETATM    7  O   UNL     1     -11.867  15.100  67.881  1.00  0.00    -0.320 OA 
BRANCH   7   8
HETATM    8  C   UNL     1     -11.162  13.952  67.961  1.00  0.00    -0.271 A  
HETATM    9  N   UNL     1     -11.785  12.775  67.963  1.00  0.00    -0.345 NA 
HETATM   10  N   UNL     1     -10.767  11.889  68.079  1.00  0.00    -0.200 NA 
HETATM   11  C   UNL     1      -7.377  14.238  68.116  1.00  0.00    -0.128 A  
HETATM   12  C   UNL     1      -9.518  12.479  68.110  1.00  0.00    -0.214 A  
HETATM   13  C   UNL     1      -8.221  11.956  68.211  1.00  0.00    -0.157 A  
HETATM   14  C   UNL     1      -9.759  13.848  68.019  1.00  0.00    -0.226 A  
HETATM   15  C   UNL     1      -8.677  14.747  68.021  1.00  0.00    -0.168 A  
HETATM   16  C   UNL     1      -7.156  12.864  68.211  1.00  0.00    -0.102 A  
BRANCH  10  17
HETATM   17  C   UNL     1     -11.067  10.462  68.076  1.00  0.00    -0.298 C  
BRANCH  17  18
HETATM   18  C   UNL     1     -11.065   9.868  69.464  1.00  0.00    -0.255 A  
HETATM   19  C   UNL     1     -10.092   8.932  69.849  1.00  0.00    -0.204 A  
HETATM   20  C   UNL     1     -11.074   8.768  72.049  1.00  0.00    -0.441 A  
HETATM   21  C   UNL     1     -12.030   9.717  71.690  1.00  0.00    -0.470 A  
HETATM   22  C   UNL     1     -10.101   8.381  71.131  1.00  0.00    -0.248 A  
HETATM   23  C   UNL     1     -12.025  10.267  70.407  1.00  0.00    -0.391 A  
ENDBRANCH  17  18
ENDBRANCH  10  17
ENDBRANCH   7   8
ENDBRANCH   6   7
ENDBRANCH   5   6
ENDBRANCH   4   5
ENDBRANCH   2   4
TORSDOF 7
ENDMDL
MODEL       66
REMARK 921   NORMALIZED FREE ENERGY PREDICTED BY IDOCK:   -5.54 KCAL/MOL
REMARK 922        TOTAL FREE ENERGY PREDICTED BY IDOCK:   -8.19 KCAL/MOL
REMARK 923 INTER-LIGAND FREE ENERGY PREDICTED BY IDOCK:   -6.99 KCAL/MOL
REMARK 924 INTRA-LIGAND FREE ENERGY PREDICTED BY IDOCK:   -1.21 KCAL/MOL
REMARK 927      BINDING AFFINITY PREDICTED BY RF-SCORE:    0.00 PKD
ROOT
HETATM    1  C   UNL     1     -10.645  11.589  66.152  1.00  0.00    -0.266 C  
HETATM    2  N   UNL     1     -11.871  12.230  66.638  1.00  0.00    -0.594 NA 
HETATM    3  C   UNL     1     -11.700  12.607  68.043  1.00  0.00    -0.350 C  
ENDROOT
BRANCH   2   4
HETATM    4  C   UNL     1     -12.196  13.385  65.782  1.00  0.00    -0.458 C  
BRANCH   4   5
HETATM    5  C   UNL     1     -11.096  13.740  64.778  1.00  0.00    -0.380 C  
BRANCH   5   6
HETATM    6  C   UNL     1     -10.694  15.206  64.904  1.00  0.00    -0.398 C  
BRANCH   6   7
HETATM    7  O   UNL     1     -11.155  15.669  66.175  1.00  0.00    -0.257 OA 
BRANCH   7   8
HETATM    8  C   UNL     1     -10.245  16.411  66.840  1.00  0.00    -0.290 A  
HETATM    9  N   UNL     1     -10.327  17.741  66.841  1.00  0.00    -0.346 NA 
HETATM   10  N   UNL     1      -9.250  18.114  67.574  1.00  0.00    -0.256 NA 
HETATM   11  C   UNL     1      -7.523  14.550  68.725  1.00  0.00    -0.132 A  
HETATM   12  C   UNL     1      -8.518  17.051  68.065  1.00  0.00    -0.216 A  
HETATM   13  C   UNL     1      -7.363  16.977  68.857  1.00  0.00    -0.245 A  
HETATM   14  C   UNL     1      -9.170  15.911  67.600  1.00  0.00    -0.208 A  
HETATM   15  C   UNL     1      -8.671  14.638  67.932  1.00  0.00    -0.169 A  
HETATM   16  C   UNL     1      -6.879  15.702  69.178  1.00  0.00    -0.159 A  
BRANCH  10  17
HETATM   17  C   UNL     1      -9.026  19.531  67.831  1.00  0.00    -0.322 C  
BRANCH  17  18
HETATM   18  C   UNL     1      -7.797  20.059  67.130  1.00  0.00    -0.340 A  
HETATM   19  C   UNL     1      -6.795  20.739  67.841  1.00  0.00    -0.322 A  
HETATM   20  C   UNL     1      -5.516  21.037  65.814  1.00  0.00    -0.257 A  
HETATM   21  C   UNL     1      -6.489  20.339  65.100  1.00  0.00    -0.325 A  
HETATM   22  C   UNL     1      -5.666  21.230  67.185  1.00  0.00    -0.386 A  
HETATM   23  C   UNL     1      -7.621  19.850  65.753  1.00  0.00    -0.309 A  
ENDBRANCH  17  18
ENDBRANCH  10  17
ENDBRANCH   7   8
ENDBRANCH   6   7
ENDBRANCH   5   6
ENDBRANCH   4   5
ENDBRANCH   2   4
TORSDOF 7
ENDMDL
MODEL       67
REMARK 921   NORMALIZED FREE ENERGY PREDICTED BY IDOCK:   -5.53 KCAL/MOL
REMARK 922        TOTAL FREE ENERGY PREDICTED BY IDOCK:   -8.19 KCAL/MOL
REMARK 923 INTER-LIGAND FREE ENERGY PREDICTED BY IDOCK:   -7.09 KCAL/MOL
REMARK 924 INTRA-LIGAND FREE ENERGY PREDICTED BY IDOCK:   -1.10 KCAL/MOL
REMARK 927      BINDING AFFINITY PREDICTED BY RF-SCORE:    0.00 PKD
ROOT
HETATM    1  C   UNL     1     -10.639   7.955  67.040  1.00  0.00    -0.311 C  
HETATM    2  N   UNL     1     -10.235   8.940  68.050  1.00  0.00    -0.203 NA 
HETATM    3  C   UNL     1      -8.788   9.149  67.976  1.00  0.00    -0.129 C  
ENDROOT
BRANCH   2   4
HETATM    4  C   UNL     1     -10.994  10.188  67.852  1.00  0.00    -0.277 C  
BRANCH   4   5
HETATM    5  C   UNL     1     -10.278  11.214  66.969  1.00  0.00    -0.251 C  
BRANCH   5   6
HETATM    6  C   UNL     1     -11.269  11.950  66.073  1.00  0.00    -0.324 C  
BRANCH   6   7
HETATM    7  O   UNL     1     -12.250  12.550  66.922  1.00  0.00    -0.511 OA 
BRANCH   7   8
HETATM    8  C   UNL     1     -11.864  13.738  67.435  1.00  0.00    -0.396 A  
HETATM    9  N   UNL     1     -11.432  14.711  66.635  1.00  0.00    -0.358 NA 
HETATM   10  N   UNL     1     -11.122  15.705  67.502  1.00  0.00    -0.317 NA 
HETATM   11  C   UNL     1     -12.124  14.175  71.199  1.00  0.00    -0.392 A  
HETATM   12  C   UNL     1     -11.386  15.393  68.822  1.00  0.00    -0.320 A  
HETATM   13  C   UNL     1     -11.231  16.109  70.018  1.00  0.00    -0.359 A  
HETATM   14  C   UNL     1     -11.892  14.095  68.796  1.00  0.00    -0.384 A  
HETATM   15  C   UNL     1     -12.269  13.471  69.999  1.00  0.00    -0.381 A  
HETATM   16  C   UNL     1     -11.611  15.472  71.206  1.00  0.00    -0.462 A  
BRANCH  10  17
HETATM   17  C   UNL     1     -10.641  16.977  66.977  1.00  0.00    -0.226 C  
BRANCH  17  18
HETATM   18  C   UNL     1      -9.156  17.162  67.180  1.00  0.00    -0.237 A  
HETATM   19  C   UNL     1      -8.658  18.251  67.913  1.00  0.00    -0.267 A  
HETATM   20  C   UNL     1      -6.392  17.497  67.549  1.00  0.00    -0.167 A  
HETATM   21  C   UNL     1      -6.874  16.397  66.841  1.00  0.00    -0.231 A  
HETATM   22  C   UNL     1      -7.283  18.420  68.090  1.00  0.00    -0.270 A  
HETATM   23  C   UNL     1      -8.248  16.228  66.661  1.00  0.00    -0.316 A  
ENDBRANCH  17  18
ENDBRANCH  10  17
ENDBRANCH   7   8
ENDBRANCH   6   7
ENDBRANCH   5   6
ENDBRANCH   4   5
ENDBRANCH   2   4
TORSDOF 7
ENDMDL
MODEL       68
REMARK 921   NORMALIZED FREE ENERGY PREDICTED BY IDOCK:   -5.53 KCAL/MOL
REMARK 922        TOTAL FREE ENERGY PREDICTED BY IDOCK:   -8.18 KCAL/MOL
REMARK 923 INTER-LIGAND FREE ENERGY PREDICTED BY IDOCK:   -7.46 KCAL/MOL
REMARK 924 INTRA-LIGAND FREE ENERGY PREDICTED BY IDOCK:   -0.72 KCAL/MOL
REMARK 927      BINDING AFFINITY PREDICTED BY RF-SCORE:    0.00 PKD
ROOT
HETATM    1  C   UNL     1     -12.345  12.376  63.718  1.00  0.00    -0.528 C  
HETATM    2  N   UNL     1     -11.799  13.537  64.428  1.00  0.00    -0.396 NA 
HETATM    3  C   UNL     1     -12.715  13.927  65.503  1.00  0.00    -0.499 C  
ENDROOT
BRANCH   2   4
HETATM    4  C   UNL     1     -10.449  13.220  64.928  1.00  0.00    -0.371 C  
BRANCH   4   5
HETATM    5  C   UNL     1     -10.391  11.962  65.797  1.00  0.00    -0.285 C  
BRANCH   5   6
HETATM    6  C   UNL     1      -9.359  12.113  66.910  1.00  0.00    -0.203 C  
BRANCH   6   7
HETATM    7  O   UNL     1     -10.037  12.631  68.056  1.00  0.00    -0.215 OA 
BRANCH   7   8
HETATM    8  C   UNL     1     -10.560  11.674  68.850  1.00  0.00    -0.193 A  
HETATM    9  N   UNL     1     -10.198  10.400  68.702  1.00  0.00    -0.172 NA 
HETATM   10  N   UNL     1     -10.939   9.761  69.639  1.00  0.00    -0.240 NA 
HETATM   11  C   UNL     1     -13.024  12.781  71.520  1.00  0.00    -0.388 A  
HETATM   12  C   UNL     1     -11.727  10.606  70.397  1.00  0.00    -0.353 A  
HETATM   13  C   UNL     1     -12.621  10.381  71.453  1.00  0.00    -0.539 A  
HETATM   14  C   UNL     1     -11.478  11.883  69.897  1.00  0.00    -0.264 A  
HETATM   15  C   UNL     1     -12.133  12.992  70.463  1.00  0.00    -0.373 A  
HETATM   16  C   UNL     1     -13.264  11.496  72.005  1.00  0.00    -0.443 A  
BRANCH  10  17
HETATM   17  C   UNL     1     -10.780   8.321  69.805  1.00  0.00    -0.221 C  
BRANCH  17  18
HETATM   18  C   UNL     1     -10.419   7.939  71.221  1.00  0.00    -0.233 A  
HETATM   19  C   UNL     1     -11.205   7.030  71.947  1.00  0.00    -0.282 A  
HETATM   20  C   UNL     1      -9.740   7.239  73.855  1.00  0.00    -0.323 A  
HETATM   21  C   UNL     1      -8.935   8.122  73.137  1.00  0.00    -0.330 A  
HETATM   22  C   UNL     1     -10.870   6.688  73.258  1.00  0.00    -0.290 A  
HETATM   23  C   UNL     1      -9.270   8.468  71.827  1.00  0.00    -0.316 A  
ENDBRANCH  17  18
ENDBRANCH  10  17
ENDBRANCH   7   8
ENDBRANCH   6   7
ENDBRANCH   5   6
ENDBRANCH   4   5
ENDBRANCH   2   4
TORSDOF 7
ENDMDL
MODEL       69
REMARK 921   NORMALIZED FREE ENERGY PREDICTED BY IDOCK:   -5.49 KCAL/MOL
REMARK 922        TOTAL FREE ENERGY PREDICTED BY IDOCK:   -8.12 KCAL/MOL
REMARK 923 INTER-LIGAND FREE ENERGY PREDICTED BY IDOCK:   -7.17 KCAL/MOL
REMARK 924 INTRA-LIGAND FREE ENERGY PREDICTED BY IDOCK:   -0.95 KCAL/MOL
REMARK 927      BINDING AFFINITY PREDICTED BY RF-SCORE:    0.00 PKD
ROOT
HETATM    1  C   UNL     1      -8.064   8.456  64.867  1.00  0.00    -0.149 C  
HETATM    2  N   UNL     1      -8.565   9.546  65.711  1.00  0.00    -0.133 NA 
HETATM    3  C   UNL     1      -9.863   9.169  66.274  1.00  0.00    -0.289 C  
ENDROOT
BRANCH   2   4
HETATM    4  C   UNL     1      -7.571   9.861  66.753  1.00  0.00    -0.095 C  
BRANCH   4   5
HETATM    5  C   UNL     1      -8.186  10.335  68.072  1.00  0.00    -0.113 C  
BRANCH   5   6
HETATM    6  C   UNL     1      -7.710  11.741  68.423  1.00  0.00    -0.131 C  
BRANCH   6   7
HETATM    7  O   UNL     1      -8.012  12.586  67.311  1.00  0.00    -0.171 OA 
BRANCH   7   8
HETATM    8  C   UNL     1      -9.240  13.144  67.378  1.00  0.00    -0.213 A  
HETATM    9  N   UNL     1      -9.590  13.884  68.429  1.00  0.00    -0.218 NA 
HETATM   10  N   UNL     1     -10.867  14.234  68.145  1.00  0.00    -0.239 NA 
HETATM   11  C   UNL     1     -11.580  12.560  64.444  1.00  0.00    -0.419 A  
HETATM   12  C   UNL     1     -11.314  13.765  66.925  1.00  0.00    -0.328 A  
HETATM   13  C   UNL     1     -12.534  13.893  66.246  1.00  0.00    -0.454 A  
HETATM   14  C   UNL     1     -10.242  13.050  66.394  1.00  0.00    -0.283 A  
HETATM   15  C   UNL     1     -10.370  12.436  65.135  1.00  0.00    -0.313 A  
HETATM   16  C   UNL     1     -12.644  13.275  64.994  1.00  0.00    -0.483 A  
BRANCH  10  17
HETATM   17  C   UNL     1     -11.586  15.100  69.072  1.00  0.00    -0.330 C  
BRANCH  17  18
HETATM   18  C   UNL     1     -12.254  14.328  70.185  1.00  0.00    -0.407 A  
HETATM   19  C   UNL     1     -13.111  14.968  71.094  1.00  0.00    -0.479 A  
HETATM   20  C   UNL     1     -13.491  12.882  72.251  1.00  0.00    -0.631 A  
HETATM   21  C   UNL     1     -12.664  12.228  71.338  1.00  0.00    -0.351 A  
HETATM   22  C   UNL     1     -13.719  14.249  72.125  1.00  0.00    -0.569 A  
HETATM   23  C   UNL     1     -12.052  12.945  70.309  1.00  0.00    -0.377 A  
ENDBRANCH  17  18
ENDBRANCH  10  17
ENDBRANCH   7   8
ENDBRANCH   6   7
ENDBRANCH   5   6
ENDBRANCH   4   5
ENDBRANCH   2   4
TORSDOF 7
ENDMDL
MODEL       70
REMARK 921   NORMALIZED FREE ENERGY PREDICTED BY IDOCK:   -5.48 KCAL/MOL
REMARK 922        TOTAL FREE ENERGY PREDICTED BY IDOCK:   -8.11 KCAL/MOL
REMARK 923 INTER-LIGAND FREE ENERGY PREDICTED BY IDOCK:   -7.37 KCAL/MOL
REMARK 924 INTRA-LIGAND FREE ENERGY PREDICTED BY IDOCK:   -0.74 KCAL/MOL
REMARK 927      BINDING AFFINITY PREDICTED BY RF-SCORE:    0.00 PKD
ROOT
HETATM    1  C   UNL     1     -14.399  15.202  72.026  1.00  0.00    -0.586 C  
HETATM    2  N   UNL     1     -13.104  15.874  71.872  1.00  0.00    -0.418 NA 
HETATM    3  C   UNL     1     -12.292  15.647  73.069  1.00  0.00    -0.463 C  
ENDROOT
BRANCH   2   4
HETATM    4  C   UNL     1     -12.442  15.394  70.645  1.00  0.00    -0.428 C  
BRANCH   4   5
HETATM    5  C   UNL     1     -12.273  13.874  70.587  1.00  0.00    -0.443 C  
BRANCH   5   6
HETATM    6  C   UNL     1     -11.475  13.460  69.355  1.00  0.00    -0.274 C  
BRANCH   6   7
HETATM    7  O   UNL     1     -12.031  12.233  68.878  1.00  0.00    -0.308 OA 
BRANCH   7   8
HETATM    8  C   UNL     1     -11.416  11.136  69.369  1.00  0.00    -0.298 A  
HETATM    9  N   UNL     1     -10.272  10.708  68.836  1.00  0.00    -0.191 NA 
HETATM   10  N   UNL     1      -9.992   9.600  69.564  1.00  0.00    -0.195 NA 
HETATM   11  C   UNL     1     -13.046   9.403  72.329  1.00  0.00    -0.509 A  
HETATM   12  C   UNL     1     -10.910   9.346  70.565  1.00  0.00    -0.277 A  
HETATM   13  C   UNL     1     -11.004   8.339  71.536  1.00  0.00    -0.312 A  
HETATM   14  C   UNL     1     -11.856  10.364  70.460  1.00  0.00    -0.430 A  
HETATM   15  C   UNL     1     -12.943  10.399  71.352  1.00  0.00    -0.545 A  
HETATM   16  C   UNL     1     -12.093   8.389  72.416  1.00  0.00    -0.443 A  
BRANCH  10  17
HETATM   17  C   UNL     1      -8.764   8.865  69.289  1.00  0.00    -0.138 C  
BRANCH  17  18
HETATM   18  C   UNL     1      -8.958   7.781  68.256  1.00  0.00    -0.131 A  
HETATM   19  C   UNL     1     -10.241   7.438  67.801  1.00  0.00    -0.250 A  
HETATM   20  C   UNL     1      -9.306   5.761  66.335  1.00  0.00    -0.168 A  
HETATM   21  C   UNL     1      -8.025   6.110  66.758  1.00  0.00    -0.105 A  
HETATM   22  C   UNL     1     -10.414   6.429  66.852  1.00  0.00    -0.340 A  
HETATM   23  C   UNL     1      -7.850   7.116  67.709  1.00  0.00    -0.114 A  
ENDBRANCH  17  18
ENDBRANCH  10  17
ENDBRANCH   7   8
ENDBRANCH   6   7
ENDBRANCH   5   6
ENDBRANCH   4   5
ENDBRANCH   2   4
TORSDOF 7
ENDMDL
MODEL       71
REMARK 921   NORMALIZED FREE ENERGY PREDICTED BY IDOCK:   -5.47 KCAL/MOL
REMARK 922        TOTAL FREE ENERGY PREDICTED BY IDOCK:   -8.10 KCAL/MOL
REMARK 923 INTER-LIGAND FREE ENERGY PREDICTED BY IDOCK:   -7.54 KCAL/MOL
REMARK 924 INTRA-LIGAND FREE ENERGY PREDICTED BY IDOCK:   -0.56 KCAL/MOL
REMARK 927      BINDING AFFINITY PREDICTED BY RF-SCORE:    0.00 PKD
ROOT
HETATM    1  C   UNL     1     -13.461  15.029  72.898  1.00  0.00    -0.465 C  
HETATM    2  N   UNL     1     -13.425  14.453  71.549  1.00  0.00    -0.353 NA 
HETATM    3  C   UNL     1     -12.987  15.474  70.595  1.00  0.00    -0.372 C  
ENDROOT
BRANCH   2   4
HETATM    4  C   UNL     1     -12.552  13.265  71.543  1.00  0.00    -0.214 C  
BRANCH   4   5
HETATM    5  C   UNL     1     -13.235  11.993  72.049  1.00  0.00    -0.481 C  
BRANCH   5   6
HETATM    6  C   UNL     1     -12.916  10.805  71.148  1.00  0.00    -0.371 C  
BRANCH   6   7
HETATM    7  O   UNL     1     -11.564  10.952  70.710  1.00  0.00    -0.312 OA 
BRANCH   7   8
HETATM    8  C   UNL     1     -11.416  10.838  69.372  1.00  0.00    -0.295 A  
HETATM    9  N   UNL     1     -11.865  11.794  68.559  1.00  0.00    -0.412 NA 
HETATM   10  N   UNL     1     -11.562  11.315  67.329  1.00  0.00    -0.543 NA 
HETATM   11  C   UNL     1      -9.635   7.746  68.073  1.00  0.00    -0.166 A  
HETATM   12  C   UNL     1     -10.900  10.103  67.351  1.00  0.00    -0.261 A  
HETATM   13  C   UNL     1     -10.402   9.272  66.337  1.00  0.00    -0.238 A  
HETATM   14  C   UNL     1     -10.781   9.777  68.700  1.00  0.00    -0.247 A  
HETATM   15  C   UNL     1     -10.140   8.582  69.074  1.00  0.00    -0.207 A  
HETATM   16  C   UNL     1      -9.767   8.086  66.727  1.00  0.00    -0.305 A  
BRANCH  10  17
HETATM   17  C   UNL     1     -11.875  12.126  66.158  1.00  0.00    -0.254 C  
BRANCH  17  18
HETATM   18  C   UNL     1     -11.051  13.390  66.093  1.00  0.00    -0.299 A  
HETATM   19  C   UNL     1      -9.827  13.490  66.773  1.00  0.00    -0.267 A  
HETATM   20  C   UNL     1      -9.529  15.746  65.965  1.00  0.00    -0.392 A  
HETATM   21  C   UNL     1     -10.729  15.651  65.263  1.00  0.00    -0.444 A  
HETATM   22  C   UNL     1      -9.075  14.664  66.715  1.00  0.00    -0.287 A  
HETATM   23  C   UNL     1     -11.484  14.479  65.322  1.00  0.00    -0.355 A  
ENDBRANCH  17  18
ENDBRANCH  10  17
ENDBRANCH   7   8
ENDBRANCH   6   7
ENDBRANCH   5   6
ENDBRANCH   4   5
ENDBRANCH   2   4
TORSDOF 7
ENDMDL
MODEL       72
REMARK 921   NORMALIZED FREE ENERGY PREDICTED BY IDOCK:   -5.45 KCAL/MOL
REMARK 922        TOTAL FREE ENERGY PREDICTED BY IDOCK:   -8.06 KCAL/MOL
REMARK 923 INTER-LIGAND FREE ENERGY PREDICTED BY IDOCK:   -7.00 KCAL/MOL
REMARK 924 INTRA-LIGAND FREE ENERGY PREDICTED BY IDOCK:   -1.06 KCAL/MOL
REMARK 927      BINDING AFFINITY PREDICTED BY RF-SCORE:    0.00 PKD
ROOT
HETATM    1  C   UNL     1     -11.340  16.258  64.462  1.00  0.00    -0.202 C  
HETATM    2  N   UNL     1     -10.111  15.676  65.013  1.00  0.00    -0.400 NA 
HETATM    3  C   UNL     1      -9.549  16.583  66.016  1.00  0.00    -0.290 C  
ENDROOT
BRANCH   2   4
HETATM    4  C   UNL     1     -10.402  14.340  65.565  1.00  0.00    -0.355 C  
BRANCH   4   5
HETATM    5  C   UNL     1     -11.831  14.187  66.093  1.00  0.00    -0.420 C  
BRANCH   5   6
HETATM    6  C   UNL     1     -11.836  13.549  67.478  1.00  0.00    -0.368 C  
BRANCH   6   7
HETATM    7  O   UNL     1     -12.252  12.191  67.323  1.00  0.00    -0.496 OA 
BRANCH   7   8
HETATM    8  C   UNL     1     -11.265  11.297  67.547  1.00  0.00    -0.291 A  
HETATM    9  N   UNL     1     -10.977  10.904  68.786  1.00  0.00    -0.217 NA 
HETATM   10  N   UNL     1      -9.943  10.049  68.604  1.00  0.00    -0.159 NA 
HETATM   11  C   UNL     1      -9.425   9.939  64.514  1.00  0.00    -0.328 A  
HETATM   12  C   UNL     1      -9.600   9.866  67.278  1.00  0.00    -0.160 A  
HETATM   13  C   UNL     1      -8.622   9.084  66.648  1.00  0.00    -0.134 A  
HETATM   14  C   UNL     1     -10.476  10.676  66.559  1.00  0.00    -0.285 A  
HETATM   15  C   UNL     1     -10.393  10.718  65.156  1.00  0.00    -0.341 A  
HETATM   16  C   UNL     1      -8.553   9.137  65.250  1.00  0.00    -0.191 A  
BRANCH  10  17
HETATM   17  C   UNL     1      -9.372   9.372  69.762  1.00  0.00    -0.203 C  
BRANCH  17  18
HETATM   18  C   UNL     1     -10.368   8.475  70.457  1.00  0.00    -0.226 A  
HETATM   19  C   UNL     1     -10.857   8.791  71.735  1.00  0.00    -0.416 A  
HETATM   20  C   UNL     1     -12.220   6.797  71.740  1.00  0.00    -0.402 A  
HETATM   21  C   UNL     1     -11.763   6.485  70.461  1.00  0.00    -0.438 A  
HETATM   22  C   UNL     1     -11.771   7.953  72.374  1.00  0.00    -0.423 A  
HETATM   23  C   UNL     1     -10.846   7.320  69.820  1.00  0.00    -0.251 A  
ENDBRANCH  17  18
ENDBRANCH  10  17
ENDBRANCH   7   8
ENDBRANCH   6   7
ENDBRANCH   5   6
ENDBRANCH   4   5
ENDBRANCH   2   4
TORSDOF 7
ENDMDL
MODEL       73
REMARK 921   NORMALIZED FREE ENERGY PREDICTED BY IDOCK:   -5.43 KCAL/MOL
REMARK 922        TOTAL FREE ENERGY PREDICTED BY IDOCK:   -8.04 KCAL/MOL
REMARK 923 INTER-LIGAND FREE ENERGY PREDICTED BY IDOCK:   -6.94 KCAL/MOL
REMARK 924 INTRA-LIGAND FREE ENERGY PREDICTED BY IDOCK:   -1.10 KCAL/MOL
REMARK 927      BINDING AFFINITY PREDICTED BY RF-SCORE:    0.00 PKD
ROOT
HETATM    1  C   UNL     1     -11.825   9.318  71.863  1.00  0.00    -0.356 C  
HETATM    2  N   UNL     1     -11.488   9.521  70.450  1.00  0.00    -0.255 NA 
HETATM    3  C   UNL     1     -12.234  10.668  69.930  1.00  0.00    -0.275 C  
ENDROOT
BRANCH   2   4
HETATM    4  C   UNL     1     -10.030   9.688  70.309  1.00  0.00    -0.270 C  
BRANCH   4   5
HETATM    5  C   UNL     1      -9.572   9.940  68.870  1.00  0.00    -0.172 C  
BRANCH   5   6
HETATM    6  C   UNL     1      -8.704  11.190  68.784  1.00  0.00    -0.128 C  
BRANCH   6   7
HETATM    7  O   UNL     1      -9.250  12.021  67.758  1.00  0.00    -0.177 OA 
BRANCH   7   8
HETATM    8  C   UNL     1      -9.581  13.258  68.186  1.00  0.00    -0.227 A  
HETATM    9  N   UNL     1     -10.851  13.568  68.442  1.00  0.00    -0.258 NA 
HETATM   10  N   UNL     1     -10.780  14.869  68.812  1.00  0.00    -0.244 NA 
HETATM   11  C   UNL     1      -6.753  15.745  68.677  1.00  0.00    -0.117 A  
HETATM   12  C   UNL     1      -9.494  15.371  68.834  1.00  0.00    -0.219 A  
HETATM   13  C   UNL     1      -8.970  16.631  69.157  1.00  0.00    -0.145 A  
HETATM   14  C   UNL     1      -8.681  14.312  68.435  1.00  0.00    -0.181 A  
HETATM   15  C   UNL     1      -7.289  14.494  68.353  1.00  0.00    -0.114 A  
HETATM   16  C   UNL     1      -7.582  16.795  69.070  1.00  0.00    -0.218 A  
BRANCH  10  17
HETATM   17  C   UNL     1     -12.001  15.557  69.214  1.00  0.00    -0.316 C  
BRANCH  17  18
HETATM   18  C   UNL     1     -12.315  15.370  70.679  1.00  0.00    -0.451 A  
HETATM   19  C   UNL     1     -11.673  16.143  71.660  1.00  0.00    -0.558 A  
HETATM   20  C   UNL     1     -12.906  15.011  73.402  1.00  0.00    -0.652 A  
HETATM   21  C   UNL     1     -13.571  14.256  72.437  1.00  0.00    -0.599 A  
HETATM   22  C   UNL     1     -11.962  15.958  73.013  1.00  0.00    -0.596 A  
HETATM   23  C   UNL     1     -13.281  14.436  71.084  1.00  0.00    -0.414 A  
ENDBRANCH  17  18
ENDBRANCH  10  17
ENDBRANCH   7   8
ENDBRANCH   6   7
ENDBRANCH   5   6
ENDBRANCH   4   5
ENDBRANCH   2   4
TORSDOF 7
ENDMDL
MODEL       74
REMARK 921   NORMALIZED FREE ENERGY PREDICTED BY IDOCK:   -5.42 KCAL/MOL
REMARK 922        TOTAL FREE ENERGY PREDICTED BY IDOCK:   -8.02 KCAL/MOL
REMARK 923 INTER-LIGAND FREE ENERGY PREDICTED BY IDOCK:   -7.04 KCAL/MOL
REMARK 924 INTRA-LIGAND FREE ENERGY PREDICTED BY IDOCK:   -0.98 KCAL/MOL
REMARK 927      BINDING AFFINITY PREDICTED BY RF-SCORE:    0.00 PKD
ROOT
HETATM    1  C   UNL     1     -12.483  12.305  63.640  1.00  0.00    -0.541 C  
HETATM    2  N   UNL     1     -11.797  13.072  64.685  1.00  0.00    -0.352 NA 
HETATM    3  C   UNL     1     -12.773  13.885  65.413  1.00  0.00    -0.490 C  
ENDROOT
BRANCH   2   4
HETATM    4  C   UNL     1     -11.060  12.152  65.570  1.00  0.00    -0.316 C  
BRANCH   4   5
HETATM    5  C   UNL     1      -9.835  11.510  64.913  1.00  0.00    -0.289 C  
BRANCH   5   6
HETATM    6  C   UNL     1      -9.886   9.990  65.029  1.00  0.00    -0.304 C  
BRANCH   6   7
HETATM    7  O   UNL     1      -8.754   9.582  65.800  1.00  0.00    -0.135 OA 
BRANCH   7   8
HETATM    8  C   UNL     1      -9.081   9.078  67.009  1.00  0.00    -0.130 A  
HETATM    9  N   UNL     1      -8.945   9.817  68.109  1.00  0.00    -0.119 NA 
HETATM   10  N   UNL     1      -9.339   8.975  69.094  1.00  0.00    -0.147 NA 
HETATM   11  C   UNL     1     -10.438   5.532  67.108  1.00  0.00    -0.321 A  
HETATM   12  C   UNL     1      -9.755   7.740  68.636  1.00  0.00    -0.157 A  
HETATM   13  C   UNL     1     -10.239   6.597  69.289  1.00  0.00    -0.206 A  
HETATM   14  C   UNL     1      -9.604   7.794  67.252  1.00  0.00    -0.207 A  
HETATM   15  C   UNL     1      -9.949   6.677  66.470  1.00  0.00    -0.148 A  
HETATM   16  C   UNL     1     -10.578   5.494  68.495  1.00  0.00    -0.208 A  
BRANCH  10  17
HETATM   17  C   UNL     1      -9.363   9.458  70.470  1.00  0.00    -0.262 C  
BRANCH  17  18
HETATM   18  C   UNL     1     -10.767   9.614  71.003  1.00  0.00    -0.393 A  
HETATM   19  C   UNL     1     -11.606  10.640  70.538  1.00  0.00    -0.444 A  
HETATM   20  C   UNL     1     -13.376   9.897  72.004  1.00  0.00    -0.532 A  
HETATM   21  C   UNL     1     -12.564   8.858  72.455  1.00  0.00    -0.423 A  
HETATM   22  C   UNL     1     -12.900  10.784  71.041  1.00  0.00    -0.480 A  
HETATM   23  C   UNL     1     -11.268   8.714  71.955  1.00  0.00    -0.434 A  
ENDBRANCH  17  18
ENDBRANCH  10  17
ENDBRANCH   7   8
ENDBRANCH   6   7
ENDBRANCH   5   6
ENDBRANCH   4   5
ENDBRANCH   2   4
TORSDOF 7
ENDMDL
MODEL       75
REMARK 921   NORMALIZED FREE ENERGY PREDICTED BY IDOCK:   -5.41 KCAL/MOL
REMARK 922        TOTAL FREE ENERGY PREDICTED BY IDOCK:   -8.02 KCAL/MOL
REMARK 923 INTER-LIGAND FREE ENERGY PREDICTED BY IDOCK:   -7.16 KCAL/MOL
REMARK 924 INTRA-LIGAND FREE ENERGY PREDICTED BY IDOCK:   -0.86 KCAL/MOL
REMARK 927      BINDING AFFINITY PREDICTED BY RF-SCORE:    0.00 PKD
ROOT
HETATM    1  C   UNL     1     -13.806  15.251  72.042  1.00  0.00    -0.522 C  
HETATM    2  N   UNL     1     -13.148  14.590  70.911  1.00  0.00    -0.361 NA 
HETATM    3  C   UNL     1     -12.334  15.565  70.182  1.00  0.00    -0.353 C  
ENDROOT
BRANCH   2   4
HETATM    4  C   UNL     1     -12.353  13.448  71.400  1.00  0.00    -0.118 C  
BRANCH   4   5
HETATM    5  C   UNL     1     -13.198  12.256  71.855  1.00  0.00    -0.481 C  
BRANCH   5   6
HETATM    6  C   UNL     1     -12.974  11.050  70.949  1.00  0.00    -0.224 C  
BRANCH   6   7
HETATM    7  O   UNL     1     -11.605  10.662  71.083  1.00  0.00    -0.270 OA 
BRANCH   7   8
HETATM    8  C   UNL     1     -11.019  10.341  69.910  1.00  0.00    -0.303 A  
HETATM    9  N   UNL     1     -10.520  11.292  69.122  1.00  0.00    -0.195 NA 
HETATM   10  N   UNL     1     -10.055  10.593  68.058  1.00  0.00    -0.154 NA 
HETATM   11  C   UNL     1     -10.815   6.655  69.017  1.00  0.00    -0.324 A  
HETATM   12  C   UNL     1     -10.215   9.227  68.177  1.00  0.00    -0.205 A  
HETATM   13  C   UNL     1      -9.879   8.153  67.340  1.00  0.00    -0.242 A  
HETATM   14  C   UNL     1     -10.841   9.038  69.407  1.00  0.00    -0.152 A  
HETATM   15  C   UNL     1     -11.149   7.735  69.840  1.00  0.00    -0.142 A  
HETATM   16  C   UNL     1     -10.193   6.863  67.786  1.00  0.00    -0.224 A  
BRANCH  10  17
HETATM   17  C   UNL     1      -9.387  11.311  66.978  1.00  0.00    -0.172 C  
BRANCH  17  18
HETATM   18  C   UNL     1     -10.331  11.677  65.857  1.00  0.00    -0.289 A  
HETATM   19  C   UNL     1     -10.040  11.335  64.527  1.00  0.00    -0.348 A  
HETATM   20  C   UNL     1     -12.093  12.367  63.781  1.00  0.00    -0.618 A  
HETATM   21  C   UNL     1     -12.407  12.689  65.100  1.00  0.00    -0.547 A  
HETATM   22  C   UNL     1     -10.913  11.684  63.496  1.00  0.00    -0.485 A  
HETATM   23  C   UNL     1     -11.534  12.344  66.133  1.00  0.00    -0.430 A  
ENDBRANCH  17  18
ENDBRANCH  10  17
ENDBRANCH   7   8
ENDBRANCH   6   7
ENDBRANCH   5   6
ENDBRANCH   4   5
ENDBRANCH   2   4
TORSDOF 7
ENDMDL
MODEL       76
REMARK 921   NORMALIZED FREE ENERGY PREDICTED BY IDOCK:   -5.41 KCAL/MOL
REMARK 922        TOTAL FREE ENERGY PREDICTED BY IDOCK:   -8.01 KCAL/MOL
REMARK 923 INTER-LIGAND FREE ENERGY PREDICTED BY IDOCK:   -7.32 KCAL/MOL
REMARK 924 INTRA-LIGAND FREE ENERGY PREDICTED BY IDOCK:   -0.69 KCAL/MOL
REMARK 927      BINDING AFFINITY PREDICTED BY RF-SCORE:    0.00 PKD
ROOT
HETATM    1  C   UNL     1     -11.248   6.592  67.383  1.00  0.00    -0.213 C  
HETATM    2  N   UNL     1     -10.612   6.884  68.672  1.00  0.00    -0.215 NA 
HETATM    3  C   UNL     1     -10.527   5.654  69.462  1.00  0.00    -0.302 C  
ENDROOT
BRANCH   2   4
HETATM    4  C   UNL     1      -9.291   7.497  68.443  1.00  0.00    -0.141 C  
BRANCH   4   5
HETATM    5  C   UNL     1      -9.264   9.010  68.676  1.00  0.00    -0.136 C  
BRANCH   5   6
HETATM    6  C   UNL     1      -9.441   9.768  67.364  1.00  0.00    -0.152 C  
BRANCH   6   7
HETATM    7  O   UNL     1      -8.806  11.038  67.514  1.00  0.00    -0.130 OA 
BRANCH   7   8
HETATM    8  C   UNL     1      -9.675  12.065  67.629  1.00  0.00    -0.187 A  
HETATM    9  N   UNL     1      -9.637  12.868  68.691  1.00  0.00    -0.090 NA 
HETATM   10  N   UNL     1     -10.653  13.732  68.457  1.00  0.00    -0.249 NA 
HETATM   11  C   UNL     1     -12.146  12.578  64.790  1.00  0.00    -0.497 A  
HETATM   12  C   UNL     1     -11.301  13.517  67.257  1.00  0.00    -0.315 A  
HETATM   13  C   UNL     1     -12.374  14.163  66.625  1.00  0.00    -0.375 A  
HETATM   14  C   UNL     1     -10.657  12.423  66.685  1.00  0.00    -0.256 A  
HETATM   15  C   UNL     1     -11.080  11.940  65.433  1.00  0.00    -0.360 A  
HETATM   16  C   UNL     1     -12.783  13.670  65.380  1.00  0.00    -0.500 A  
BRANCH  10  17
HETATM   17  C   UNL     1     -10.900  14.808  69.410  1.00  0.00    -0.255 C  
BRANCH  17  18
HETATM   18  C   UNL     1     -12.015  14.481  70.375  1.00  0.00    -0.386 A  
HETATM   19  C   UNL     1     -12.927  15.466  70.785  1.00  0.00    -0.510 A  
HETATM   20  C   UNL     1     -14.083  13.861  72.172  1.00  0.00    -0.630 A  
HETATM   21  C   UNL     1     -13.201  12.867  71.752  1.00  0.00    -0.479 A  
HETATM   22  C   UNL     1     -13.951  15.159  71.683  1.00  0.00    -0.618 A  
HETATM   23  C   UNL     1     -12.175  13.173  70.857  1.00  0.00    -0.330 A  
ENDBRANCH  17  18
ENDBRANCH  10  17
ENDBRANCH   7   8
ENDBRANCH   6   7
ENDBRANCH   5   6
ENDBRANCH   4   5
ENDBRANCH   2   4
TORSDOF 7
ENDMDL
MODEL       77
REMARK 921   NORMALIZED FREE ENERGY PREDICTED BY IDOCK:   -5.40 KCAL/MOL
REMARK 922        TOTAL FREE ENERGY PREDICTED BY IDOCK:   -8.00 KCAL/MOL
REMARK 923 INTER-LIGAND FREE ENERGY PREDICTED BY IDOCK:   -7.20 KCAL/MOL
REMARK 924 INTRA-LIGAND FREE ENERGY PREDICTED BY IDOCK:   -0.79 KCAL/MOL
REMARK 927      BINDING AFFINITY PREDICTED BY RF-SCORE:    0.00 PKD
ROOT
HETATM    1  C   UNL     1      -9.303   6.163  70.584  1.00  0.00    -0.165 C  
HETATM    2  N   UNL     1      -8.166   6.633  69.786  1.00  0.00    -0.125 NA 
HETATM    3  C   UNL     1      -8.526   6.618  68.367  1.00  0.00    -0.125 C  
ENDROOT
BRANCH   2   4
HETATM    4  C   UNL     1      -7.759   7.973  70.248  1.00  0.00    -0.086 C  
BRANCH   4   5
HETATM    5  C   UNL     1      -7.444   8.950  69.113  1.00  0.00    -0.073 C  
BRANCH   5   6
HETATM    6  C   UNL     1      -8.083  10.311  69.370  1.00  0.00    -0.163 C  
BRANCH   6   7
HETATM    7  O   UNL     1      -9.262  10.388  68.567  1.00  0.00    -0.134 OA 
BRANCH   7   8
HETATM    8  C   UNL     1     -10.266  11.079  69.149  1.00  0.00    -0.166 A  
HETATM    9  N   UNL     1     -10.561  12.313  68.743  1.00  0.00    -0.221 NA 
HETATM   10  N   UNL     1     -11.577  12.670  69.564  1.00  0.00    -0.293 NA 
HETATM   11  C   UNL     1     -12.208   9.337  71.909  1.00  0.00    -0.448 A  
HETATM   12  C   UNL     1     -11.953  11.678  70.447  1.00  0.00    -0.358 A  
HETATM   13  C   UNL     1     -12.938  11.614  71.444  1.00  0.00    -0.426 A  
HETATM   14  C   UNL     1     -11.102  10.608  70.178  1.00  0.00    -0.341 A  
HETATM   15  C   UNL     1     -11.226   9.416  70.916  1.00  0.00    -0.393 A  
HETATM   16  C   UNL     1     -13.047  10.420  72.169  1.00  0.00    -0.427 A  
BRANCH  10  17
HETATM   17  C   UNL     1     -12.202  13.976  69.388  1.00  0.00    -0.292 C  
BRANCH  17  18
HETATM   18  C   UNL     1     -12.436  14.686  70.701  1.00  0.00    -0.408 A  
HETATM   19  C   UNL     1     -11.359  15.149  71.473  1.00  0.00    -0.388 A  
HETATM   20  C   UNL     1     -12.884  16.003  73.141  1.00  0.00    -0.620 A  
HETATM   21  C   UNL     1     -13.963  15.572  72.371  1.00  0.00    -0.653 A  
HETATM   22  C   UNL     1     -11.582  15.797  72.689  1.00  0.00    -0.446 A  
HETATM   23  C   UNL     1     -13.742  14.921  71.157  1.00  0.00    -0.452 A  
ENDBRANCH  17  18
ENDBRANCH  10  17
ENDBRANCH   7   8
ENDBRANCH   6   7
ENDBRANCH   5   6
ENDBRANCH   4   5
ENDBRANCH   2   4
TORSDOF 7
ENDMDL
MODEL       78
REMARK 921   NORMALIZED FREE ENERGY PREDICTED BY IDOCK:   -5.40 KCAL/MOL
REMARK 922        TOTAL FREE ENERGY PREDICTED BY IDOCK:   -7.99 KCAL/MOL
REMARK 923 INTER-LIGAND FREE ENERGY PREDICTED BY IDOCK:   -7.07 KCAL/MOL
REMARK 924 INTRA-LIGAND FREE ENERGY PREDICTED BY IDOCK:   -0.92 KCAL/MOL
REMARK 927      BINDING AFFINITY PREDICTED BY RF-SCORE:    0.00 PKD
ROOT
HETATM    1  C   UNL     1     -10.891  15.763  68.423  1.00  0.00    -0.297 C  
HETATM    2  N   UNL     1     -10.719  16.065  66.998  1.00  0.00    -0.308 NA 
HETATM    3  C   UNL     1      -9.943  17.297  66.850  1.00  0.00    -0.294 C  
ENDROOT
BRANCH   2   4
HETATM    4  C   UNL     1     -10.086  14.917  66.324  1.00  0.00    -0.283 C  
BRANCH   4   5
HETATM    5  C   UNL     1     -10.973  14.254  65.267  1.00  0.00    -0.347 C  
BRANCH   5   6
HETATM    6  C   UNL     1     -12.322  13.856  65.858  1.00  0.00    -0.483 C  
BRANCH   6   7
HETATM    7  O   UNL     1     -12.434  12.436  65.749  1.00  0.00    -0.615 OA 
BRANCH   7   8
HETATM    8  C   UNL     1     -11.650  11.765  66.620  1.00  0.00    -0.197 A  
HETATM    9  N   UNL     1     -11.786  11.949  67.932  1.00  0.00    -0.552 NA 
HETATM   10  N   UNL     1     -10.831  11.144  68.455  1.00  0.00    -0.190 NA 
HETATM   11  C   UNL     1      -9.124   9.328  65.169  1.00  0.00    -0.263 A  
HETATM   12  C   UNL     1     -10.126  10.430  67.506  1.00  0.00    -0.192 A  
HETATM   13  C   UNL     1      -9.083   9.497  67.598  1.00  0.00    -0.131 A  
HETATM   14  C   UNL     1     -10.664  10.818  66.281  1.00  0.00    -0.205 A  
HETATM   15  C   UNL     1     -10.161  10.263  65.091  1.00  0.00    -0.355 A  
HETATM   16  C   UNL     1      -8.593   8.954  66.403  1.00  0.00    -0.136 A  
BRANCH  10  17
HETATM   17  C   UNL     1     -10.701  11.049  69.904  1.00  0.00     0.006 C  
BRANCH  17  18
HETATM   18  C   UNL     1     -11.553   9.949  70.491  1.00  0.00    -0.386 A  
HETATM   19  C   UNL     1     -12.780  10.238  71.109  1.00  0.00    -0.502 A  
HETATM   20  C   UNL     1     -13.128   7.894  71.580  1.00  0.00    -0.361 A  
HETATM   21  C   UNL     1     -11.925   7.591  70.945  1.00  0.00    -0.278 A  
HETATM   22  C   UNL     1     -13.559   9.217  71.656  1.00  0.00    -0.451 A  
HETATM   23  C   UNL     1     -11.143   8.610  70.400  1.00  0.00    -0.250 A  
ENDBRANCH  17  18
ENDBRANCH  10  17
ENDBRANCH   7   8
ENDBRANCH   6   7
ENDBRANCH   5   6
ENDBRANCH   4   5
ENDBRANCH   2   4
TORSDOF 7
ENDMDL
MODEL       79
REMARK 921   NORMALIZED FREE ENERGY PREDICTED BY IDOCK:   -5.39 KCAL/MOL
REMARK 922        TOTAL FREE ENERGY PREDICTED BY IDOCK:   -7.99 KCAL/MOL
REMARK 923 INTER-LIGAND FREE ENERGY PREDICTED BY IDOCK:   -7.40 KCAL/MOL
REMARK 924 INTRA-LIGAND FREE ENERGY PREDICTED BY IDOCK:   -0.59 KCAL/MOL
REMARK 927      BINDING AFFINITY PREDICTED BY RF-SCORE:    0.00 PKD
ROOT
HETATM    1  C   UNL     1      -9.438  15.354  69.088  1.00  0.00    -0.242 C  
HETATM    2  N   UNL     1     -10.176  16.578  69.418  1.00  0.00    -0.277 NA 
HETATM    3  C   UNL     1     -10.639  17.216  68.184  1.00  0.00    -0.380 C  
ENDROOT
BRANCH   2   4
HETATM    4  C   UNL     1     -11.285  16.254  70.333  1.00  0.00    -0.324 C  
BRANCH   4   5
HETATM    5  C   UNL     1     -11.291  14.798  70.806  1.00  0.00    -0.217 C  
BRANCH   5   6
HETATM    6  C   UNL     1     -12.511  14.055  70.270  1.00  0.00    -0.338 C  
BRANCH   6   7
HETATM    7  O   UNL     1     -12.448  12.716  70.766  1.00  0.00    -0.348 OA 
BRANCH   7   8
HETATM    8  C   UNL     1     -11.920  11.840  69.884  1.00  0.00    -0.332 A  
HETATM    9  N   UNL     1     -11.747  12.185  68.609  1.00  0.00    -0.315 NA 
HETATM   10  N   UNL     1     -11.233  11.061  68.056  1.00  0.00    -0.286 NA 
HETATM   11  C   UNL     1     -10.911   8.428  71.214  1.00  0.00    -0.293 A  
HETATM   12  C   UNL     1     -11.042  10.034  68.959  1.00  0.00    -0.180 A  
HETATM   13  C   UNL     1     -10.538   8.732  68.826  1.00  0.00    -0.174 A  
HETATM   14  C   UNL     1     -11.479  10.537  70.182  1.00  0.00    -0.405 A  
HETATM   15  C   UNL     1     -11.415   9.728  71.331  1.00  0.00    -0.435 A  
HETATM   16  C   UNL     1     -10.482   7.940  69.980  1.00  0.00    -0.231 A  
BRANCH  10  17
HETATM   17  C   UNL     1     -10.871  11.071  66.643  1.00  0.00    -0.225 C  
BRANCH  17  18
HETATM   18  C   UNL     1     -11.070  12.424  66.004  1.00  0.00    -0.344 A  
HETATM   19  C   UNL     1     -12.294  12.768  65.407  1.00  0.00    -0.528 A  
HETATM   20  C   UNL     1     -11.428  14.944  64.816  1.00  0.00    -0.410 A  
HETATM   21  C   UNL     1     -10.217  14.627  65.429  1.00  0.00    -0.415 A  
HETATM   22  C   UNL     1     -12.468  14.018  64.811  1.00  0.00    -0.392 A  
HETATM   23  C   UNL     1     -10.039  13.376  66.023  1.00  0.00    -0.308 A  
ENDBRANCH  17  18
ENDBRANCH  10  17
ENDBRANCH   7   8
ENDBRANCH   6   7
ENDBRANCH   5   6
ENDBRANCH   4   5
ENDBRANCH   2   4
TORSDOF 7
ENDMDL
MODEL       80
REMARK 921   NORMALIZED FREE ENERGY PREDICTED BY IDOCK:   -5.39 KCAL/MOL
REMARK 922        TOTAL FREE ENERGY PREDICTED BY IDOCK:   -7.99 KCAL/MOL
REMARK 923 INTER-LIGAND FREE ENERGY PREDICTED BY IDOCK:   -6.99 KCAL/MOL
REMARK 924 INTRA-LIGAND FREE ENERGY PREDICTED BY IDOCK:   -1.00 KCAL/MOL
REMARK 927      BINDING AFFINITY PREDICTED BY RF-SCORE:    0.00 PKD
ROOT
HETATM    1  C   UNL     1     -10.339   8.074  66.703  1.00  0.00    -0.203 C  
HETATM    2  N   UNL     1      -9.602   9.302  66.386  1.00  0.00    -0.217 NA 
HETATM    3  C   UNL     1      -9.099   9.228  65.013  1.00  0.00    -0.188 C  
ENDROOT
BRANCH   2   4
HETATM    4  C   UNL     1     -10.473  10.471  66.604  1.00  0.00    -0.228 C  
BRANCH   4   5
HETATM    5  C   UNL     1     -10.596  11.386  65.383  1.00  0.00    -0.333 C  
BRANCH   5   6
HETATM    6  C   UNL     1     -10.280  12.832  65.750  1.00  0.00    -0.289 C  
BRANCH   6   7
HETATM    7  O   UNL     1      -9.309  12.806  66.798  1.00  0.00    -0.230 OA 
BRANCH   7   8
HETATM    8  C   UNL     1      -9.440  13.821  67.678  1.00  0.00    -0.217 A  
HETATM    9  N   UNL     1      -8.629  14.876  67.617  1.00  0.00    -0.165 NA 
HETATM   10  N   UNL     1      -9.047  15.643  68.653  1.00  0.00    -0.195 NA 
HETATM   11  C   UNL     1     -12.221  13.550  70.250  1.00  0.00    -0.417 A  
HETATM   12  C   UNL     1     -10.124  15.114  69.337  1.00  0.00    -0.240 A  
HETATM   13  C   UNL     1     -10.864  15.563  70.440  1.00  0.00    -0.356 A  
HETATM   14  C   UNL     1     -10.408  13.910  68.696  1.00  0.00    -0.237 A  
HETATM   15  C   UNL     1     -11.472  13.111  69.154  1.00  0.00    -0.358 A  
HETATM   16  C   UNL     1     -11.919  14.756  70.883  1.00  0.00    -0.384 A  
BRANCH  10  17
HETATM   17  C   UNL     1      -8.404  16.931  68.884  1.00  0.00    -0.208 C  
BRANCH  17  18
HETATM   18  C   UNL     1      -8.928  18.011  67.968  1.00  0.00    -0.274 A  
HETATM   19  C   UNL     1      -8.077  18.669  67.066  1.00  0.00    -0.259 A  
HETATM   20  C   UNL     1      -9.914  20.021  66.271  1.00  0.00    -0.597 A  
HETATM   21  C   UNL     1     -10.776  19.358  67.143  1.00  0.00    -0.593 A  
HETATM   22  C   UNL     1      -8.566  19.672  66.228  1.00  0.00    -0.393 A  
HETATM   23  C   UNL     1     -10.288  18.356  67.984  1.00  0.00    -0.410 A  
ENDBRANCH  17  18
ENDBRANCH  10  17
ENDBRANCH   7   8
ENDBRANCH   6   7
ENDBRANCH   5   6
ENDBRANCH   4   5
ENDBRANCH   2   4
TORSDOF 7
ENDMDL
MODEL       81
REMARK 921   NORMALIZED FREE ENERGY PREDICTED BY IDOCK:   -5.39 KCAL/MOL
REMARK 922        TOTAL FREE ENERGY PREDICTED BY IDOCK:   -7.98 KCAL/MOL
REMARK 923 INTER-LIGAND FREE ENERGY PREDICTED BY IDOCK:   -6.76 KCAL/MOL
REMARK 924 INTRA-LIGAND FREE ENERGY PREDICTED BY IDOCK:   -1.22 KCAL/MOL
REMARK 927      BINDING AFFINITY PREDICTED BY RF-SCORE:    0.00 PKD
ROOT
HETATM    1  C   UNL     1     -11.692   9.662  71.515  1.00  0.00    -0.400 C  
HETATM    2  N   UNL     1     -11.401   9.942  70.104  1.00  0.00    -0.266 NA 
HETATM    3  C   UNL     1     -11.775  11.323  69.794  1.00  0.00    -0.349 C  
ENDROOT
BRANCH   2   4
HETATM    4  C   UNL     1      -9.979   9.668  69.830  1.00  0.00    -0.227 C  
BRANCH   4   5
HETATM    5  C   UNL     1      -9.647   9.553  68.340  1.00  0.00    -0.152 C  
BRANCH   5   6
HETATM    6  C   UNL     1      -8.380  10.331  68.000  1.00  0.00    -0.114 C  
BRANCH   6   7
HETATM    7  O   UNL     1      -8.645  11.081  66.813  1.00  0.00    -0.142 OA 
BRANCH   7   8
HETATM    8  C   UNL     1      -9.405  12.176  67.027  1.00  0.00    -0.201 A  
HETATM    9  N   UNL     1      -9.079  13.050  67.978  1.00  0.00    -0.204 NA 
HETATM   10  N   UNL     1     -10.070  13.969  67.901  1.00  0.00    -0.232 NA 
HETATM   11  C   UNL     1     -12.427  12.664  64.778  1.00  0.00    -0.555 A  
HETATM   12  C   UNL     1     -10.987  13.716  66.900  1.00  0.00    -0.289 A  
HETATM   13  C   UNL     1     -12.137  14.393  66.469  1.00  0.00    -0.395 A  
HETATM   14  C   UNL     1     -10.554  12.536  66.298  1.00  0.00    -0.273 A  
HETATM   15  C   UNL     1     -11.280  11.997  65.221  1.00  0.00    -0.374 A  
HETATM   16  C   UNL     1     -12.848  13.842  65.396  1.00  0.00    -0.455 A  
BRANCH  10  17
HETATM   17  C   UNL     1     -10.030  15.128  68.786  1.00  0.00    -0.229 C  
BRANCH  17  18
HETATM   18  C   UNL     1      -9.815  16.421  68.036  1.00  0.00    -0.238 A  
HETATM   19  C   UNL     1     -10.633  17.538  68.272  1.00  0.00    -0.354 A  
HETATM   20  C   UNL     1      -9.406  18.820  66.632  1.00  0.00    -0.339 A  
HETATM   21  C   UNL     1      -8.570  17.727  66.407  1.00  0.00    -0.260 A  
HETATM   22  C   UNL     1     -10.433  18.727  67.569  1.00  0.00    -0.495 A  
HETATM   23  C   UNL     1      -8.770  16.536  67.107  1.00  0.00    -0.216 A  
ENDBRANCH  17  18
ENDBRANCH  10  17
ENDBRANCH   7   8
ENDBRANCH   6   7
ENDBRANCH   5   6
ENDBRANCH   4   5
ENDBRANCH   2   4
TORSDOF 7
ENDMDL
MODEL       82
REMARK 921   NORMALIZED FREE ENERGY PREDICTED BY IDOCK:   -5.37 KCAL/MOL
REMARK 922        TOTAL FREE ENERGY PREDICTED BY IDOCK:   -7.95 KCAL/MOL
REMARK 923 INTER-LIGAND FREE ENERGY PREDICTED BY IDOCK:   -6.96 KCAL/MOL
REMARK 924 INTRA-LIGAND FREE ENERGY PREDICTED BY IDOCK:   -0.99 KCAL/MOL
REMARK 927      BINDING AFFINITY PREDICTED BY RF-SCORE:    0.00 PKD
ROOT
HETATM    1  C   UNL     1      -7.973   6.733  69.451  1.00  0.00    -0.115 C  
HETATM    2  N   UNL     1      -9.196   6.138  68.901  1.00  0.00    -0.125 NA 
HETATM    3  C   UNL     1     -10.303   6.346  69.836  1.00  0.00    -0.196 C  
ENDROOT
BRANCH   2   4
HETATM    4  C   UNL     1      -9.469   6.711  67.570  1.00  0.00    -0.126 C  
BRANCH   4   5
HETATM    5  C   UNL     1     -10.737   7.566  67.514  1.00  0.00    -0.296 C  
BRANCH   5   6
HETATM    6  C   UNL     1     -10.399   9.026  67.228  1.00  0.00    -0.273 C  
BRANCH   6   7
HETATM    7  O   UNL     1      -9.824   9.573  68.416  1.00  0.00    -0.152 OA 
BRANCH   7   8
HETATM    8  C   UNL     1     -10.492  10.644  68.893  1.00  0.00    -0.210 A  
HETATM    9  N   UNL     1     -10.338  11.842  68.332  1.00  0.00    -0.208 NA 
HETATM   10  N   UNL     1     -11.131  12.638  69.088  1.00  0.00    -0.228 NA 
HETATM   11  C   UNL     1     -12.836  10.068  71.826  1.00  0.00    -0.546 A  
HETATM   12  C   UNL     1     -11.807  11.963  70.085  1.00  0.00    -0.308 A  
HETATM   13  C   UNL     1     -12.716  12.380  71.069  1.00  0.00    -0.315 A  
HETATM   14  C   UNL     1     -11.407  10.634  69.963  1.00  0.00    -0.400 A  
HETATM   15  C   UNL     1     -11.925   9.667  70.843  1.00  0.00    -0.391 A  
HETATM   16  C   UNL     1     -13.222  11.404  71.937  1.00  0.00    -0.485 A  
BRANCH  10  17
HETATM   17  C   UNL     1     -11.252  14.050  68.742  1.00  0.00    -0.271 C  
BRANCH  17  18
HETATM   18  C   UNL     1     -11.429  14.268  67.259  1.00  0.00    -0.371 A  
HETATM   19  C   UNL     1     -12.524  13.719  66.573  1.00  0.00    -0.356 A  
HETATM   20  C   UNL     1     -11.746  14.679  64.498  1.00  0.00    -0.410 A  
HETATM   21  C   UNL     1     -10.669  15.253  65.171  1.00  0.00    -0.455 A  
HETATM   22  C   UNL     1     -12.677  13.918  65.200  1.00  0.00    -0.434 A  
HETATM   23  C   UNL     1     -10.512  15.053  66.543  1.00  0.00    -0.285 A  
ENDBRANCH  17  18
ENDBRANCH  10  17
ENDBRANCH   7   8
ENDBRANCH   6   7
ENDBRANCH   5   6
ENDBRANCH   4   5
ENDBRANCH   2   4
TORSDOF 7
ENDMDL
MODEL       83
REMARK 921   NORMALIZED FREE ENERGY PREDICTED BY IDOCK:   -5.35 KCAL/MOL
REMARK 922        TOTAL FREE ENERGY PREDICTED BY IDOCK:   -7.93 KCAL/MOL
REMARK 923 INTER-LIGAND FREE ENERGY PREDICTED BY IDOCK:   -7.44 KCAL/MOL
REMARK 924 INTRA-LIGAND FREE ENERGY PREDICTED BY IDOCK:   -0.49 KCAL/MOL
REMARK 927      BINDING AFFINITY PREDICTED BY RF-SCORE:    0.00 PKD
ROOT
HETATM    1  C   UNL     1     -10.228  17.575  66.370  1.00  0.00    -0.354 C  
HETATM    2  N   UNL     1      -9.454  18.395  67.308  1.00  0.00    -0.274 NA 
HETATM    3  C   UNL     1     -10.007  19.749  67.345  1.00  0.00    -0.400 C  
ENDROOT
BRANCH   2   4
HETATM    4  C   UNL     1      -9.449  17.753  68.636  1.00  0.00    -0.283 C  
BRANCH   4   5
HETATM    5  C   UNL     1     -10.757  17.035  68.980  1.00  0.00    -0.271 C  
BRANCH   5   6
HETATM    6  C   UNL     1     -10.486  15.746  69.749  1.00  0.00    -0.317 C  
BRANCH   6   7
HETATM    7  O   UNL     1     -11.749  15.136  70.020  1.00  0.00    -0.265 OA 
BRANCH   7   8
HETATM    8  C   UNL     1     -11.826  13.852  69.610  1.00  0.00    -0.327 A  
HETATM    9  N   UNL     1     -12.282  12.907  70.430  1.00  0.00    -0.345 NA 
HETATM   10  N   UNL     1     -12.184  11.781  69.683  1.00  0.00    -0.230 NA 
HETATM   11  C   UNL     1     -10.756  13.096  66.045  1.00  0.00    -0.288 A  
HETATM   12  C   UNL     1     -11.716  12.002  68.403  1.00  0.00    -0.332 A  
HETATM   13  C   UNL     1     -11.472  11.147  67.318  1.00  0.00    -0.218 A  
HETATM   14  C   UNL     1     -11.486  13.374  68.330  1.00  0.00    -0.351 A  
HETATM   15  C   UNL     1     -10.999  13.936  67.136  1.00  0.00    -0.298 A  
HETATM   16  C   UNL     1     -10.988  11.723  66.137  1.00  0.00    -0.355 A  
BRANCH  10  17
HETATM   17  C   UNL     1     -12.639  10.516  70.248  1.00  0.00    -0.235 C  
BRANCH  17  18
HETATM   18  C   UNL     1     -11.523   9.744  70.911  1.00  0.00    -0.447 A  
HETATM   19  C   UNL     1     -11.778   8.902  72.006  1.00  0.00    -0.438 A  
HETATM   20  C   UNL     1      -9.438   8.316  72.138  1.00  0.00    -0.328 A  
HETATM   21  C   UNL     1      -9.175   9.127  71.035  1.00  0.00    -0.321 A  
HETATM   22  C   UNL     1     -10.740   8.198  72.619  1.00  0.00    -0.421 A  
HETATM   23  C   UNL     1     -10.211   9.834  70.422  1.00  0.00    -0.343 A  
ENDBRANCH  17  18
ENDBRANCH  10  17
ENDBRANCH   7   8
ENDBRANCH   6   7
ENDBRANCH   5   6
ENDBRANCH   4   5
ENDBRANCH   2   4
TORSDOF 7
ENDMDL
MODEL       84
REMARK 921   NORMALIZED FREE ENERGY PREDICTED BY IDOCK:   -5.34 KCAL/MOL
REMARK 922        TOTAL FREE ENERGY PREDICTED BY IDOCK:   -7.92 KCAL/MOL
REMARK 923 INTER-LIGAND FREE ENERGY PREDICTED BY IDOCK:   -7.06 KCAL/MOL
REMARK 924 INTRA-LIGAND FREE ENERGY PREDICTED BY IDOCK:   -0.86 KCAL/MOL
REMARK 927      BINDING AFFINITY PREDICTED BY RF-SCORE:    0.00 PKD
ROOT
HETATM    1  C   UNL     1      -8.551   7.913  70.359  1.00  0.00    -0.132 C  
HETATM    2  N   UNL     1      -8.795   7.887  68.912  1.00  0.00    -0.141 NA 
HETATM    3  C   UNL     1      -9.605   6.715  68.576  1.00  0.00    -0.125 C  
ENDROOT
BRANCH   2   4
HETATM    4  C   UNL     1      -9.434   9.149  68.497  1.00  0.00    -0.146 C  
BRANCH   4   5
HETATM    5  C   UNL     1      -8.927  10.377  69.257  1.00  0.00    -0.176 C  
BRANCH   5   6
HETATM    6  C   UNL     1      -8.702  11.551  68.309  1.00  0.00    -0.162 C  
BRANCH   6   7
HETATM    7  O   UNL     1      -9.674  12.549  68.625  1.00  0.00    -0.163 OA 
BRANCH   7   8
HETATM    8  C   UNL     1      -9.795  13.503  67.677  1.00  0.00    -0.228 A  
HETATM    9  N   UNL     1      -8.922  14.507  67.614  1.00  0.00    -0.185 NA 
HETATM   10  N   UNL     1      -9.382  15.247  66.577  1.00  0.00    -0.260 NA 
HETATM   11  C   UNL     1     -12.656  13.149  65.205  1.00  0.00    -0.525 A  
HETATM   12  C   UNL     1     -10.497  14.712  65.963  1.00  0.00    -0.305 A  
HETATM   13  C   UNL     1     -11.277  15.129  64.875  1.00  0.00    -0.424 A  
HETATM   14  C   UNL     1     -10.778  13.545  66.671  1.00  0.00    -0.282 A  
HETATM   15  C   UNL     1     -11.873  12.746  66.291  1.00  0.00    -0.485 A  
HETATM   16  C   UNL     1     -12.363  14.323  64.511  1.00  0.00    -0.432 A  
BRANCH  10  17
HETATM   17  C   UNL     1      -8.642  16.438  66.175  1.00  0.00    -0.308 C  
BRANCH  17  18
HETATM   18  C   UNL     1      -9.169  17.694  66.828  1.00  0.00    -0.281 A  
HETATM   19  C   UNL     1     -10.172  18.461  66.214  1.00  0.00    -0.427 A  
HETATM   20  C   UNL     1     -10.139  20.029  68.051  1.00  0.00    -0.557 A  
HETATM   21  C   UNL     1      -9.162  19.263  68.684  1.00  0.00    -0.436 A  
HETATM   22  C   UNL     1     -10.648  19.625  66.819  1.00  0.00    -0.602 A  
HETATM   23  C   UNL     1      -8.682  18.100  68.080  1.00  0.00    -0.276 A  
ENDBRANCH  17  18
ENDBRANCH  10  17
ENDBRANCH   7   8
ENDBRANCH   6   7
ENDBRANCH   5   6
ENDBRANCH   4   5
ENDBRANCH   2   4
TORSDOF 7
ENDMDL
MODEL       85
REMARK 921   NORMALIZED FREE ENERGY PREDICTED BY IDOCK:   -5.31 KCAL/MOL
REMARK 922        TOTAL FREE ENERGY PREDICTED BY IDOCK:   -7.87 KCAL/MOL
REMARK 923 INTER-LIGAND FREE ENERGY PREDICTED BY IDOCK:   -7.24 KCAL/MOL
REMARK 924 INTRA-LIGAND FREE ENERGY PREDICTED BY IDOCK:   -0.63 KCAL/MOL
REMARK 927      BINDING AFFINITY PREDICTED BY RF-SCORE:    0.00 PKD
ROOT
HETATM    1  C   UNL     1      -7.723  13.267  67.331  1.00  0.00    -0.140 C  
HETATM    2  N   UNL     1      -9.088  13.608  66.916  1.00  0.00    -0.246 NA 
HETATM    3  C   UNL     1      -9.111  14.974  66.390  1.00  0.00    -0.277 C  
ENDROOT
BRANCH   2   4
HETATM    4  C   UNL     1      -9.566  12.619  65.934  1.00  0.00    -0.153 C  
BRANCH   4   5
HETATM    5  C   UNL     1      -9.296  11.167  66.336  1.00  0.00    -0.207 C  
BRANCH   5   6
HETATM    6  C   UNL     1     -10.472  10.589  67.116  1.00  0.00    -0.249 C  
BRANCH   6   7
HETATM    7  O   UNL     1     -11.439  11.630  67.269  1.00  0.00    -0.386 OA 
BRANCH   7   8
HETATM    8  C   UNL     1     -11.828  11.820  68.547  1.00  0.00    -0.303 A  
HETATM    9  N   UNL     1     -12.117  10.780  69.328  1.00  0.00    -0.326 NA 
HETATM   10  N   UNL     1     -12.481  11.364  70.494  1.00  0.00    -0.311 NA 
HETATM   11  C   UNL     1     -11.993  15.401  69.803  1.00  0.00    -0.381 A  
HETATM   12  C   UNL     1     -12.389  12.742  70.478  1.00  0.00    -0.275 A  
HETATM   13  C   UNL     1     -12.651  13.725  71.443  1.00  0.00    -0.433 A  
HETATM   14  C   UNL     1     -11.944  13.064  69.197  1.00  0.00    -0.320 A  
HETATM   15  C   UNL     1     -11.740  14.411  68.848  1.00  0.00    -0.357 A  
HETATM   16  C   UNL     1     -12.444  15.061  71.079  1.00  0.00    -0.402 A  
BRANCH  10  17
HETATM   17  C   UNL     1     -12.838  10.519  71.628  1.00  0.00    -0.475 C  
BRANCH  17  18
HETATM   18  C   UNL     1     -12.132   9.184  71.598  1.00  0.00    -0.432 A  
HETATM   19  C   UNL     1     -10.771   9.079  71.926  1.00  0.00    -0.401 A  
HETATM   20  C   UNL     1     -10.831   6.696  71.537  1.00  0.00    -0.277 A  
HETATM   21  C   UNL     1     -12.189   6.782  71.236  1.00  0.00    -0.415 A  
HETATM   22  C   UNL     1     -10.124   7.843  71.889  1.00  0.00    -0.250 A  
HETATM   23  C   UNL     1     -12.838   8.017  71.269  1.00  0.00    -0.221 A  
ENDBRANCH  17  18
ENDBRANCH  10  17
ENDBRANCH   7   8
ENDBRANCH   6   7
ENDBRANCH   5   6
ENDBRANCH   4   5
ENDBRANCH   2   4
TORSDOF 7
ENDMDL
MODEL       86
REMARK 921   NORMALIZED FREE ENERGY PREDICTED BY IDOCK:   -5.29 KCAL/MOL
REMARK 922        TOTAL FREE ENERGY PREDICTED BY IDOCK:   -7.85 KCAL/MOL
REMARK 923 INTER-LIGAND FREE ENERGY PREDICTED BY IDOCK:   -6.79 KCAL/MOL
REMARK 924 INTRA-LIGAND FREE ENERGY PREDICTED BY IDOCK:   -1.06 KCAL/MOL
REMARK 927      BINDING AFFINITY PREDICTED BY RF-SCORE:    0.00 PKD
ROOT
HETATM    1  C   UNL     1     -10.528   7.893  67.043  1.00  0.00    -0.349 C  
HETATM    2  N   UNL     1      -9.625   6.916  67.663  1.00  0.00    -0.125 NA 
HETATM    3  C   UNL     1     -10.090   5.562  67.360  1.00  0.00    -0.179 C  
ENDROOT
BRANCH   2   4
HETATM    4  C   UNL     1      -8.246   7.154  67.198  1.00  0.00    -0.118 C  
BRANCH   4   5
HETATM    5  C   UNL     1      -7.550   8.323  67.900  1.00  0.00    -0.102 C  
BRANCH   5   6
HETATM    6  C   UNL     1      -7.686   8.209  69.415  1.00  0.00    -0.103 C  
BRANCH   6   7
HETATM    7  O   UNL     1      -7.930   9.523  69.922  1.00  0.00    -0.112 OA 
BRANCH   7   8
HETATM    8  C   UNL     1      -9.240   9.840  69.986  1.00  0.00    -0.229 A  
HETATM    9  N   UNL     1      -9.758  10.743  69.153  1.00  0.00    -0.194 NA 
HETATM   10  N   UNL     1     -11.056  10.803  69.537  1.00  0.00    -0.258 NA 
HETATM   11  C   UNL     1     -11.350   8.021  72.568  1.00  0.00    -0.469 A  
HETATM   12  C   UNL     1     -11.374   9.933  70.562  1.00  0.00    -0.327 A  
HETATM   13  C   UNL     1     -12.568   9.664  71.245  1.00  0.00    -0.443 A  
HETATM   14  C   UNL     1     -10.184   9.275  70.864  1.00  0.00    -0.371 A  
HETATM   15  C   UNL     1     -10.164   8.303  71.881  1.00  0.00    -0.314 A  
HETATM   16  C   UNL     1     -12.531   8.694  72.255  1.00  0.00    -0.460 A  
BRANCH  10  17
HETATM   17  C   UNL     1     -11.968  11.678  68.810  1.00  0.00    -0.264 C  
BRANCH  17  18
HETATM   18  C   UNL     1     -12.006  13.076  69.381  1.00  0.00    -0.338 A  
HETATM   19  C   UNL     1     -11.686  14.189  68.589  1.00  0.00    -0.385 A  
HETATM   20  C   UNL     1     -12.079  15.670  70.456  1.00  0.00    -0.430 A  
HETATM   21  C   UNL     1     -12.425  14.576  71.248  1.00  0.00    -0.416 A  
HETATM   22  C   UNL     1     -11.716  15.477  69.126  1.00  0.00    -0.380 A  
HETATM   23  C   UNL     1     -12.393  13.286  70.714  1.00  0.00    -0.425 A  
ENDBRANCH  17  18
ENDBRANCH  10  17
ENDBRANCH   7   8
ENDBRANCH   6   7
ENDBRANCH   5   6
ENDBRANCH   4   5
ENDBRANCH   2   4
TORSDOF 7
ENDMDL
MODEL       87
REMARK 921   NORMALIZED FREE ENERGY PREDICTED BY IDOCK:   -5.29 KCAL/MOL
REMARK 922        TOTAL FREE ENERGY PREDICTED BY IDOCK:   -7.84 KCAL/MOL
REMARK 923 INTER-LIGAND FREE ENERGY PREDICTED BY IDOCK:   -6.77 KCAL/MOL
REMARK 924 INTRA-LIGAND FREE ENERGY PREDICTED BY IDOCK:   -1.07 KCAL/MOL
REMARK 927      BINDING AFFINITY PREDICTED BY RF-SCORE:    0.00 PKD
ROOT
HETATM    1  C   UNL     1      -7.963   9.339  66.082  1.00  0.00    -0.107 C  
HETATM    2  N   UNL     1      -8.518   8.362  67.026  1.00  0.00    -0.120 NA 
HETATM    3  C   UNL     1      -7.768   8.418  68.282  1.00  0.00    -0.106 C  
ENDROOT
BRANCH   2   4
HETATM    4  C   UNL     1      -9.956   8.624  67.218  1.00  0.00    -0.219 C  
BRANCH   4   5
HETATM    5  C   UNL     1     -10.256   9.658  68.306  1.00  0.00    -0.216 C  
BRANCH   5   6
HETATM    6  C   UNL     1     -11.255  10.698  67.811  1.00  0.00    -0.313 C  
BRANCH   6   7
HETATM    7  O   UNL     1     -10.520  11.690  67.092  1.00  0.00    -0.208 OA 
BRANCH   7   8
HETATM    8  C   UNL     1     -10.446  12.876  67.734  1.00  0.00    -0.220 A  
HETATM    9  N   UNL     1     -11.555  13.536  68.063  1.00  0.00    -0.316 NA 
HETATM   10  N   UNL     1     -11.079  14.659  68.651  1.00  0.00    -0.251 NA 
HETATM   11  C   UNL     1      -6.984  14.180  68.591  1.00  0.00    -0.107 A  
HETATM   12  C   UNL     1      -9.701  14.702  68.734  1.00  0.00    -0.217 A  
HETATM   13  C   UNL     1      -8.809  15.647  69.259  1.00  0.00    -0.264 A  
HETATM   14  C   UNL     1      -9.263  13.519  68.143  1.00  0.00    -0.208 A  
HETATM   15  C   UNL     1      -7.885  13.248  68.067  1.00  0.00    -0.148 A  
HETATM   16  C   UNL     1      -7.440  15.361  69.175  1.00  0.00    -0.189 A  
BRANCH  10  17
HETATM   17  C   UNL     1     -12.024  15.631  69.189  1.00  0.00    -0.310 C  
BRANCH  17  18
HETATM   18  C   UNL     1     -12.378  15.356  70.631  1.00  0.00    -0.451 A  
HETATM   19  C   UNL     1     -13.336  14.387  70.968  1.00  0.00    -0.359 A  
HETATM   20  C   UNL     1     -13.028  14.857  73.318  1.00  0.00    -0.635 A  
HETATM   21  C   UNL     1     -12.056  15.803  72.999  1.00  0.00    -0.601 A  
HETATM   22  C   UNL     1     -13.663  14.144  72.303  1.00  0.00    -0.623 A  
HETATM   23  C   UNL     1     -11.729  16.050  71.664  1.00  0.00    -0.583 A  
ENDBRANCH  17  18
ENDBRANCH  10  17
ENDBRANCH   7   8
ENDBRANCH   6   7
ENDBRANCH   5   6
ENDBRANCH   4   5
ENDBRANCH   2   4
TORSDOF 7
ENDMDL
MODEL       88
REMARK 921   NORMALIZED FREE ENERGY PREDICTED BY IDOCK:   -5.27 KCAL/MOL
REMARK 922        TOTAL FREE ENERGY PREDICTED BY IDOCK:   -7.81 KCAL/MOL
REMARK 923 INTER-LIGAND FREE ENERGY PREDICTED BY IDOCK:   -7.13 KCAL/MOL
REMARK 924 INTRA-LIGAND FREE ENERGY PREDICTED BY IDOCK:   -0.68 KCAL/MOL
REMARK 927      BINDING AFFINITY PREDICTED BY RF-SCORE:    0.00 PKD
ROOT
HETATM    1  C   UNL     1     -14.020   8.667  72.274  1.00  0.00    -0.409 C  
HETATM    2  N   UNL     1     -12.622   8.232  72.189  1.00  0.00    -0.339 NA 
HETATM    3  C   UNL     1     -12.524   7.075  71.297  1.00  0.00    -0.386 C  
ENDROOT
BRANCH   2   4
HETATM    4  C   UNL     1     -11.781   9.358  71.743  1.00  0.00    -0.374 C  
BRANCH   4   5
HETATM    5  C   UNL     1     -12.540  10.681  71.610  1.00  0.00    -0.482 C  
BRANCH   5   6
HETATM    6  C   UNL     1     -12.360  11.277  70.218  1.00  0.00    -0.307 C  
BRANCH   6   7
HETATM    7  O   UNL     1     -12.263  12.695  70.368  1.00  0.00    -0.349 OA 
BRANCH   7   8
HETATM    8  C   UNL     1     -11.452  13.278  69.460  1.00  0.00    -0.234 A  
HETATM    9  N   UNL     1     -10.921  12.563  68.470  1.00  0.00    -0.238 NA 
HETATM   10  N   UNL     1     -10.169  13.472  67.805  1.00  0.00    -0.238 NA 
HETATM   11  C   UNL     1     -10.822  17.006  69.828  1.00  0.00     0.091 A  
HETATM   12  C   UNL     1     -10.246  14.747  68.329  1.00  0.00    -0.227 A  
HETATM   13  C   UNL     1      -9.654  15.964  67.962  1.00  0.00    -0.211 A  
HETATM   14  C   UNL     1     -11.105  14.642  69.421  1.00  0.00    -0.293 A  
HETATM   15  C   UNL     1     -11.402  15.784  70.186  1.00  0.00    -0.361 A  
HETATM   16  C   UNL     1      -9.961  17.092  68.734  1.00  0.00    -0.293 A  
BRANCH  10  17
HETATM   17  C   UNL     1      -9.450  13.055  66.607  1.00  0.00    -0.256 C  
BRANCH  17  18
HETATM   18  C   UNL     1     -10.375  12.763  65.449  1.00  0.00    -0.310 A  
HETATM   19  C   UNL     1     -10.057  11.778  64.500  1.00  0.00    -0.312 A  
HETATM   20  C   UNL     1     -12.104  12.231  63.300  1.00  0.00    -0.518 A  
HETATM   21  C   UNL     1     -12.445  13.193  64.250  1.00  0.00    -0.358 A  
HETATM   22  C   UNL     1     -10.913  11.520  63.429  1.00  0.00    -0.397 A  
HETATM   23  C   UNL     1     -11.589  13.455  65.320  1.00  0.00    -0.329 A  
ENDBRANCH  17  18
ENDBRANCH  10  17
ENDBRANCH   7   8
ENDBRANCH   6   7
ENDBRANCH   5   6
ENDBRANCH   4   5
ENDBRANCH   2   4
TORSDOF 7
ENDMDL
MODEL       89
REMARK 921   NORMALIZED FREE ENERGY PREDICTED BY IDOCK:   -5.26 KCAL/MOL
REMARK 922        TOTAL FREE ENERGY PREDICTED BY IDOCK:   -7.80 KCAL/MOL
REMARK 923 INTER-LIGAND FREE ENERGY PREDICTED BY IDOCK:   -6.80 KCAL/MOL
REMARK 924 INTRA-LIGAND FREE ENERGY PREDICTED BY IDOCK:   -1.00 KCAL/MOL
REMARK 927      BINDING AFFINITY PREDICTED BY RF-SCORE:    0.00 PKD
ROOT
HETATM    1  C   UNL     1     -10.006  17.024  66.668  1.00  0.00    -0.302 C  
HETATM    2  N   UNL     1      -9.648  17.686  67.926  1.00  0.00    -0.275 NA 
HETATM    3  C   UNL     1     -10.265  19.013  67.972  1.00  0.00    -0.399 C  
ENDROOT
BRANCH   2   4
HETATM    4  C   UNL     1     -10.054  16.838  69.062  1.00  0.00    -0.283 C  
BRANCH   4   5
HETATM    5  C   UNL     1     -11.337  16.043  68.812  1.00  0.00    -0.380 C  
BRANCH   5   6
HETATM    6  C   UNL     1     -11.200  14.611  69.321  1.00  0.00    -0.282 C  
BRANCH   6   7
HETATM    7  O   UNL     1     -12.257  13.847  68.737  1.00  0.00    -0.348 OA 
BRANCH   7   8
HETATM    8  C   UNL     1     -11.831  12.950  67.823  1.00  0.00    -0.339 A  
HETATM    9  N   UNL     1     -11.339  11.773  68.208  1.00  0.00    -0.257 NA 
HETATM   10  N   UNL     1     -11.006  11.182  67.036  1.00  0.00    -0.288 NA 
HETATM   11  C   UNL     1     -12.156  13.907  64.162  1.00  0.00    -0.464 A  
HETATM   12  C   UNL     1     -11.313  11.941  65.924  1.00  0.00    -0.308 A  
HETATM   13  C   UNL     1     -11.153  11.721  64.548  1.00  0.00    -0.376 A  
HETATM   14  C   UNL     1     -11.874  13.114  66.425  1.00  0.00    -0.455 A  
HETATM   15  C   UNL     1     -12.305  14.116  65.537  1.00  0.00    -0.472 A  
HETATM   16  C   UNL     1     -11.587  12.729  63.677  1.00  0.00    -0.572 A  
BRANCH  10  17
HETATM   17  C   UNL     1     -10.459   9.831  67.055  1.00  0.00    -0.227 C  
BRANCH  17  18
HETATM   18  C   UNL     1      -9.029   9.779  66.570  1.00  0.00    -0.172 A  
HETATM   19  C   UNL     1      -8.549   8.670  65.856  1.00  0.00    -0.177 A  
HETATM   20  C   UNL     1      -6.368   9.693  65.676  1.00  0.00    -0.069 A  
HETATM   21  C   UNL     1      -6.839  10.812  66.361  1.00  0.00    -0.135 A  
HETATM   22  C   UNL     1      -7.224   8.625  65.418  1.00  0.00    -0.083 A  
HETATM   23  C   UNL     1      -8.163  10.857  66.803  1.00  0.00    -0.140 A  
ENDBRANCH  17  18
ENDBRANCH  10  17
ENDBRANCH   7   8
ENDBRANCH   6   7
ENDBRANCH   5   6
ENDBRANCH   4   5
ENDBRANCH   2   4
TORSDOF 7
ENDMDL
MODEL       90
REMARK 921   NORMALIZED FREE ENERGY PREDICTED BY IDOCK:   -5.23 KCAL/MOL
REMARK 922        TOTAL FREE ENERGY PREDICTED BY IDOCK:   -7.77 KCAL/MOL
REMARK 923 INTER-LIGAND FREE ENERGY PREDICTED BY IDOCK:   -6.88 KCAL/MOL
REMARK 924 INTRA-LIGAND FREE ENERGY PREDICTED BY IDOCK:   -0.88 KCAL/MOL
REMARK 927      BINDING AFFINITY PREDICTED BY RF-SCORE:    0.00 PKD
ROOT
HETATM    1  C   UNL     1     -11.684  15.845  64.206  1.00  0.00    -0.132 C  
HETATM    2  N   UNL     1     -10.428  15.853  64.964  1.00  0.00    -0.559 NA 
HETATM    3  C   UNL     1     -10.509  16.852  66.032  1.00  0.00    -0.290 C  
ENDROOT
BRANCH   2   4
HETATM    4  C   UNL     1     -10.155  14.499  65.481  1.00  0.00    -0.366 C  
BRANCH   4   5
HETATM    5  C   UNL     1     -11.327  13.528  65.319  1.00  0.00    -0.304 C  
BRANCH   5   6
HETATM    6  C   UNL     1     -11.910  13.143  66.675  1.00  0.00    -0.391 C  
BRANCH   6   7
HETATM    7  O   UNL     1     -11.987  11.717  66.719  1.00  0.00    -0.584 OA 
BRANCH   7   8
HETATM    8  C   UNL     1     -11.398  11.180  67.808  1.00  0.00    -0.293 A  
HETATM    9  N   UNL     1     -12.109  10.926  68.906  1.00  0.00    -0.481 NA 
HETATM   10  N   UNL     1     -11.183  10.430  69.762  1.00  0.00    -0.272 NA 
HETATM   11  C   UNL     1      -7.691  10.384  67.568  1.00  0.00    -0.094 A  
HETATM   12  C   UNL     1      -9.919  10.329  69.216  1.00  0.00    -0.227 A  
HETATM   13  C   UNL     1      -8.695   9.874  69.728  1.00  0.00    -0.229 A  
HETATM   14  C   UNL     1     -10.043  10.809  67.914  1.00  0.00    -0.197 A  
HETATM   15  C   UNL     1      -8.917  10.840  67.072  1.00  0.00    -0.148 A  
HETATM   16  C   UNL     1      -7.584   9.911  68.876  1.00  0.00    -0.083 A  
BRANCH  10  17
HETATM   17  C   UNL     1     -11.608   9.993  71.087  1.00  0.00    -0.378 C  
BRANCH  17  18
HETATM   18  C   UNL     1     -11.346   8.525  71.323  1.00  0.00    -0.325 A  
HETATM   19  C   UNL     1     -10.848   8.068  72.553  1.00  0.00    -0.415 A  
HETATM   20  C   UNL     1     -10.862   5.791  71.748  1.00  0.00    -0.311 A  
HETATM   21  C   UNL     1     -11.382   6.227  70.531  1.00  0.00    -0.428 A  
HETATM   22  C   UNL     1     -10.602   6.711  72.761  1.00  0.00    -0.260 A  
HETATM   23  C   UNL     1     -11.627   7.585  70.319  1.00  0.00    -0.114 A  
ENDBRANCH  17  18
ENDBRANCH  10  17
ENDBRANCH   7   8
ENDBRANCH   6   7
ENDBRANCH   5   6
ENDBRANCH   4   5
ENDBRANCH   2   4
TORSDOF 7
ENDMDL
MODEL       91
REMARK 921   NORMALIZED FREE ENERGY PREDICTED BY IDOCK:   -5.22 KCAL/MOL
REMARK 922        TOTAL FREE ENERGY PREDICTED BY IDOCK:   -7.74 KCAL/MOL
REMARK 923 INTER-LIGAND FREE ENERGY PREDICTED BY IDOCK:   -6.72 KCAL/MOL
REMARK 924 INTRA-LIGAND FREE ENERGY PREDICTED BY IDOCK:   -1.01 KCAL/MOL
REMARK 927      BINDING AFFINITY PREDICTED BY RF-SCORE:    0.00 PKD
ROOT
HETATM    1  C   UNL     1     -12.543  13.534  71.037  1.00  0.00    -0.359 C  
HETATM    2  N   UNL     1     -12.399  14.273  69.778  1.00  0.00    -0.325 NA 
HETATM    3  C   UNL     1     -11.814  15.588  70.049  1.00  0.00    -0.359 C  
ENDROOT
BRANCH   2   4
HETATM    4  C   UNL     1     -11.591  13.483  68.832  1.00  0.00    -0.323 C  
BRANCH   4   5
HETATM    5  C   UNL     1     -12.267  13.261  67.476  1.00  0.00    -0.213 C  
BRANCH   5   6
HETATM    6  C   UNL     1     -11.715  14.220  66.427  1.00  0.00    -0.391 C  
BRANCH   6   7
HETATM    7  O   UNL     1     -10.470  13.687  65.972  1.00  0.00    -0.288 OA 
BRANCH   7   8
HETATM    8  C   UNL     1      -9.399  14.413  66.360  1.00  0.00    -0.258 A  
HETATM    9  N   UNL     1      -9.261  15.677  65.963  1.00  0.00    -0.346 NA 
HETATM   10  N   UNL     1      -8.083  16.045  66.522  1.00  0.00    -0.280 NA 
HETATM   11  C   UNL     1      -6.883  12.719  68.646  1.00  0.00    -0.099 A  
HETATM   12  C   UNL     1      -7.499  15.056  67.291  1.00  0.00    -0.181 A  
HETATM   13  C   UNL     1      -6.314  15.008  68.039  1.00  0.00    -0.160 A  
HETATM   14  C   UNL     1      -8.366  13.969  67.207  1.00  0.00    -0.209 A  
HETATM   15  C   UNL     1      -8.060  12.779  67.892  1.00  0.00    -0.159 A  
HETATM   16  C   UNL     1      -6.024  13.816  68.714  1.00  0.00    -0.085 A  
BRANCH  10  17
HETATM   17  C   UNL     1      -7.607  17.411  66.335  1.00  0.00    -0.307 C  
BRANCH  17  18
HETATM   18  C   UNL     1      -8.527  18.433  66.959  1.00  0.00    -0.257 A  
HETATM   19  C   UNL     1      -9.179  19.394  66.171  1.00  0.00    -0.323 A  
HETATM   20  C   UNL     1     -10.233  20.331  68.133  1.00  0.00    -0.399 A  
HETATM   21  C   UNL     1      -9.613  19.366  68.924  1.00  0.00    -0.477 A  
HETATM   22  C   UNL     1     -10.021  20.341  66.756  1.00  0.00    -0.587 A  
HETATM   23  C   UNL     1      -8.768  18.419  68.342  1.00  0.00    -0.337 A  
ENDBRANCH  17  18
ENDBRANCH  10  17
ENDBRANCH   7   8
ENDBRANCH   6   7
ENDBRANCH   5   6
ENDBRANCH   4   5
ENDBRANCH   2   4
TORSDOF 7
ENDMDL
MODEL       92
REMARK 921   NORMALIZED FREE ENERGY PREDICTED BY IDOCK:   -5.20 KCAL/MOL
REMARK 922        TOTAL FREE ENERGY PREDICTED BY IDOCK:   -7.72 KCAL/MOL
REMARK 923 INTER-LIGAND FREE ENERGY PREDICTED BY IDOCK:   -6.99 KCAL/MOL
REMARK 924 INTRA-LIGAND FREE ENERGY PREDICTED BY IDOCK:   -0.73 KCAL/MOL
REMARK 927      BINDING AFFINITY PREDICTED BY RF-SCORE:    0.00 PKD
ROOT
HETATM    1  C   UNL     1      -7.802   4.317  70.494  1.00  0.00    -0.052 C  
HETATM    2  N   UNL     1      -8.578   4.987  69.445  1.00  0.00    -0.087 NA 
HETATM    3  C   UNL     1      -9.360   3.994  68.707  1.00  0.00    -0.163 C  
ENDROOT
BRANCH   2   4
HETATM    4  C   UNL     1      -9.424   6.033  70.050  1.00  0.00    -0.156 C  
BRANCH   4   5
HETATM    5  C   UNL     1     -10.539   6.535  69.129  1.00  0.00    -0.286 C  
BRANCH   5   6
HETATM    6  C   UNL     1     -10.369   8.020  68.826  1.00  0.00    -0.206 C  
BRANCH   6   7
HETATM    7  O   UNL     1     -11.079   8.746  69.832  1.00  0.00    -0.220 OA 
BRANCH   7   8
HETATM    8  C   UNL     1     -11.145  10.073  69.592  1.00  0.00    -0.259 A  
HETATM    9  N   UNL     1     -10.479  10.609  68.570  1.00  0.00    -0.180 NA 
HETATM   10  N   UNL     1     -10.769  11.928  68.675  1.00  0.00    -0.228 NA 
HETATM   11  C   UNL     1     -13.333  12.153  71.897  1.00  0.00    -0.421 A  
HETATM   12  C   UNL     1     -11.630  12.228  69.712  1.00  0.00    -0.243 A  
HETATM   13  C   UNL     1     -12.188  13.431  70.169  1.00  0.00    -0.385 A  
HETATM   14  C   UNL     1     -11.903  11.006  70.325  1.00  0.00    -0.456 A  
HETATM   15  C   UNL     1     -12.766  10.961  71.434  1.00  0.00    -0.539 A  
HETATM   16  C   UNL     1     -13.045  13.367  71.275  1.00  0.00    -0.317 A  
BRANCH  10  17
HETATM   17  C   UNL     1     -10.235  12.851  67.680  1.00  0.00    -0.220 C  
BRANCH  17  18
HETATM   18  C   UNL     1     -10.841  12.640  66.312  1.00  0.00    -0.300 A  
HETATM   19  C   UNL     1     -10.198  11.842  65.353  1.00  0.00    -0.300 A  
HETATM   20  C   UNL     1     -11.977  12.258  63.772  1.00  0.00    -0.609 A  
HETATM   21  C   UNL     1     -12.639  13.031  64.724  1.00  0.00    -0.460 A  
HETATM   22  C   UNL     1     -10.760  11.659  64.088  1.00  0.00    -0.418 A  
HETATM   23  C   UNL     1     -12.078  13.219  65.988  1.00  0.00    -0.491 A  
ENDBRANCH  17  18
ENDBRANCH  10  17
ENDBRANCH   7   8
ENDBRANCH   6   7
ENDBRANCH   5   6
ENDBRANCH   4   5
ENDBRANCH   2   4
TORSDOF 7
ENDMDL
MODEL       93
REMARK 921   NORMALIZED FREE ENERGY PREDICTED BY IDOCK:   -5.18 KCAL/MOL
REMARK 922        TOTAL FREE ENERGY PREDICTED BY IDOCK:   -7.69 KCAL/MOL
REMARK 923 INTER-LIGAND FREE ENERGY PREDICTED BY IDOCK:   -6.52 KCAL/MOL
REMARK 924 INTRA-LIGAND FREE ENERGY PREDICTED BY IDOCK:   -1.18 KCAL/MOL
REMARK 927      BINDING AFFINITY PREDICTED BY RF-SCORE:    0.00 PKD
ROOT
HETATM    1  C   UNL     1      -6.606   8.881  64.233  1.00  0.00    -0.078 C  
HETATM    2  N   UNL     1      -7.570   9.986  64.270  1.00  0.00    -0.140 NA 
HETATM    3  C   UNL     1      -8.732   9.646  63.447  1.00  0.00    -0.226 C  
ENDROOT
BRANCH   2   4
HETATM    4  C   UNL     1      -7.935  10.275  65.668  1.00  0.00    -0.150 C  
BRANCH   4   5
HETATM    5  C   UNL     1      -8.966   9.306  66.251  1.00  0.00    -0.193 C  
BRANCH   5   6
HETATM    6  C   UNL     1      -9.550   9.846  67.552  1.00  0.00    -0.157 C  
BRANCH   6   7
HETATM    7  O   UNL     1     -10.945  10.065  67.337  1.00  0.00    -0.283 OA 
BRANCH   7   8
HETATM    8  C   UNL     1     -11.272  11.369  67.209  1.00  0.00    -0.304 A  
HETATM    9  N   UNL     1     -11.405  12.141  68.286  1.00  0.00    -0.265 NA 
HETATM   10  N   UNL     1     -11.753  13.340  67.761  1.00  0.00    -0.340 NA 
HETATM   11  C   UNL     1     -11.723  12.713  63.685  1.00  0.00    -0.597 A  
HETATM   12  C   UNL     1     -11.804  13.350  66.381  1.00  0.00    -0.396 A  
HETATM   13  C   UNL     1     -12.104  14.351  65.446  1.00  0.00    -0.364 A  
HETATM   14  C   UNL     1     -11.473  12.052  65.995  1.00  0.00    -0.399 A  
HETATM   15  C   UNL     1     -11.430  11.722  64.628  1.00  0.00    -0.303 A  
HETATM   16  C   UNL     1     -12.056  14.005  64.090  1.00  0.00    -0.456 A  
BRANCH  10  17
HETATM   17  C   UNL     1     -11.951  14.474  68.657  1.00  0.00    -0.285 C  
BRANCH  17  18
HETATM   18  C   UNL     1     -10.778  15.426  68.653  1.00  0.00    -0.246 A  
HETATM   19  C   UNL     1      -9.518  15.021  69.121  1.00  0.00    -0.195 A  
HETATM   20  C   UNL     1      -8.605  17.205  68.643  1.00  0.00    -0.260 A  
HETATM   21  C   UNL     1      -9.844  17.612  68.150  1.00  0.00    -0.318 A  
HETATM   22  C   UNL     1      -8.441  15.908  69.122  1.00  0.00    -0.254 A  
HETATM   23  C   UNL     1     -10.924  16.728  68.151  1.00  0.00    -0.309 A  
ENDBRANCH  17  18
ENDBRANCH  10  17
ENDBRANCH   7   8
ENDBRANCH   6   7
ENDBRANCH   5   6
ENDBRANCH   4   5
ENDBRANCH   2   4
TORSDOF 7
ENDMDL
MODEL       94
REMARK 921   NORMALIZED FREE ENERGY PREDICTED BY IDOCK:   -5.17 KCAL/MOL
REMARK 922        TOTAL FREE ENERGY PREDICTED BY IDOCK:   -7.68 KCAL/MOL
REMARK 923 INTER-LIGAND FREE ENERGY PREDICTED BY IDOCK:   -6.71 KCAL/MOL
REMARK 924 INTRA-LIGAND FREE ENERGY PREDICTED BY IDOCK:   -0.97 KCAL/MOL
REMARK 927      BINDING AFFINITY PREDICTED BY RF-SCORE:    0.00 PKD
ROOT
HETATM    1  C   UNL     1      -9.546  19.022  68.521  1.00  0.00    -0.386 C  
HETATM    2  N   UNL     1      -9.350  17.697  67.923  1.00  0.00    -0.262 NA 
HETATM    3  C   UNL     1      -8.892  16.760  68.951  1.00  0.00    -0.228 C  
ENDROOT
BRANCH   2   4
HETATM    4  C   UNL     1     -10.601  17.257  67.278  1.00  0.00    -0.283 C  
BRANCH   4   5
HETATM    5  C   UNL     1     -10.384  16.414  66.019  1.00  0.00    -0.365 C  
BRANCH   5   6
HETATM    6  C   UNL     1     -10.948  15.008  66.199  1.00  0.00    -0.334 C  
BRANCH   6   7
HETATM    7  O   UNL     1     -11.574  14.959  67.483  1.00  0.00    -0.349 OA 
BRANCH   7   8
HETATM    8  C   UNL     1     -11.665  13.711  67.989  1.00  0.00    -0.352 A  
HETATM    9  N   UNL     1     -11.322  12.655  67.252  1.00  0.00    -0.299 NA 
HETATM   10  N   UNL     1     -11.572  11.611  68.079  1.00  0.00    -0.432 NA 
HETATM   11  C   UNL     1     -12.868  13.371  71.576  1.00  0.00    -0.427 A  
HETATM   12  C   UNL     1     -12.025  11.987  69.328  1.00  0.00    -0.270 A  
HETATM   13  C   UNL     1     -12.388  11.256  70.468  1.00  0.00    -0.446 A  
HETATM   14  C   UNL     1     -12.080  13.379  69.293  1.00  0.00    -0.312 A  
HETATM   15  C   UNL     1     -12.507  14.088  70.430  1.00  0.00    -0.418 A  
HETATM   16  C   UNL     1     -12.811  11.978  71.591  1.00  0.00    -0.399 A  
BRANCH  10  17
HETATM   17  C   UNL     1     -11.273  10.259  67.621  1.00  0.00    -0.158 C  
BRANCH  17  18
HETATM   18  C   UNL     1      -9.851  10.115  67.134  1.00  0.00    -0.231 A  
HETATM   19  C   UNL     1      -9.574   9.754  65.806  1.00  0.00    -0.318 A  
HETATM   20  C   UNL     1      -7.201   9.846  66.243  1.00  0.00    -0.102 A  
HETATM   21  C   UNL     1      -7.460  10.231  67.557  1.00  0.00    -0.090 A  
HETATM   22  C   UNL     1      -8.257   9.615  65.366  1.00  0.00    -0.129 A  
HETATM   23  C   UNL     1      -8.776  10.368  68.001  1.00  0.00    -0.123 A  
ENDBRANCH  17  18
ENDBRANCH  10  17
ENDBRANCH   7   8
ENDBRANCH   6   7
ENDBRANCH   5   6
ENDBRANCH   4   5
ENDBRANCH   2   4
TORSDOF 7
ENDMDL
MODEL       95
REMARK 921   NORMALIZED FREE ENERGY PREDICTED BY IDOCK:   -5.17 KCAL/MOL
REMARK 922        TOTAL FREE ENERGY PREDICTED BY IDOCK:   -7.67 KCAL/MOL
REMARK 923 INTER-LIGAND FREE ENERGY PREDICTED BY IDOCK:   -6.81 KCAL/MOL
REMARK 924 INTRA-LIGAND FREE ENERGY PREDICTED BY IDOCK:   -0.86 KCAL/MOL
REMARK 927      BINDING AFFINITY PREDICTED BY RF-SCORE:    0.00 PKD
ROOT
HETATM    1  C   UNL     1     -11.593  15.925  64.351  1.00  0.00    -0.234 C  
HETATM    2  N   UNL     1     -10.303  15.832  65.043  1.00  0.00    -0.498 NA 
HETATM    3  C   UNL     1     -10.170  16.949  65.979  1.00  0.00    -0.336 C  
ENDROOT
BRANCH   2   4
HETATM    4  C   UNL     1     -10.195  14.522  65.711  1.00  0.00    -0.335 C  
BRANCH   4   5
HETATM    5  C   UNL     1     -11.540  13.821  65.917  1.00  0.00    -0.346 C  
BRANCH   5   6
HETATM    6  C   UNL     1     -11.641  13.234  67.321  1.00  0.00    -0.359 C  
BRANCH   6   7
HETATM    7  O   UNL     1     -12.159  11.908  67.194  1.00  0.00    -0.590 OA 
BRANCH   7   8
HETATM    8  C   UNL     1     -11.418  10.978  67.834  1.00  0.00    -0.282 A  
HETATM    9  N   UNL     1     -10.423  10.356  67.204  1.00  0.00    -0.242 NA 
HETATM   10  N   UNL     1      -9.951   9.503  68.145  1.00  0.00    -0.159 NA 
HETATM   11  C   UNL     1     -12.262  10.280  71.471  1.00  0.00    -0.449 A  
HETATM   12  C   UNL     1     -10.600   9.601  69.360  1.00  0.00    -0.225 A  
HETATM   13  C   UNL     1     -10.438   8.933  70.582  1.00  0.00    -0.271 A  
HETATM   14  C   UNL     1     -11.569  10.586  69.178  1.00  0.00    -0.295 A  
HETATM   15  C   UNL     1     -12.416  10.936  70.245  1.00  0.00    -0.383 A  
HETATM   16  C   UNL     1     -11.290   9.294  71.634  1.00  0.00    -0.467 A  
BRANCH  10  17
HETATM   17  C   UNL     1      -8.805   8.661  67.825  1.00  0.00    -0.136 C  
BRANCH  17  18
HETATM   18  C   UNL     1      -9.199   7.231  67.540  1.00  0.00    -0.138 A  
HETATM   19  C   UNL     1      -8.409   6.161  67.991  1.00  0.00    -0.117 A  
HETATM   20  C   UNL     1      -9.941   4.576  67.001  1.00  0.00    -0.215 A  
HETATM   21  C   UNL     1     -10.748   5.628  66.571  1.00  0.00    -0.296 A  
HETATM   22  C   UNL     1      -8.776   4.842  67.716  1.00  0.00    -0.105 A  
HETATM   23  C   UNL     1     -10.382   6.948  66.841  1.00  0.00    -0.332 A  
ENDBRANCH  17  18
ENDBRANCH  10  17
ENDBRANCH   7   8
ENDBRANCH   6   7
ENDBRANCH   5   6
ENDBRANCH   4   5
ENDBRANCH   2   4
TORSDOF 7
ENDMDL
MODEL       96
REMARK 921   NORMALIZED FREE ENERGY PREDICTED BY IDOCK:   -5.16 KCAL/MOL
REMARK 922        TOTAL FREE ENERGY PREDICTED BY IDOCK:   -7.66 KCAL/MOL
REMARK 923 INTER-LIGAND FREE ENERGY PREDICTED BY IDOCK:   -6.85 KCAL/MOL
REMARK 924 INTRA-LIGAND FREE ENERGY PREDICTED BY IDOCK:   -0.82 KCAL/MOL
REMARK 927      BINDING AFFINITY PREDICTED BY RF-SCORE:    0.00 PKD
ROOT
HETATM    1  C   UNL     1      -6.605   9.004  67.519  1.00  0.00    -0.065 C  
HETATM    2  N   UNL     1      -6.332  10.228  66.758  1.00  0.00    -0.069 NA 
HETATM    3  C   UNL     1      -7.456  10.507  65.862  1.00  0.00    -0.147 C  
ENDROOT
BRANCH   2   4
HETATM    4  C   UNL     1      -6.068  11.340  67.690  1.00  0.00    -0.051 C  
BRANCH   4   5
HETATM    5  C   UNL     1      -6.826  12.625  67.350  1.00  0.00    -0.141 C  
BRANCH   5   6
HETATM    6  C   UNL     1      -7.621  13.125  68.552  1.00  0.00    -0.122 C  
BRANCH   6   7
HETATM    7  O   UNL     1      -7.320  14.511  68.718  1.00  0.00    -0.116 OA 
BRANCH   7   8
HETATM    8  C   UNL     1      -8.417  15.298  68.763  1.00  0.00    -0.181 A  
HETATM    9  N   UNL     1      -9.621  14.768  68.969  1.00  0.00    -0.205 NA 
HETATM   10  N   UNL     1     -10.442  15.845  68.921  1.00  0.00    -0.221 NA 
HETATM   11  C   UNL     1      -7.896  19.037  68.341  1.00  0.00    -0.372 A  
HETATM   12  C   UNL     1      -9.778  17.041  68.730  1.00  0.00    -0.273 A  
HETATM   13  C   UNL     1     -10.220  18.368  68.629  1.00  0.00    -0.370 A  
HETATM   14  C   UNL     1      -8.431  16.700  68.636  1.00  0.00    -0.253 A  
HETATM   15  C   UNL     1      -7.469  17.708  68.439  1.00  0.00    -0.253 A  
HETATM   16  C   UNL     1      -9.250  19.359  68.432  1.00  0.00    -0.415 A  
BRANCH  10  17
HETATM   17  C   UNL     1     -11.870  15.656  69.149  1.00  0.00    -0.362 C  
BRANCH  17  18
HETATM   18  C   UNL     1     -12.194  15.390  70.600  1.00  0.00    -0.431 A  
HETATM   19  C   UNL     1     -13.000  14.303  70.972  1.00  0.00    -0.411 A  
HETATM   20  C   UNL     1     -12.791  14.907  73.301  1.00  0.00    -0.646 A  
HETATM   21  C   UNL     1     -11.968  15.975  72.948  1.00  0.00    -0.611 A  
HETATM   22  C   UNL     1     -13.302  14.068  72.314  1.00  0.00    -0.574 A  
HETATM   23  C   UNL     1     -11.667  16.214  71.606  1.00  0.00    -0.558 A  
ENDBRANCH  17  18
ENDBRANCH  10  17
ENDBRANCH   7   8
ENDBRANCH   6   7
ENDBRANCH   5   6
ENDBRANCH   4   5
ENDBRANCH   2   4
TORSDOF 7
ENDMDL
MODEL       97
REMARK 921   NORMALIZED FREE ENERGY PREDICTED BY IDOCK:   -5.15 KCAL/MOL
REMARK 922        TOTAL FREE ENERGY PREDICTED BY IDOCK:   -7.65 KCAL/MOL
REMARK 923 INTER-LIGAND FREE ENERGY PREDICTED BY IDOCK:   -6.57 KCAL/MOL
REMARK 924 INTRA-LIGAND FREE ENERGY PREDICTED BY IDOCK:   -1.08 KCAL/MOL
REMARK 927      BINDING AFFINITY PREDICTED BY RF-SCORE:    0.00 PKD
ROOT
HETATM    1  C   UNL     1      -8.372   8.195  65.082  1.00  0.00    -0.143 C  
HETATM    2  N   UNL     1      -9.076   9.061  66.035  1.00  0.00    -0.192 NA 
HETATM    3  C   UNL     1     -10.023   8.260  66.813  1.00  0.00    -0.285 C  
ENDROOT
BRANCH   2   4
HETATM    4  C   UNL     1      -8.094   9.755  66.888  1.00  0.00    -0.113 C  
BRANCH   4   5
HETATM    5  C   UNL     1      -8.725  10.553  68.032  1.00  0.00    -0.128 C  
BRANCH   5   6
HETATM    6  C   UNL     1      -8.060  11.918  68.178  1.00  0.00    -0.155 C  
BRANCH   6   7
HETATM    7  O   UNL     1      -8.115  12.559  66.902  1.00  0.00    -0.138 OA 
BRANCH   7   8
HETATM    8  C   UNL     1      -9.244  13.274  66.707  1.00  0.00    -0.233 A  
HETATM    9  N   UNL     1      -9.606  14.216  67.576  1.00  0.00    -0.219 NA 
HETATM   10  N   UNL     1     -10.772  14.675  67.061  1.00  0.00    -0.285 NA 
HETATM   11  C   UNL     1     -11.265  12.516  63.582  1.00  0.00    -0.545 A  
HETATM   12  C   UNL     1     -11.130  14.072  65.871  1.00  0.00    -0.301 A  
HETATM   13  C   UNL     1     -12.223  14.241  65.009  1.00  0.00    -0.438 A  
HETATM   14  C   UNL     1     -10.120  13.148  65.612  1.00  0.00    -0.279 A  
HETATM   15  C   UNL     1     -10.182  12.354  64.452  1.00  0.00    -0.342 A  
HETATM   16  C   UNL     1     -12.270  13.443  63.859  1.00  0.00    -0.478 A  
BRANCH  10  17
HETATM   17  C   UNL     1     -11.462  15.768  67.736  1.00  0.00    -0.175 C  
BRANCH  17  18
HETATM   18  C   UNL     1     -10.743  17.087  67.585  1.00  0.00    -0.295 A  
HETATM   19  C   UNL     1     -10.476  17.623  66.315  1.00  0.00    -0.292 A  
HETATM   20  C   UNL     1      -9.401  19.540  67.318  1.00  0.00    -0.403 A  
HETATM   21  C   UNL     1      -9.683  19.032  68.585  1.00  0.00    -0.468 A  
HETATM   22  C   UNL     1      -9.804  18.839  66.184  1.00  0.00    -0.327 A  
HETATM   23  C   UNL     1     -10.353  17.815  68.719  1.00  0.00    -0.332 A  
ENDBRANCH  17  18
ENDBRANCH  10  17
ENDBRANCH   7   8
ENDBRANCH   6   7
ENDBRANCH   5   6
ENDBRANCH   4   5
ENDBRANCH   2   4
TORSDOF 7
ENDMDL
MODEL       98
REMARK 921   NORMALIZED FREE ENERGY PREDICTED BY IDOCK:   -5.15 KCAL/MOL
REMARK 922        TOTAL FREE ENERGY PREDICTED BY IDOCK:   -7.64 KCAL/MOL
REMARK 923 INTER-LIGAND FREE ENERGY PREDICTED BY IDOCK:   -6.64 KCAL/MOL
REMARK 924 INTRA-LIGAND FREE ENERGY PREDICTED BY IDOCK:   -1.00 KCAL/MOL
REMARK 927      BINDING AFFINITY PREDICTED BY RF-SCORE:    0.00 PKD
ROOT
HETATM    1  C   UNL     1      -9.536  15.803  69.173  1.00  0.00    -0.255 C  
HETATM    2  N   UNL     1     -10.815  16.001  68.483  1.00  0.00    -0.287 NA 
HETATM    3  C   UNL     1     -10.570  16.552  67.149  1.00  0.00    -0.270 C  
ENDROOT
BRANCH   2   4
HETATM    4  C   UNL     1     -11.553  14.725  68.437  1.00  0.00    -0.324 C  
BRANCH   4   5
HETATM    5  C   UNL     1     -11.951  14.292  67.024  1.00  0.00    -0.463 C  
BRANCH   5   6
HETATM    6  C   UNL     1     -11.294  12.966  66.654  1.00  0.00    -0.317 C  
BRANCH   6   7
HETATM    7  O   UNL     1     -12.116  11.921  67.177  1.00  0.00    -0.590 OA 
BRANCH   7   8
HETATM    8  C   UNL     1     -11.426  10.987  67.866  1.00  0.00    -0.282 A  
HETATM    9  N   UNL     1     -10.402  10.349  67.300  1.00  0.00    -0.215 NA 
HETATM   10  N   UNL     1      -9.998   9.497  68.273  1.00  0.00    -0.156 NA 
HETATM   11  C   UNL     1     -12.491  10.327  71.452  1.00  0.00    -0.528 A  
HETATM   12  C   UNL     1     -10.716   9.612  69.447  1.00  0.00    -0.228 A  
HETATM   13  C   UNL     1     -10.635   8.952  70.681  1.00  0.00    -0.277 A  
HETATM   14  C   UNL     1     -11.660  10.607  69.201  1.00  0.00    -0.342 A  
HETATM   15  C   UNL     1     -12.564  10.975  70.214  1.00  0.00    -0.321 A  
HETATM   16  C   UNL     1     -11.542   9.330  71.678  1.00  0.00    -0.463 A  
BRANCH  10  17
HETATM   17  C   UNL     1      -8.845   8.639  68.027  1.00  0.00    -0.141 C  
BRANCH  17  18
HETATM   18  C   UNL     1      -9.230   7.190  67.845  1.00  0.00    -0.129 A  
HETATM   19  C   UNL     1     -10.169   6.809  66.874  1.00  0.00    -0.300 A  
HETATM   20  C   UNL     1      -9.940   4.493  67.519  1.00  0.00    -0.152 A  
HETATM   21  C   UNL     1      -8.986   4.854  68.468  1.00  0.00    -0.131 A  
HETATM   22  C   UNL     1     -10.527   5.469  66.717  1.00  0.00    -0.355 A  
HETATM   23  C   UNL     1      -8.630   6.193  68.629  1.00  0.00    -0.113 A  
ENDBRANCH  17  18
ENDBRANCH  10  17
ENDBRANCH   7   8
ENDBRANCH   6   7
ENDBRANCH   5   6
ENDBRANCH   4   5
ENDBRANCH   2   4
TORSDOF 7
ENDMDL
MODEL       99
REMARK 921   NORMALIZED FREE ENERGY PREDICTED BY IDOCK:   -5.14 KCAL/MOL
REMARK 922        TOTAL FREE ENERGY PREDICTED BY IDOCK:   -7.63 KCAL/MOL
REMARK 923 INTER-LIGAND FREE ENERGY PREDICTED BY IDOCK:   -7.50 KCAL/MOL
REMARK 924 INTRA-LIGAND FREE ENERGY PREDICTED BY IDOCK:   -0.13 KCAL/MOL
REMARK 927      BINDING AFFINITY PREDICTED BY RF-SCORE:    0.00 PKD
ROOT
HETATM    1  C   UNL     1      -9.263  18.579  68.257  1.00  0.00    -0.321 C  
HETATM    2  N   UNL     1     -10.220  19.343  67.450  1.00  0.00    -0.390 NA 
HETATM    3  C   UNL     1      -9.558  20.527  66.899  1.00  0.00    -0.356 C  
ENDROOT
BRANCH   2   4
HETATM    4  C   UNL     1     -10.785  18.475  66.401  1.00  0.00    -0.201 C  
BRANCH   4   5
HETATM    5  C   UNL     1     -10.223  17.051  66.409  1.00  0.00    -0.330 C  
BRANCH   5   6
HETATM    6  C   UNL     1     -10.309  16.422  65.022  1.00  0.00     0.062 C  
BRANCH   6   7
HETATM    7  O   UNL     1     -11.507  15.644  64.978  1.00  0.00    -0.277 OA 
BRANCH   7   8
HETATM    8  C   UNL     1     -11.445  14.519  65.721  1.00  0.00    -0.342 A  
HETATM    9  N   UNL     1     -11.889  14.513  66.977  1.00  0.00    -0.401 NA 
HETATM   10  N   UNL     1     -11.638  13.245  67.384  1.00  0.00    -0.331 NA 
HETATM   11  C   UNL     1     -10.027  11.412  64.060  1.00  0.00    -0.341 A  
HETATM   12  C   UNL     1     -11.085  12.446  66.403  1.00  0.00    -0.301 A  
HETATM   13  C   UNL     1     -10.685  11.102  66.384  1.00  0.00    -0.303 A  
HETATM   14  C   UNL     1     -10.963  13.270  65.286  1.00  0.00    -0.307 A  
HETATM   15  C   UNL     1     -10.426  12.752  64.093  1.00  0.00    -0.437 A  
HETATM   16  C   UNL     1     -10.153  10.602  65.189  1.00  0.00    -0.374 A  
BRANCH  10  17
HETATM   17  C   UNL     1     -12.034  12.842  68.728  1.00  0.00    -0.253 C  
BRANCH  17  18
HETATM   18  C   UNL     1     -11.997  13.990  69.710  1.00  0.00    -0.393 A  
HETATM   19  C   UNL     1     -12.910  14.059  70.774  1.00  0.00    -0.355 A  
HETATM   20  C   UNL     1     -11.921  16.130  71.527  1.00  0.00    -0.490 A  
HETATM   21  C   UNL     1     -10.992  16.060  70.491  1.00  0.00    -0.322 A  
HETATM   22  C   UNL     1     -12.876  15.127  71.672  1.00  0.00    -0.439 A  
HETATM   23  C   UNL     1     -11.026  14.995  69.589  1.00  0.00    -0.294 A  
ENDBRANCH  17  18
ENDBRANCH  10  17
ENDBRANCH   7   8
ENDBRANCH   6   7
ENDBRANCH   5   6
ENDBRANCH   4   5
ENDBRANCH   2   4
TORSDOF 7
ENDMDL
MODEL      100
REMARK 921   NORMALIZED FREE ENERGY PREDICTED BY IDOCK:   -5.14 KCAL/MOL
REMARK 922        TOTAL FREE ENERGY PREDICTED BY IDOCK:   -7.63 KCAL/MOL
REMARK 923 INTER-LIGAND FREE ENERGY PREDICTED BY IDOCK:   -6.58 KCAL/MOL
REMARK 924 INTRA-LIGAND FREE ENERGY PREDICTED BY IDOCK:   -1.05 KCAL/MOL
REMARK 927      BINDING AFFINITY PREDICTED BY RF-SCORE:    0.00 PKD
ROOT
HETATM    1  C   UNL     1     -12.217  12.448  63.373  1.00  0.00    -0.523 C  
HETATM    2  N   UNL     1     -11.406  12.294  64.586  1.00  0.00    -0.313 NA 
HETATM    3  C   UNL     1     -10.444  11.207  64.394  1.00  0.00    -0.353 C  
ENDROOT
BRANCH   2   4
HETATM    4  C   UNL     1     -10.751  13.575  64.907  1.00  0.00    -0.381 C  
BRANCH   4   5
HETATM    5  C   UNL     1     -11.660  14.569  65.633  1.00  0.00    -0.344 C  
BRANCH   5   6
HETATM    6  C   UNL     1     -12.257  13.947  66.891  1.00  0.00    -0.377 C  
BRANCH   6   7
HETATM    7  O   UNL     1     -11.171  13.591  67.750  1.00  0.00    -0.262 OA 
BRANCH   7   8
HETATM    8  C   UNL     1     -11.349  12.412  68.383  1.00  0.00    -0.285 A  
HETATM    9  N   UNL     1     -10.892  11.282  67.847  1.00  0.00    -0.211 NA 
HETATM   10  N   UNL     1     -11.278  10.341  68.742  1.00  0.00    -0.230 NA 
HETATM   11  C   UNL     1     -13.134  12.487  71.735  1.00  0.00    -0.450 A  
HETATM   12  C   UNL     1     -11.932  10.857  69.843  1.00  0.00    -0.353 A  
HETATM   13  C   UNL     1     -12.482  10.263  70.988  1.00  0.00    -0.484 A  
HETATM   14  C   UNL     1     -11.977  12.233  69.630  1.00  0.00    -0.347 A  
HETATM   15  C   UNL     1     -12.585  13.067  70.586  1.00  0.00    -0.270 A  
HETATM   16  C   UNL     1     -13.084  11.107  71.929  1.00  0.00    -0.513 A  
BRANCH  10  17
HETATM   17  C   UNL     1     -10.911   8.949  68.507  1.00  0.00     0.117 C  
BRANCH  17  18
HETATM   18  C   UNL     1     -10.012   8.398  69.589  1.00  0.00    -0.193 A  
HETATM   19  C   UNL     1     -10.297   7.171  70.209  1.00  0.00    -0.214 A  
HETATM   20  C   UNL     1      -8.334   7.386  71.600  1.00  0.00    -0.107 A  
HETATM   21  C   UNL     1      -8.025   8.592  70.974  1.00  0.00    -0.132 A  
HETATM   22  C   UNL     1      -9.466   6.672  71.213  1.00  0.00    -0.166 A  
HETATM   23  C   UNL     1      -8.856   9.095  69.972  1.00  0.00    -0.193 A  
ENDBRANCH  17  18
ENDBRANCH  10  17
ENDBRANCH   7   8
ENDBRANCH   6   7
ENDBRANCH   5   6
ENDBRANCH   4   5
ENDBRANCH   2   4
TORSDOF 7
ENDMDL
MODEL      101
REMARK 921   NORMALIZED FREE ENERGY PREDICTED BY IDOCK:   -5.13 KCAL/MOL
REMARK 922        TOTAL FREE ENERGY PREDICTED BY IDOCK:   -7.62 KCAL/MOL
REMARK 923 INTER-LIGAND FREE ENERGY PREDICTED BY IDOCK:   -6.78 KCAL/MOL
REMARK 924 INTRA-LIGAND FREE ENERGY PREDICTED BY IDOCK:   -0.85 KCAL/MOL
REMARK 927      BINDING AFFINITY PREDICTED BY RF-SCORE:    0.00 PKD
ROOT
HETATM    1  C   UNL     1     -10.301   5.052  66.171  1.00  0.00    -0.268 C  
HETATM    2  N   UNL     1     -10.743   5.748  67.385  1.00  0.00    -0.265 NA 
HETATM    3  C   UNL     1      -9.916   5.327  68.517  1.00  0.00    -0.163 C  
ENDROOT
BRANCH   2   4
HETATM    4  C   UNL     1     -10.693   7.205  67.163  1.00  0.00    -0.352 C  
BRANCH   4   5
HETATM    5  C   UNL     1     -10.059   7.985  68.318  1.00  0.00    -0.227 C  
BRANCH   5   6
HETATM    6  C   UNL     1     -10.590   9.413  68.370  1.00  0.00    -0.204 C  
BRANCH   6   7
HETATM    7  O   UNL     1     -10.221  10.052  67.147  1.00  0.00    -0.203 OA 
BRANCH   7   8
HETATM    8  C   UNL     1     -10.788  11.267  66.982  1.00  0.00    -0.280 A  
HETATM    9  N   UNL     1     -10.944  12.086  68.021  1.00  0.00    -0.210 NA 
HETATM   10  N   UNL     1     -11.554  13.163  67.471  1.00  0.00    -0.331 NA 
HETATM   11  C   UNL     1     -11.835  12.237  63.462  1.00  0.00    -0.601 A  
HETATM   12  C   UNL     1     -11.748  13.057  66.108  1.00  0.00    -0.394 A  
HETATM   13  C   UNL     1     -12.318  13.917  65.158  1.00  0.00    -0.471 A  
HETATM   14  C   UNL     1     -11.233  11.810  65.762  1.00  0.00    -0.337 A  
HETATM   15  C   UNL     1     -11.273  11.387  64.421  1.00  0.00    -0.277 A  
HETATM   16  C   UNL     1     -12.351  13.481  63.828  1.00  0.00    -0.392 A  
BRANCH  10  17
HETATM   17  C   UNL     1     -11.858  14.312  68.317  1.00  0.00    -0.335 C  
BRANCH  17  18
HETATM   18  C   UNL     1     -10.761  15.350  68.299  1.00  0.00    -0.260 A  
HETATM   19  C   UNL     1     -10.795  16.422  67.393  1.00  0.00    -0.219 A  
HETATM   20  C   UNL     1      -8.713  17.272  68.272  1.00  0.00    -0.251 A  
HETATM   21  C   UNL     1      -8.679  16.228  69.195  1.00  0.00    -0.212 A  
HETATM   22  C   UNL     1      -9.774  17.372  67.376  1.00  0.00    -0.269 A  
HETATM   23  C   UNL     1      -9.698  15.274  69.212  1.00  0.00    -0.254 A  
ENDBRANCH  17  18
ENDBRANCH  10  17
ENDBRANCH   7   8
ENDBRANCH   6   7
ENDBRANCH   5   6
ENDBRANCH   4   5
ENDBRANCH   2   4
TORSDOF 7
ENDMDL
MODEL      102
REMARK 921   NORMALIZED FREE ENERGY PREDICTED BY IDOCK:   -5.12 KCAL/MOL
REMARK 922        TOTAL FREE ENERGY PREDICTED BY IDOCK:   -7.60 KCAL/MOL
REMARK 923 INTER-LIGAND FREE ENERGY PREDICTED BY IDOCK:   -6.85 KCAL/MOL
REMARK 924 INTRA-LIGAND FREE ENERGY PREDICTED BY IDOCK:   -0.74 KCAL/MOL
REMARK 927      BINDING AFFINITY PREDICTED BY RF-SCORE:    0.00 PKD
ROOT
HETATM    1  C   UNL     1      -8.102   8.562  65.641  1.00  0.00    -0.119 C  
HETATM    2  N   UNL     1      -8.006   9.503  64.519  1.00  0.00    -0.125 NA 
HETATM    3  C   UNL     1      -7.075   8.976  63.519  1.00  0.00    -0.089 C  
ENDROOT
BRANCH   2   4
HETATM    4  C   UNL     1      -9.350   9.746  63.963  1.00  0.00    -0.155 C  
BRANCH   4   5
HETATM    5  C   UNL     1      -9.565  11.179  63.470  1.00  0.00    -0.341 C  
BRANCH   5   6
HETATM    6  C   UNL     1     -10.506  11.941  64.397  1.00  0.00    -0.311 C  
BRANCH   6   7
HETATM    7  O   UNL     1      -9.754  12.327  65.548  1.00  0.00    -0.234 OA 
BRANCH   7   8
HETATM    8  C   UNL     1     -10.186  13.474  66.114  1.00  0.00    -0.302 A  
HETATM    9  N   UNL     1     -10.065  14.633  65.469  1.00  0.00    -0.358 NA 
HETATM   10  N   UNL     1     -10.574  15.527  66.349  1.00  0.00    -0.307 NA 
HETATM   11  C   UNL     1     -11.792  13.225  69.547  1.00  0.00    -0.388 A  
HETATM   12  C   UNL     1     -11.048  14.954  67.513  1.00  0.00    -0.317 A  
HETATM   13  C   UNL     1     -11.649  15.489  68.661  1.00  0.00    -0.379 A  
HETATM   14  C   UNL     1     -10.812  13.588  67.370  1.00  0.00    -0.279 A  
HETATM   15  C   UNL     1     -11.187  12.705  68.398  1.00  0.00    -0.316 A  
HETATM   16  C   UNL     1     -12.016  14.596  69.675  1.00  0.00    -0.368 A  
BRANCH  10  17
HETATM   17  C   UNL     1     -10.647  16.933  65.968  1.00  0.00    -0.218 C  
BRANCH  17  18
HETATM   18  C   UNL     1      -9.897  17.831  66.923  1.00  0.00    -0.312 A  
HETATM   19  C   UNL     1     -10.415  19.081  67.297  1.00  0.00    -0.533 A  
HETATM   20  C   UNL     1      -8.491  19.493  68.698  1.00  0.00    -0.364 A  
HETATM   21  C   UNL     1      -7.977  18.243  68.356  1.00  0.00    -0.320 A  
HETATM   22  C   UNL     1      -9.712  19.908  68.174  1.00  0.00    -0.497 A  
HETATM   23  C   UNL     1      -8.677  17.414  67.477  1.00  0.00    -0.221 A  
ENDBRANCH  17  18
ENDBRANCH  10  17
ENDBRANCH   7   8
ENDBRANCH   6   7
ENDBRANCH   5   6
ENDBRANCH   4   5
ENDBRANCH   2   4
TORSDOF 7
ENDMDL
MODEL      103
REMARK 921   NORMALIZED FREE ENERGY PREDICTED BY IDOCK:   -5.08 KCAL/MOL
REMARK 922        TOTAL FREE ENERGY PREDICTED BY IDOCK:   -7.55 KCAL/MOL
REMARK 923 INTER-LIGAND FREE ENERGY PREDICTED BY IDOCK:   -6.63 KCAL/MOL
REMARK 924 INTRA-LIGAND FREE ENERGY PREDICTED BY IDOCK:   -0.92 KCAL/MOL
REMARK 927      BINDING AFFINITY PREDICTED BY RF-SCORE:    0.00 PKD
ROOT
HETATM    1  C   UNL     1      -8.314   9.434  64.890  1.00  0.00    -0.150 C  
HETATM    2  N   UNL     1      -7.750   9.530  66.241  1.00  0.00    -0.100 NA 
HETATM    3  C   UNL     1      -6.979  10.769  66.361  1.00  0.00    -0.134 C  
ENDROOT
BRANCH   2   4
HETATM    4  C   UNL     1      -8.835   9.445  67.236  1.00  0.00    -0.128 C  
BRANCH   4   5
HETATM    5  C   UNL     1     -10.210   9.833  66.686  1.00  0.00    -0.296 C  
BRANCH   5   6
HETATM    6  C   UNL     1     -10.974  10.695  67.686  1.00  0.00    -0.310 C  
BRANCH   6   7
HETATM    7  O   UNL     1     -10.041  11.610  68.264  1.00  0.00    -0.189 OA 
BRANCH   7   8
HETATM    8  C   UNL     1     -10.444  12.897  68.208  1.00  0.00    -0.242 A  
HETATM    9  N   UNL     1     -10.071  13.679  67.195  1.00  0.00    -0.242 NA 
HETATM   10  N   UNL     1     -10.639  14.869  67.503  1.00  0.00    -0.262 NA 
HETATM   11  C   UNL     1     -12.700  14.138  70.999  1.00  0.00    -0.433 A  
HETATM   12  C   UNL     1     -11.389  14.844  68.662  1.00  0.00    -0.292 A  
HETATM   13  C   UNL     1     -12.138  15.822  69.332  1.00  0.00    -0.245 A  
HETATM   14  C   UNL     1     -11.284  13.539  69.138  1.00  0.00    -0.310 A  
HETATM   15  C   UNL     1     -11.947  13.173  70.323  1.00  0.00    -0.366 A  
HETATM   16  C   UNL     1     -12.791  15.442  70.511  1.00  0.00    -0.425 A  
BRANCH  10  17
HETATM   17  C   UNL     1     -10.479  15.989  66.582  1.00  0.00    -0.304 C  
BRANCH  17  18
HETATM   18  C   UNL     1      -9.961  17.231  67.266  1.00  0.00    -0.283 A  
HETATM   19  C   UNL     1      -8.774  17.201  68.017  1.00  0.00    -0.221 A  
HETATM   20  C   UNL     1      -9.009  19.548  68.537  1.00  0.00    -0.395 A  
HETATM   21  C   UNL     1     -10.174  19.599  67.773  1.00  0.00    -0.565 A  
HETATM   22  C   UNL     1      -8.306  18.352  68.653  1.00  0.00    -0.319 A  
HETATM   23  C   UNL     1     -10.646  18.449  67.138  1.00  0.00    -0.416 A  
ENDBRANCH  17  18
ENDBRANCH  10  17
ENDBRANCH   7   8
ENDBRANCH   6   7
ENDBRANCH   5   6
ENDBRANCH   4   5
ENDBRANCH   2   4
TORSDOF 7
ENDMDL
MODEL      104
REMARK 921   NORMALIZED FREE ENERGY PREDICTED BY IDOCK:   -5.07 KCAL/MOL
REMARK 922        TOTAL FREE ENERGY PREDICTED BY IDOCK:   -7.53 KCAL/MOL
REMARK 923 INTER-LIGAND FREE ENERGY PREDICTED BY IDOCK:   -6.65 KCAL/MOL
REMARK 924 INTRA-LIGAND FREE ENERGY PREDICTED BY IDOCK:   -0.87 KCAL/MOL
REMARK 927      BINDING AFFINITY PREDICTED BY RF-SCORE:    0.00 PKD
ROOT
HETATM    1  C   UNL     1     -13.293  15.922  73.157  1.00  0.00    -0.587 C  
HETATM    2  N   UNL     1     -13.878  15.139  72.064  1.00  0.00    -0.452 NA 
HETATM    3  C   UNL     1     -13.112  15.366  70.837  1.00  0.00    -0.468 C  
ENDROOT
BRANCH   2   4
HETATM    4  C   UNL     1     -13.920  13.715  72.444  1.00  0.00    -0.548 C  
BRANCH   4   5
HETATM    5  C   UNL     1     -12.964  12.831  71.640  1.00  0.00    -0.402 C  
BRANCH   5   6
HETATM    6  C   UNL     1     -13.283  11.354  71.844  1.00  0.00    -0.380 C  
BRANCH   6   7
HETATM    7  O   UNL     1     -13.138  10.706  70.579  1.00  0.00    -0.295 OA 
BRANCH   7   8
HETATM    8  C   UNL     1     -12.018   9.958  70.483  1.00  0.00    -0.239 A  
HETATM    9  N   UNL     1     -10.918  10.457  69.922  1.00  0.00    -0.286 NA 
HETATM   10  N   UNL     1     -10.046   9.423  69.988  1.00  0.00    -0.210 NA 
HETATM   11  C   UNL     1     -12.144   6.444  71.920  1.00  0.00    -0.362 A  
HETATM   12  C   UNL     1     -10.558   8.302  70.611  1.00  0.00    -0.215 A  
HETATM   13  C   UNL     1     -10.016   7.040  70.897  1.00  0.00    -0.200 A  
HETATM   14  C   UNL     1     -11.863   8.642  70.959  1.00  0.00    -0.303 A  
HETATM   15  C   UNL     1     -12.674   7.704  71.624  1.00  0.00    -0.368 A  
HETATM   16  C   UNL     1     -10.836   6.119  71.559  1.00  0.00    -0.313 A  
BRANCH  10  17
HETATM   17  C   UNL     1      -8.687   9.611  69.493  1.00  0.00    -0.185 C  
BRANCH  17  18
HETATM   18  C   UNL     1      -8.437   8.879  68.196  1.00  0.00    -0.129 A  
HETATM   19  C   UNL     1      -9.175   9.184  67.041  1.00  0.00    -0.167 A  
HETATM   20  C   UNL     1      -7.965   7.509  65.790  1.00  0.00    -0.117 A  
HETATM   21  C   UNL     1      -7.207   7.214  66.922  1.00  0.00    -0.087 A  
HETATM   22  C   UNL     1      -8.944   8.498  65.847  1.00  0.00    -0.235 A  
HETATM   23  C   UNL     1      -7.438   7.897  68.117  1.00  0.00    -0.107 A  
ENDBRANCH  17  18
ENDBRANCH  10  17
ENDBRANCH   7   8
ENDBRANCH   6   7
ENDBRANCH   5   6
ENDBRANCH   4   5
ENDBRANCH   2   4
TORSDOF 7
ENDMDL
MODEL      105
REMARK 921   NORMALIZED FREE ENERGY PREDICTED BY IDOCK:   -5.06 KCAL/MOL
REMARK 922        TOTAL FREE ENERGY PREDICTED BY IDOCK:   -7.51 KCAL/MOL
REMARK 923 INTER-LIGAND FREE ENERGY PREDICTED BY IDOCK:   -6.68 KCAL/MOL
REMARK 924 INTRA-LIGAND FREE ENERGY PREDICTED BY IDOCK:   -0.83 KCAL/MOL
REMARK 927      BINDING AFFINITY PREDICTED BY RF-SCORE:    0.00 PKD
ROOT
HETATM    1  C   UNL     1     -10.461  19.681  66.045  1.00  0.00    -0.523 C  
HETATM    2  N   UNL     1      -9.666  20.290  67.116  1.00  0.00    -0.427 NA 
HETATM    3  C   UNL     1     -10.235  19.924  68.414  1.00  0.00    -0.433 C  
ENDROOT
BRANCH   2   4
HETATM    4  C   UNL     1      -8.257  19.874  66.982  1.00  0.00    -0.316 C  
BRANCH   4   5
HETATM    5  C   UNL     1      -7.765  18.983  68.125  1.00  0.00    -0.326 C  
BRANCH   5   6
HETATM    6  C   UNL     1      -7.896  17.507  67.762  1.00  0.00    -0.207 C  
BRANCH   6   7
HETATM    7  O   UNL     1      -8.271  16.806  68.949  1.00  0.00    -0.244 OA 
BRANCH   7   8
HETATM    8  C   UNL     1      -9.134  15.792  68.726  1.00  0.00    -0.213 A  
HETATM    9  N   UNL     1      -8.924  14.932  67.731  1.00  0.00    -0.174 NA 
HETATM   10  N   UNL     1      -9.991  14.102  67.813  1.00  0.00    -0.231 NA 
HETATM   11  C   UNL     1     -12.104  15.485  71.073  1.00  0.00    -0.438 A  
HETATM   12  C   UNL     1     -10.844  14.396  68.859  1.00  0.00    -0.256 A  
HETATM   13  C   UNL     1     -12.034  13.807  69.310  1.00  0.00    -0.399 A  
HETATM   14  C   UNL     1     -10.284  15.507  69.486  1.00  0.00    -0.279 A  
HETATM   15  C   UNL     1     -10.919  16.065  70.611  1.00  0.00    -0.273 A  
HETATM   16  C   UNL     1     -12.653  14.376  70.430  1.00  0.00    -0.405 A  
BRANCH  10  17
HETATM   17  C   UNL     1     -10.088  12.981  66.886  1.00  0.00    -0.243 C  
BRANCH  17  18
HETATM   18  C   UNL     1      -9.891  11.648  67.567  1.00  0.00    -0.199 A  
HETATM   19  C   UNL     1      -8.833  11.446  68.467  1.00  0.00    -0.151 A  
HETATM   20  C   UNL     1      -9.534   9.163  68.826  1.00  0.00    -0.147 A  
HETATM   21  C   UNL     1     -10.606   9.358  67.956  1.00  0.00    -0.278 A  
HETATM   22  C   UNL     1      -8.652  10.209  69.087  1.00  0.00    -0.167 A  
HETATM   23  C   UNL     1     -10.786  10.593  67.333  1.00  0.00    -0.353 A  
ENDBRANCH  17  18
ENDBRANCH  10  17
ENDBRANCH   7   8
ENDBRANCH   6   7
ENDBRANCH   5   6
ENDBRANCH   4   5
ENDBRANCH   2   4
TORSDOF 7
ENDMDL
MODEL      106
REMARK 921   NORMALIZED FREE ENERGY PREDICTED BY IDOCK:   -5.03 KCAL/MOL
REMARK 922        TOTAL FREE ENERGY PREDICTED BY IDOCK:   -7.48 KCAL/MOL
REMARK 923 INTER-LIGAND FREE ENERGY PREDICTED BY IDOCK:   -6.45 KCAL/MOL
REMARK 924 INTRA-LIGAND FREE ENERGY PREDICTED BY IDOCK:   -1.02 KCAL/MOL
REMARK 927      BINDING AFFINITY PREDICTED BY RF-SCORE:    0.00 PKD
ROOT
HETATM    1  C   UNL     1      -8.271  14.173  68.366  1.00  0.00    -0.149 C  
HETATM    2  N   UNL     1      -8.122  15.587  68.008  1.00  0.00    -0.134 NA 
HETATM    3  C   UNL     1      -8.502  15.779  66.607  1.00  0.00    -0.288 C  
ENDROOT
BRANCH   2   4
HETATM    4  C   UNL     1      -8.925  16.415  68.926  1.00  0.00    -0.256 C  
BRANCH   4   5
HETATM    5  C   UNL     1      -9.984  15.629  69.702  1.00  0.00    -0.290 C  
BRANCH   5   6
HETATM    6  C   UNL     1     -11.390  16.013  69.252  1.00  0.00    -0.356 C  
BRANCH   6   7
HETATM    7  O   UNL     1     -12.261  14.936  69.600  1.00  0.00    -0.301 OA 
BRANCH   7   8
HETATM    8  C   UNL     1     -12.015  13.801  68.911  1.00  0.00    -0.359 A  
HETATM    9  N   UNL     1     -11.900  12.636  69.546  1.00  0.00    -0.318 NA 
HETATM   10  N   UNL     1     -11.635  11.765  68.542  1.00  0.00    -0.296 NA 
HETATM   11  C   UNL     1     -11.734  14.084  65.134  1.00  0.00    -0.353 A  
HETATM   12  C   UNL     1     -11.621  12.348  67.290  1.00  0.00    -0.365 A  
HETATM   13  C   UNL     1     -11.404  11.834  66.004  1.00  0.00    -0.335 A  
HETATM   14  C   UNL     1     -11.885  13.698  67.513  1.00  0.00    -0.416 A  
HETATM   15  C   UNL     1     -11.944  14.585  66.422  1.00  0.00    -0.350 A  
HETATM   16  C   UNL     1     -11.466  12.731  64.930  1.00  0.00    -0.355 A  
BRANCH  10  17
HETATM   17  C   UNL     1     -11.481  10.350  68.857  1.00  0.00    -0.186 C  
BRANCH  17  18
HETATM   18  C   UNL     1     -10.147  10.041  69.493  1.00  0.00    -0.248 A  
HETATM   19  C   UNL     1      -8.950  10.499  68.920  1.00  0.00    -0.175 A  
HETATM   20  C   UNL     1      -7.672   9.457  70.686  1.00  0.00    -0.172 A  
HETATM   21  C   UNL     1      -8.854   9.019  71.280  1.00  0.00    -0.259 A  
HETATM   22  C   UNL     1      -7.720  10.203  69.510  1.00  0.00    -0.155 A  
HETATM   23  C   UNL     1     -10.085   9.312  70.690  1.00  0.00    -0.339 A  
ENDBRANCH  17  18
ENDBRANCH  10  17
ENDBRANCH   7   8
ENDBRANCH   6   7
ENDBRANCH   5   6
ENDBRANCH   4   5
ENDBRANCH   2   4
TORSDOF 7
ENDMDL
MODEL      107
REMARK 921   NORMALIZED FREE ENERGY PREDICTED BY IDOCK:   -5.02 KCAL/MOL
REMARK 922        TOTAL FREE ENERGY PREDICTED BY IDOCK:   -7.47 KCAL/MOL
REMARK 923 INTER-LIGAND FREE ENERGY PREDICTED BY IDOCK:   -6.85 KCAL/MOL
REMARK 924 INTRA-LIGAND FREE ENERGY PREDICTED BY IDOCK:   -0.62 KCAL/MOL
REMARK 927      BINDING AFFINITY PREDICTED BY RF-SCORE:    0.00 PKD
ROOT
HETATM    1  C   UNL     1     -11.182  13.588  64.624  1.00  0.00    -0.363 C  
HETATM    2  N   UNL     1     -11.196  12.127  64.499  1.00  0.00    -0.318 NA 
HETATM    3  C   UNL     1     -12.221  11.731  63.531  1.00  0.00    -0.380 C  
ENDROOT
BRANCH   2   4
HETATM    4  C   UNL     1      -9.853  11.651  64.121  1.00  0.00    -0.242 C  
BRANCH   4   5
HETATM    5  C   UNL     1      -9.120  10.912  65.243  1.00  0.00    -0.217 C  
BRANCH   5   6
HETATM    6  C   UNL     1     -10.088  10.499  66.347  1.00  0.00    -0.228 C  
BRANCH   6   7
HETATM    7  O   UNL     1      -9.305  10.102  67.475  1.00  0.00    -0.149 OA 
BRANCH   7   8
HETATM    8  C   UNL     1     -10.009  10.047  68.626  1.00  0.00    -0.165 A  
HETATM    9  N   UNL     1     -11.147  10.728  68.755  1.00  0.00    -0.238 NA 
HETATM   10  N   UNL     1     -11.529  10.446  70.024  1.00  0.00    -0.285 NA 
HETATM   11  C   UNL     1      -8.638   7.848  71.403  1.00  0.00    -0.141 A  
HETATM   12  C   UNL     1     -10.681   9.575  70.679  1.00  0.00    -0.309 A  
HETATM   13  C   UNL     1     -10.697   9.021  71.967  1.00  0.00    -0.333 A  
HETATM   14  C   UNL     1      -9.673   9.288  69.762  1.00  0.00    -0.202 A  
HETATM   15  C   UNL     1      -8.632   8.412  70.123  1.00  0.00    -0.131 A  
HETATM   16  C   UNL     1      -9.654   8.151  72.310  1.00  0.00    -0.319 A  
BRANCH  10  17
HETATM   17  C   UNL     1     -12.784  10.996  70.523  1.00  0.00    -0.247 C  
BRANCH  17  18
HETATM   18  C   UNL     1     -12.632  12.409  71.035  1.00  0.00    -0.349 A  
HETATM   19  C   UNL     1     -11.824  13.338  70.362  1.00  0.00    -0.270 A  
HETATM   20  C   UNL     1     -12.355  15.033  71.999  1.00  0.00    -0.421 A  
HETATM   21  C   UNL     1     -13.182  14.128  72.663  1.00  0.00    -0.612 A  
HETATM   22  C   UNL     1     -11.681  14.640  70.845  1.00  0.00    -0.335 A  
HETATM   23  C   UNL     1     -13.324  12.825  72.183  1.00  0.00    -0.593 A  
ENDBRANCH  17  18
ENDBRANCH  10  17
ENDBRANCH   7   8
ENDBRANCH   6   7
ENDBRANCH   5   6
ENDBRANCH   4   5
ENDBRANCH   2   4
TORSDOF 7
ENDMDL
MODEL      108
REMARK 921   NORMALIZED FREE ENERGY PREDICTED BY IDOCK:   -5.02 KCAL/MOL
REMARK 922        TOTAL FREE ENERGY PREDICTED BY IDOCK:   -7.47 KCAL/MOL
REMARK 923 INTER-LIGAND FREE ENERGY PREDICTED BY IDOCK:   -6.85 KCAL/MOL
REMARK 924 INTRA-LIGAND FREE ENERGY PREDICTED BY IDOCK:   -0.61 KCAL/MOL
REMARK 927      BINDING AFFINITY PREDICTED BY RF-SCORE:    0.00 PKD
ROOT
HETATM    1  C   UNL     1      -9.014   7.016  71.082  1.00  0.00    -0.146 C  
HETATM    2  N   UNL     1      -9.945   7.328  72.171  1.00  0.00    -0.164 NA 
HETATM    3  C   UNL     1      -9.238   8.061  73.222  1.00  0.00    -0.278 C  
ENDROOT
BRANCH   2   4
HETATM    4  C   UNL     1     -11.094   8.082  71.636  1.00  0.00    -0.252 C  
BRANCH   4   5
HETATM    5  C   UNL     1     -10.700   9.245  70.724  1.00  0.00    -0.350 C  
BRANCH   5   6
HETATM    6  C   UNL     1     -11.584  10.462  70.977  1.00  0.00    -0.295 C  
BRANCH   6   7
HETATM    7  O   UNL     1     -12.311  10.721  69.774  1.00  0.00    -0.327 OA 
BRANCH   7   8
HETATM    8  C   UNL     1     -11.999  11.904  69.201  1.00  0.00    -0.276 A  
HETATM    9  N   UNL     1     -11.518  11.948  67.960  1.00  0.00    -0.299 NA 
HETATM   10  N   UNL     1     -11.311  13.271  67.759  1.00  0.00    -0.279 NA 
HETATM   11  C   UNL     1     -12.613  15.044  71.248  1.00  0.00    -0.409 A  
HETATM   12  C   UNL     1     -11.687  14.061  68.828  1.00  0.00    -0.353 A  
HETATM   13  C   UNL     1     -11.658  15.447  69.044  1.00  0.00    -0.361 A  
HETATM   14  C   UNL     1     -12.160  13.172  69.791  1.00  0.00    -0.336 A  
HETATM   15  C   UNL     1     -12.632  13.664  71.021  1.00  0.00    -0.441 A  
HETATM   16  C   UNL     1     -12.132  15.919  70.274  1.00  0.00    -0.294 A  
BRANCH  10  17
HETATM   17  C   UNL     1     -10.812  13.721  66.465  1.00  0.00    -0.287 C  
BRANCH  17  18
HETATM   18  C   UNL     1      -9.632  14.655  66.593  1.00  0.00    -0.294 A  
HETATM   19  C   UNL     1      -8.448  14.240  67.224  1.00  0.00    -0.226 A  
HETATM   20  C   UNL     1      -7.445  16.401  66.826  1.00  0.00    -0.278 A  
HETATM   21  C   UNL     1      -8.604  16.817  66.173  1.00  0.00    -0.299 A  
HETATM   22  C   UNL     1      -7.364  15.112  67.345  1.00  0.00    -0.235 A  
HETATM   23  C   UNL     1      -9.690  15.949  66.053  1.00  0.00    -0.375 A  
ENDBRANCH  17  18
ENDBRANCH  10  17
ENDBRANCH   7   8
ENDBRANCH   6   7
ENDBRANCH   5   6
ENDBRANCH   4   5
ENDBRANCH   2   4
TORSDOF 7
ENDMDL
MODEL      109
REMARK 921   NORMALIZED FREE ENERGY PREDICTED BY IDOCK:   -5.00 KCAL/MOL
REMARK 922        TOTAL FREE ENERGY PREDICTED BY IDOCK:   -7.44 KCAL/MOL
REMARK 923 INTER-LIGAND FREE ENERGY PREDICTED BY IDOCK:   -6.86 KCAL/MOL
REMARK 924 INTRA-LIGAND FREE ENERGY PREDICTED BY IDOCK:   -0.58 KCAL/MOL
REMARK 927      BINDING AFFINITY PREDICTED BY RF-SCORE:    0.00 PKD
ROOT
HETATM    1  C   UNL     1      -7.374   8.595  63.792  1.00  0.00    -0.101 C  
HETATM    2  N   UNL     1      -6.741   8.978  65.058  1.00  0.00    -0.069 NA 
HETATM    3  C   UNL     1      -6.164  10.318  64.929  1.00  0.00    -0.125 C  
ENDROOT
BRANCH   2   4
HETATM    4  C   UNL     1      -7.729   8.895  66.149  1.00  0.00    -0.098 C  
BRANCH   4   5
HETATM    5  C   UNL     1      -9.180   9.034  65.681  1.00  0.00    -0.288 C  
BRANCH   5   6
HETATM    6  C   UNL     1     -10.145   8.945  66.859  1.00  0.00    -0.273 C  
BRANCH   6   7
HETATM    7  O   UNL     1      -9.567   9.677  67.942  1.00  0.00    -0.137 OA 
BRANCH   7   8
HETATM    8  C   UNL     1     -10.427  10.536  68.530  1.00  0.00    -0.188 A  
HETATM    9  N   UNL     1     -10.635  11.746  68.011  1.00  0.00    -0.199 NA 
HETATM   10  N   UNL     1     -11.517  12.302  68.876  1.00  0.00    -0.280 NA 
HETATM   11  C   UNL     1     -12.238   9.330  71.643  1.00  0.00    -0.445 A  
HETATM   12  C   UNL     1     -11.898  11.458  69.901  1.00  0.00    -0.359 A  
HETATM   13  C   UNL     1     -12.774  11.612  70.984  1.00  0.00    -0.395 A  
HETATM   14  C   UNL     1     -11.196  10.275  69.680  1.00  0.00    -0.322 A  
HETATM   15  C   UNL     1     -11.363   9.191  70.561  1.00  0.00    -0.300 A  
HETATM   16  C   UNL     1     -12.929  10.523  71.851  1.00  0.00    -0.553 A  
BRANCH  10  17
HETATM   17  C   UNL     1     -12.020  13.644  68.608  1.00  0.00    -0.360 C  
BRANCH  17  18
HETATM   18  C   UNL     1     -11.713  14.106  67.203  1.00  0.00    -0.430 A  
HETATM   19  C   UNL     1     -10.751  15.100  66.964  1.00  0.00    -0.307 A  
HETATM   20  C   UNL     1     -11.154  14.960  64.586  1.00  0.00    -0.335 A  
HETATM   21  C   UNL     1     -12.092  13.953  64.807  1.00  0.00    -0.443 A  
HETATM   22  C   UNL     1     -10.479  15.529  65.664  1.00  0.00    -0.393 A  
HETATM   23  C   UNL     1     -12.368  13.525  66.107  1.00  0.00    -0.463 A  
ENDBRANCH  17  18
ENDBRANCH  10  17
ENDBRANCH   7   8
ENDBRANCH   6   7
ENDBRANCH   5   6
ENDBRANCH   4   5
ENDBRANCH   2   4
TORSDOF 7
ENDMDL
MODEL      110
REMARK 921   NORMALIZED FREE ENERGY PREDICTED BY IDOCK:   -5.00 KCAL/MOL
REMARK 922        TOTAL FREE ENERGY PREDICTED BY IDOCK:   -7.43 KCAL/MOL
REMARK 923 INTER-LIGAND FREE ENERGY PREDICTED BY IDOCK:   -6.96 KCAL/MOL
REMARK 924 INTRA-LIGAND FREE ENERGY PREDICTED BY IDOCK:   -0.47 KCAL/MOL
REMARK 927      BINDING AFFINITY PREDICTED BY RF-SCORE:    0.00 PKD
ROOT
HETATM    1  C   UNL     1     -10.103   4.637  70.170  1.00  0.00    -0.213 C  
HETATM    2  N   UNL     1      -9.977   4.936  71.600  1.00  0.00    -0.183 NA 
HETATM    3  C   UNL     1      -8.606   4.664  72.036  1.00  0.00    -0.118 C  
ENDROOT
BRANCH   2   4
HETATM    4  C   UNL     1     -10.379   6.332  71.850  1.00  0.00    -0.204 C  
BRANCH   4   5
HETATM    5  C   UNL     1     -11.889   6.520  72.017  1.00  0.00    -0.374 C  
BRANCH   5   6
HETATM    6  C   UNL     1     -12.385   7.712  71.205  1.00  0.00    -0.309 C  
BRANCH   6   7
HETATM    7  O   UNL     1     -11.907   8.896  71.847  1.00  0.00    -0.326 OA 
BRANCH   7   8
HETATM    8  C   UNL     1     -11.637   9.902  70.988  1.00  0.00    -0.389 A  
HETATM    9  N   UNL     1     -12.409  10.987  70.955  1.00  0.00    -0.381 NA 
HETATM   10  N   UNL     1     -11.845  11.733  69.975  1.00  0.00    -0.341 NA 
HETATM   11  C   UNL     1      -8.586   9.518  68.759  1.00  0.00    -0.123 A  
HETATM   12  C   UNL     1     -10.716  11.162  69.421  1.00  0.00    -0.175 A  
HETATM   13  C   UNL     1      -9.836  11.579  68.412  1.00  0.00    -0.204 A  
HETATM   14  C   UNL     1     -10.553   9.951  70.091  1.00  0.00    -0.350 A  
HETATM   15  C   UNL     1      -9.474   9.112  69.760  1.00  0.00    -0.191 A  
HETATM   16  C   UNL     1      -8.767  10.731  68.096  1.00  0.00    -0.130 A  
BRANCH  10  17
HETATM   17  C   UNL     1     -12.408  13.043  69.670  1.00  0.00    -0.045 C  
BRANCH  17  18
HETATM   18  C   UNL     1     -12.388  13.972  70.861  1.00  0.00    -0.443 A  
HETATM   19  C   UNL     1     -11.543  15.093  70.888  1.00  0.00    -0.380 A  
HETATM   20  C   UNL     1     -12.357  15.691  73.083  1.00  0.00    -0.584 A  
HETATM   21  C   UNL     1     -13.221  14.597  73.057  1.00  0.00    -0.587 A  
HETATM   22  C   UNL     1     -11.523  15.942  71.996  1.00  0.00    -0.422 A  
HETATM   23  C   UNL     1     -13.240  13.744  71.953  1.00  0.00    -0.486 A  
ENDBRANCH  17  18
ENDBRANCH  10  17
ENDBRANCH   7   8
ENDBRANCH   6   7
ENDBRANCH   5   6
ENDBRANCH   4   5
ENDBRANCH   2   4
TORSDOF 7
ENDMDL
MODEL      111
REMARK 921   NORMALIZED FREE ENERGY PREDICTED BY IDOCK:   -5.00 KCAL/MOL
REMARK 922        TOTAL FREE ENERGY PREDICTED BY IDOCK:   -7.43 KCAL/MOL
REMARK 923 INTER-LIGAND FREE ENERGY PREDICTED BY IDOCK:   -7.29 KCAL/MOL
REMARK 924 INTRA-LIGAND FREE ENERGY PREDICTED BY IDOCK:   -0.14 KCAL/MOL
REMARK 927      BINDING AFFINITY PREDICTED BY RF-SCORE:    0.00 PKD
ROOT
HETATM    1  C   UNL     1      -9.047   3.125  66.163  1.00  0.00    -0.149 C  
HETATM    2  N   UNL     1      -9.578   4.268  65.414  1.00  0.00    -0.174 NA 
HETATM    3  C   UNL     1     -10.498   3.789  64.380  1.00  0.00    -0.216 C  
ENDROOT
BRANCH   2   4
HETATM    4  C   UNL     1     -10.222   5.213  66.345  1.00  0.00    -0.266 C  
BRANCH   4   5
HETATM    5  C   UNL     1      -9.465   6.533  66.507  1.00  0.00    -0.190 C  
BRANCH   5   6
HETATM    6  C   UNL     1     -10.402   7.647  66.963  1.00  0.00    -0.330 C  
BRANCH   6   7
HETATM    7  O   UNL     1     -10.087   8.812  66.198  1.00  0.00    -0.269 OA 
BRANCH   7   8
HETATM    8  C   UNL     1     -10.602   9.949  66.712  1.00  0.00    -0.144 A  
HETATM    9  N   UNL     1     -10.860  10.046  68.015  1.00  0.00    -0.260 NA 
HETATM   10  N   UNL     1     -11.377  11.292  68.133  1.00  0.00    -0.279 NA 
HETATM   11  C   UNL     1     -11.208  12.828  64.309  1.00  0.00    -0.409 A  
HETATM   12  C   UNL     1     -11.412  11.994  66.944  1.00  0.00    -0.337 A  
HETATM   13  C   UNL     1     -11.848  13.286  66.614  1.00  0.00    -0.447 A  
HETATM   14  C   UNL     1     -10.889  11.124  65.990  1.00  0.00    -0.230 A  
HETATM   15  C   UNL     1     -10.782  11.540  64.651  1.00  0.00    -0.379 A  
HETATM   16  C   UNL     1     -11.734  13.684  65.276  1.00  0.00    -0.349 A  
BRANCH  10  17
HETATM   17  C   UNL     1     -11.750  11.781  69.455  1.00  0.00    -0.343 C  
BRANCH  17  18
HETATM   18  C   UNL     1     -11.982  10.661  70.441  1.00  0.00    -0.436 A  
HETATM   19  C   UNL     1     -13.278  10.329  70.866  1.00  0.00    -0.351 A  
HETATM   20  C   UNL     1     -12.399   8.577  72.278  1.00  0.00    -0.450 A  
HETATM   21  C   UNL     1     -11.109   8.879  71.845  1.00  0.00    -0.442 A  
HETATM   22  C   UNL     1     -13.484   9.298  71.784  1.00  0.00    -0.483 A  
HETATM   23  C   UNL     1     -10.901   9.912  70.929  1.00  0.00    -0.357 A  
ENDBRANCH  17  18
ENDBRANCH  10  17
ENDBRANCH   7   8
ENDBRANCH   6   7
ENDBRANCH   5   6
ENDBRANCH   4   5
ENDBRANCH   2   4
TORSDOF 7
ENDMDL
MODEL      112
REMARK 921   NORMALIZED FREE ENERGY PREDICTED BY IDOCK:   -4.99 KCAL/MOL
REMARK 922        TOTAL FREE ENERGY PREDICTED BY IDOCK:   -7.42 KCAL/MOL
REMARK 923 INTER-LIGAND FREE ENERGY PREDICTED BY IDOCK:   -6.96 KCAL/MOL
REMARK 924 INTRA-LIGAND FREE ENERGY PREDICTED BY IDOCK:   -0.46 KCAL/MOL
REMARK 927      BINDING AFFINITY PREDICTED BY RF-SCORE:    0.00 PKD
ROOT
HETATM    1  C   UNL     1      -8.611   5.470  64.971  1.00  0.00    -0.128 C  
HETATM    2  N   UNL     1      -8.033   6.233  66.082  1.00  0.00    -0.108 NA 
HETATM    3  C   UNL     1      -6.573   6.232  65.968  1.00  0.00    -0.048 C  
ENDROOT
BRANCH   2   4
HETATM    4  C   UNL     1      -8.596   7.596  66.090  1.00  0.00    -0.148 C  
BRANCH   4   5
HETATM    5  C   UNL     1      -7.929   8.546  65.092  1.00  0.00    -0.130 C  
BRANCH   5   6
HETATM    6  C   UNL     1      -8.912   9.607  64.607  1.00  0.00    -0.231 C  
BRANCH   6   7
HETATM    7  O   UNL     1     -10.035   9.585  65.490  1.00  0.00    -0.304 OA 
BRANCH   7   8
HETATM    8  C   UNL     1     -10.398  10.809  65.929  1.00  0.00    -0.238 A  
HETATM    9  N   UNL     1     -10.109  11.194  67.171  1.00  0.00    -0.186 NA 
HETATM   10  N   UNL     1     -10.646  12.436  67.238  1.00  0.00    -0.221 NA 
HETATM   11  C   UNL     1     -12.199  13.077  63.472  1.00  0.00    -0.580 A  
HETATM   12  C   UNL     1     -11.230  12.854  66.059  1.00  0.00    -0.293 A  
HETATM   13  C   UNL     1     -11.880  14.039  65.687  1.00  0.00    -0.384 A  
HETATM   14  C   UNL     1     -11.063  11.792  65.172  1.00  0.00    -0.341 A  
HETATM   15  C   UNL     1     -11.552  11.898  63.858  1.00  0.00    -0.515 A  
HETATM   16  C   UNL     1     -12.361  14.129  64.374  1.00  0.00    -0.410 A  
BRANCH  10  17
HETATM   17  C   UNL     1     -10.490  13.208  68.466  1.00  0.00    -0.251 C  
BRANCH  17  18
HETATM   18  C   UNL     1     -11.422  12.746  69.561  1.00  0.00    -0.293 A  
HETATM   19  C   UNL     1     -12.146  13.670  70.331  1.00  0.00    -0.421 A  
HETATM   20  C   UNL     1     -13.149  11.875  71.598  1.00  0.00    -0.433 A  
HETATM   21  C   UNL     1     -12.456  10.945  70.824  1.00  0.00    -0.489 A  
HETATM   22  C   UNL     1     -12.999  13.237  71.347  1.00  0.00    -0.398 A  
HETATM   23  C   UNL     1     -11.601  11.377  69.809  1.00  0.00    -0.407 A  
ENDBRANCH  17  18
ENDBRANCH  10  17
ENDBRANCH   7   8
ENDBRANCH   6   7
ENDBRANCH   5   6
ENDBRANCH   4   5
ENDBRANCH   2   4
TORSDOF 7
ENDMDL
MODEL      113
REMARK 921   NORMALIZED FREE ENERGY PREDICTED BY IDOCK:   -4.99 KCAL/MOL
REMARK 922        TOTAL FREE ENERGY PREDICTED BY IDOCK:   -7.41 KCAL/MOL
REMARK 923 INTER-LIGAND FREE ENERGY PREDICTED BY IDOCK:   -6.44 KCAL/MOL
REMARK 924 INTRA-LIGAND FREE ENERGY PREDICTED BY IDOCK:   -0.98 KCAL/MOL
REMARK 927      BINDING AFFINITY PREDICTED BY RF-SCORE:    0.00 PKD
ROOT
HETATM    1  C   UNL     1      -8.324   6.206  65.764  1.00  0.00    -0.143 C  
HETATM    2  N   UNL     1      -8.270   5.879  67.193  1.00  0.00    -0.105 NA 
HETATM    3  C   UNL     1      -6.953   5.326  67.517  1.00  0.00    -0.065 C  
ENDROOT
BRANCH   2   4
HETATM    4  C   UNL     1      -8.586   7.080  67.986  1.00  0.00    -0.124 C  
BRANCH   4   5
HETATM    5  C   UNL     1     -10.046   7.156  68.439  1.00  0.00    -0.182 C  
BRANCH   5   6
HETATM    6  C   UNL     1     -10.829   8.156  67.595  1.00  0.00    -0.023 C  
BRANCH   6   7
HETATM    7  O   UNL     1     -10.206   9.432  67.756  1.00  0.00    -0.194 OA 
BRANCH   7   8
HETATM    8  C   UNL     1     -10.561  10.328  66.810  1.00  0.00    -0.185 A  
HETATM    9  N   UNL     1     -11.446  11.285  67.084  1.00  0.00    -0.490 NA 
HETATM   10  N   UNL     1     -11.555  11.947  65.907  1.00  0.00    -0.402 NA 
HETATM   11  C   UNL     1      -8.896  10.022  63.410  1.00  0.00    -0.249 A  
HETATM   12  C   UNL     1     -10.733  11.453  64.914  1.00  0.00    -0.286 A  
HETATM   13  C   UNL     1     -10.521  11.828  63.579  1.00  0.00    -0.500 A  
HETATM   14  C   UNL     1     -10.054  10.386  65.498  1.00  0.00    -0.352 A  
HETATM   15  C   UNL     1      -9.120   9.655  64.741  1.00  0.00    -0.283 A  
HETATM   16  C   UNL     1      -9.589  11.090  62.840  1.00  0.00    -0.369 A  
BRANCH  10  17
HETATM   17  C   UNL     1     -12.427  13.113  65.830  1.00  0.00    -0.377 C  
BRANCH  17  18
HETATM   18  C   UNL     1     -11.695  14.402  66.117  1.00  0.00    -0.384 A  
HETATM   19  C   UNL     1     -11.196  15.197  65.073  1.00  0.00    -0.414 A  
HETATM   20  C   UNL     1     -10.334  16.797  66.664  1.00  0.00    -0.297 A  
HETATM   21  C   UNL     1     -10.848  16.031  67.709  1.00  0.00    -0.324 A  
HETATM   22  C   UNL     1     -10.513  16.383  65.346  1.00  0.00    -0.333 A  
HETATM   23  C   UNL     1     -11.528  14.843  67.438  1.00  0.00    -0.354 A  
ENDBRANCH  17  18
ENDBRANCH  10  17
ENDBRANCH   7   8
ENDBRANCH   6   7
ENDBRANCH   5   6
ENDBRANCH   4   5
ENDBRANCH   2   4
TORSDOF 7
ENDMDL
MODEL      114
REMARK 921   NORMALIZED FREE ENERGY PREDICTED BY IDOCK:   -4.98 KCAL/MOL
REMARK 922        TOTAL FREE ENERGY PREDICTED BY IDOCK:   -7.41 KCAL/MOL
REMARK 923 INTER-LIGAND FREE ENERGY PREDICTED BY IDOCK:   -6.92 KCAL/MOL
REMARK 924 INTRA-LIGAND FREE ENERGY PREDICTED BY IDOCK:   -0.49 KCAL/MOL
REMARK 927      BINDING AFFINITY PREDICTED BY RF-SCORE:    0.00 PKD
ROOT
HETATM    1  C   UNL     1     -10.746   7.106  73.274  1.00  0.00    -0.361 C  
HETATM    2  N   UNL     1     -11.282   7.499  71.966  1.00  0.00    -0.247 NA 
HETATM    3  C   UNL     1     -12.509   6.748  71.695  1.00  0.00    -0.351 C  
ENDROOT
BRANCH   2   4
HETATM    4  C   UNL     1     -11.498   8.958  71.940  1.00  0.00    -0.372 C  
BRANCH   4   5
HETATM    5  C   UNL     1     -12.868   9.370  71.396  1.00  0.00    -0.423 C  
BRANCH   5   6
HETATM    6  C   UNL     1     -12.851  10.816  70.912  1.00  0.00    -0.351 C  
BRANCH   6   7
HETATM    7  O   UNL     1     -11.508  11.126  70.536  1.00  0.00    -0.269 OA 
BRANCH   7   8
HETATM    8  C   UNL     1     -11.304  11.103  69.202  1.00  0.00    -0.273 A  
HETATM    9  N   UNL     1     -10.888   9.989  68.602  1.00  0.00    -0.231 NA 
HETATM   10  N   UNL     1     -10.778  10.363  67.304  1.00  0.00    -0.272 NA 
HETATM   11  C   UNL     1     -12.019  14.296  67.274  1.00  0.00    -0.439 A  
HETATM   12  C   UNL     1     -11.152  11.672  67.070  1.00  0.00    -0.302 A  
HETATM   13  C   UNL     1     -11.203  12.454  65.907  1.00  0.00    -0.373 A  
HETATM   14  C   UNL     1     -11.518  12.176  68.316  1.00  0.00    -0.360 A  
HETATM   15  C   UNL     1     -11.959  13.507  68.428  1.00  0.00    -0.378 A  
HETATM   16  C   UNL     1     -11.644  13.776  66.035  1.00  0.00    -0.361 A  
BRANCH  10  17
HETATM   17  C   UNL     1     -10.375   9.372  66.314  1.00  0.00    -0.141 C  
BRANCH  17  18
HETATM   18  C   UNL     1     -10.057   8.032  66.933  1.00  0.00    -0.362 A  
HETATM   19  C   UNL     1     -11.030   7.023  67.010  1.00  0.00    -0.357 A  
HETATM   20  C   UNL     1      -9.454   5.545  68.089  1.00  0.00    -0.133 A  
HETATM   21  C   UNL     1      -8.470   6.528  67.995  1.00  0.00    -0.119 A  
HETATM   22  C   UNL     1     -10.731   5.790  67.591  1.00  0.00    -0.313 A  
HETATM   23  C   UNL     1      -8.767   7.763  67.417  1.00  0.00    -0.128 A  
ENDBRANCH  17  18
ENDBRANCH  10  17
ENDBRANCH   7   8
ENDBRANCH   6   7
ENDBRANCH   5   6
ENDBRANCH   4   5
ENDBRANCH   2   4
TORSDOF 7
ENDMDL
MODEL      115
REMARK 921   NORMALIZED FREE ENERGY PREDICTED BY IDOCK:   -4.98 KCAL/MOL
REMARK 922        TOTAL FREE ENERGY PREDICTED BY IDOCK:   -7.41 KCAL/MOL
REMARK 923 INTER-LIGAND FREE ENERGY PREDICTED BY IDOCK:   -6.51 KCAL/MOL
REMARK 924 INTRA-LIGAND FREE ENERGY PREDICTED BY IDOCK:   -0.89 KCAL/MOL
REMARK 927      BINDING AFFINITY PREDICTED BY RF-SCORE:    0.00 PKD
ROOT
HETATM    1  C   UNL     1      -7.315  10.497  68.877  1.00  0.00    -0.098 C  
HETATM    2  N   UNL     1      -7.920   9.256  68.379  1.00  0.00    -0.101 NA 
HETATM    3  C   UNL     1      -6.990   8.144  68.582  1.00  0.00    -0.068 C  
ENDROOT
BRANCH   2   4
HETATM    4  C   UNL     1      -9.214   9.036  69.050  1.00  0.00    -0.140 C  
BRANCH   4   5
HETATM    5  C   UNL     1     -10.082  10.293  69.149  1.00  0.00    -0.232 C  
BRANCH   5   6
HETATM    6  C   UNL     1     -10.897  10.496  67.876  1.00  0.00    -0.282 C  
BRANCH   6   7
HETATM    7  O   UNL     1     -11.949  11.413  68.183  1.00  0.00    -0.594 OA 
BRANCH   7   8
HETATM    8  C   UNL     1     -11.839  12.594  67.538  1.00  0.00    -0.334 A  
HETATM    9  N   UNL     1     -11.582  13.712  68.215  1.00  0.00    -0.316 NA 
HETATM   10  N   UNL     1     -11.573  14.660  67.247  1.00  0.00    -0.379 NA 
HETATM   11  C   UNL     1     -12.232  12.558  63.761  1.00  0.00    -0.615 A  
HETATM   12  C   UNL     1     -11.780  14.159  65.977  1.00  0.00    -0.382 A  
HETATM   13  C   UNL     1     -11.840  14.765  64.714  1.00  0.00    -0.425 A  
HETATM   14  C   UNL     1     -11.944  12.787  66.148  1.00  0.00    -0.476 A  
HETATM   15  C   UNL     1     -12.174  11.968  65.027  1.00  0.00    -0.126 A  
HETATM   16  C   UNL     1     -12.069  13.935  63.609  1.00  0.00    -0.247 A  
BRANCH  10  17
HETATM   17  C   UNL     1     -11.279  16.041  67.612  1.00  0.00    -0.183 C  
BRANCH  17  18
HETATM   18  C   UNL     1      -9.806  16.361  67.524  1.00  0.00    -0.239 A  
HETATM   19  C   UNL     1      -8.973  16.245  68.649  1.00  0.00    -0.232 A  
HETATM   20  C   UNL     1      -7.067  16.960  67.348  1.00  0.00    -0.185 A  
HETATM   21  C   UNL     1      -7.877  17.054  66.218  1.00  0.00    -0.346 A  
HETATM   22  C   UNL     1      -7.614  16.550  68.562  1.00  0.00    -0.200 A  
HETATM   23  C   UNL     1      -9.237  16.752  66.303  1.00  0.00    -0.313 A  
ENDBRANCH  17  18
ENDBRANCH  10  17
ENDBRANCH   7   8
ENDBRANCH   6   7
ENDBRANCH   5   6
ENDBRANCH   4   5
ENDBRANCH   2   4
TORSDOF 7
ENDMDL
MODEL      116
REMARK 921   NORMALIZED FREE ENERGY PREDICTED BY IDOCK:   -4.97 KCAL/MOL
REMARK 922        TOTAL FREE ENERGY PREDICTED BY IDOCK:   -7.40 KCAL/MOL
REMARK 923 INTER-LIGAND FREE ENERGY PREDICTED BY IDOCK:   -6.54 KCAL/MOL
REMARK 924 INTRA-LIGAND FREE ENERGY PREDICTED BY IDOCK:   -0.85 KCAL/MOL
REMARK 927      BINDING AFFINITY PREDICTED BY RF-SCORE:    0.00 PKD
ROOT
HETATM    1  C   UNL     1      -6.449   9.347  67.288  1.00  0.00    -0.070 C  
HETATM    2  N   UNL     1      -6.710   8.894  68.658  1.00  0.00    -0.058 NA 
HETATM    3  C   UNL     1      -6.173   9.871  69.606  1.00  0.00    -0.047 C  
ENDROOT
BRANCH   2   4
HETATM    4  C   UNL     1      -8.157   8.674  68.837  1.00  0.00    -0.118 C  
BRANCH   4   5
HETATM    5  C   UNL     1      -8.854   9.771  69.645  1.00  0.00    -0.224 C  
BRANCH   5   6
HETATM    6  C   UNL     1     -10.356   9.774  69.382  1.00  0.00    -0.217 C  
BRANCH   6   7
HETATM    7  O   UNL     1     -10.549   9.457  68.002  1.00  0.00    -0.230 OA 
BRANCH   7   8
HETATM    8  C   UNL     1     -10.858  10.529  67.241  1.00  0.00    -0.279 A  
HETATM    9  N   UNL     1     -11.558  11.541  67.752  1.00  0.00    -0.500 NA 
HETATM   10  N   UNL     1     -11.682  12.387  66.701  1.00  0.00    -0.489 NA 
HETATM   11  C   UNL     1      -9.597  10.543  63.659  1.00  0.00    -0.370 A  
HETATM   12  C   UNL     1     -11.044  11.951  65.557  1.00  0.00    -0.304 A  
HETATM   13  C   UNL     1     -10.910  12.500  64.274  1.00  0.00    -0.400 A  
HETATM   14  C   UNL     1     -10.478  10.725  65.900  1.00  0.00    -0.270 A  
HETATM   15  C   UNL     1      -9.742  10.005  64.941  1.00  0.00    -0.377 A  
HETATM   16  C   UNL     1     -10.174  11.770  63.332  1.00  0.00    -0.482 A  
BRANCH  10  17
HETATM   17  C   UNL     1     -12.374  13.657  66.894  1.00  0.00    -0.262 C  
BRANCH  17  18
HETATM   18  C   UNL     1     -11.788  14.469  68.023  1.00  0.00    -0.350 A  
HETATM   19  C   UNL     1     -12.246  14.311  69.341  1.00  0.00    -0.319 A  
HETATM   20  C   UNL     1     -10.690  15.989  70.115  1.00  0.00    -0.316 A  
HETATM   21  C   UNL     1     -10.207  16.137  68.817  1.00  0.00    -0.238 A  
HETATM   22  C   UNL     1     -11.705  15.071  70.379  1.00  0.00    -0.336 A  
HETATM   23  C   UNL     1     -10.749  15.380  67.777  1.00  0.00    -0.289 A  
ENDBRANCH  17  18
ENDBRANCH  10  17
ENDBRANCH   7   8
ENDBRANCH   6   7
ENDBRANCH   5   6
ENDBRANCH   4   5
ENDBRANCH   2   4
TORSDOF 7
ENDMDL
MODEL      117
REMARK 921   NORMALIZED FREE ENERGY PREDICTED BY IDOCK:   -4.97 KCAL/MOL
REMARK 922        TOTAL FREE ENERGY PREDICTED BY IDOCK:   -7.39 KCAL/MOL
REMARK 923 INTER-LIGAND FREE ENERGY PREDICTED BY IDOCK:   -6.56 KCAL/MOL
REMARK 924 INTRA-LIGAND FREE ENERGY PREDICTED BY IDOCK:   -0.83 KCAL/MOL
REMARK 927      BINDING AFFINITY PREDICTED BY RF-SCORE:    0.00 PKD
ROOT
HETATM    1  C   UNL     1      -7.720   8.969  65.390  1.00  0.00    -0.095 C  
HETATM    2  N   UNL     1      -8.779   9.977  65.501  1.00  0.00    -0.148 NA 
HETATM    3  C   UNL     1      -9.497  10.072  64.228  1.00  0.00    -0.273 C  
ENDROOT
BRANCH   2   4
HETATM    4  C   UNL     1      -9.670   9.635  66.625  1.00  0.00    -0.209 C  
BRANCH   4   5
HETATM    5  C   UNL     1      -9.729  10.706  67.716  1.00  0.00    -0.179 C  
BRANCH   5   6
HETATM    6  C   UNL     1     -10.914  10.475  68.647  1.00  0.00    -0.248 C  
BRANCH   6   7
HETATM    7  O   UNL     1     -11.995  11.279  68.171  1.00  0.00    -0.610 OA 
BRANCH   7   8
HETATM    8  C   UNL     1     -12.033  12.510  68.723  1.00  0.00    -0.238 A  
HETATM    9  N   UNL     1     -11.632  13.574  68.030  1.00  0.00    -0.316 NA 
HETATM   10  N   UNL     1     -11.793  14.591  68.910  1.00  0.00    -0.324 NA 
HETATM   11  C   UNL     1     -13.375  12.790  72.266  1.00  0.00    -0.563 A  
HETATM   12  C   UNL     1     -12.321  14.198  70.124  1.00  0.00    -0.351 A  
HETATM   13  C   UNL     1     -12.653  14.902  71.290  1.00  0.00    -0.402 A  
HETATM   14  C   UNL     1     -12.501  12.821  70.015  1.00  0.00    -0.068 A  
HETATM   15  C   UNL     1     -13.036  12.100  71.098  1.00  0.00    -0.240 A  
HETATM   16  C   UNL     1     -13.183  14.169  72.359  1.00  0.00    -0.566 A  
BRANCH  10  17
HETATM   17  C   UNL     1     -11.485  15.951  68.483  1.00  0.00    -0.377 C  
BRANCH  17  18
HETATM   18  C   UNL     1     -10.099  16.074  67.897  1.00  0.00    -0.241 A  
HETATM   19  C   UNL     1      -9.908  16.526  66.582  1.00  0.00    -0.279 A  
HETATM   20  C   UNL     1      -7.515  16.294  66.818  1.00  0.00    -0.266 A  
HETATM   21  C   UNL     1      -7.688  15.870  68.134  1.00  0.00    -0.135 A  
HETATM   22  C   UNL     1      -8.624  16.628  66.044  1.00  0.00    -0.229 A  
HETATM   23  C   UNL     1      -8.971  15.764  68.673  1.00  0.00    -0.204 A  
ENDBRANCH  17  18
ENDBRANCH  10  17
ENDBRANCH   7   8
ENDBRANCH   6   7
ENDBRANCH   5   6
ENDBRANCH   4   5
ENDBRANCH   2   4
TORSDOF 7
ENDMDL
MODEL      118
REMARK 921   NORMALIZED FREE ENERGY PREDICTED BY IDOCK:   -4.94 KCAL/MOL
REMARK 922        TOTAL FREE ENERGY PREDICTED BY IDOCK:   -7.35 KCAL/MOL
REMARK 923 INTER-LIGAND FREE ENERGY PREDICTED BY IDOCK:   -6.56 KCAL/MOL
REMARK 924 INTRA-LIGAND FREE ENERGY PREDICTED BY IDOCK:   -0.79 KCAL/MOL
REMARK 927      BINDING AFFINITY PREDICTED BY RF-SCORE:    0.00 PKD
ROOT
HETATM    1  C   UNL     1     -10.719  17.051  68.239  1.00  0.00    -0.372 C  
HETATM    2  N   UNL     1     -10.184  15.686  68.287  1.00  0.00    -0.221 NA 
HETATM    3  C   UNL     1      -9.257  15.565  69.413  1.00  0.00    -0.280 C  
ENDROOT
BRANCH   2   4
HETATM    4  C   UNL     1     -11.297  14.723  68.368  1.00  0.00    -0.299 C  
BRANCH   4   5
HETATM    5  C   UNL     1     -11.040  13.416  67.615  1.00  0.00    -0.288 C  
BRANCH   5   6
HETATM    6  C   UNL     1     -11.436  12.210  68.461  1.00  0.00    -0.300 C  
BRANCH   6   7
HETATM    7  O   UNL     1     -10.473  11.183  68.220  1.00  0.00    -0.176 OA 
BRANCH   7   8
HETATM    8  C   UNL     1     -10.687  10.064  68.944  1.00  0.00    -0.219 A  
HETATM    9  N   UNL     1     -10.998  10.144  70.237  1.00  0.00    -0.299 NA 
HETATM   10  N   UNL     1     -11.105   8.846  70.606  1.00  0.00    -0.255 NA 
HETATM   11  C   UNL     1     -10.424   6.739  67.127  1.00  0.00    -0.364 A  
HETATM   12  C   UNL     1     -10.909   7.954  69.570  1.00  0.00    -0.136 A  
HETATM   13  C   UNL     1     -10.934   6.554  69.501  1.00  0.00    -0.398 A  
HETATM   14  C   UNL     1     -10.643   8.745  68.454  1.00  0.00    -0.185 A  
HETATM   15  C   UNL     1     -10.396   8.135  67.210  1.00  0.00    -0.373 A  
HETATM   16  C   UNL     1     -10.686   5.963  68.256  1.00  0.00    -0.319 A  
BRANCH  10  17
HETATM   17  C   UNL     1     -11.482   8.530  71.979  1.00  0.00    -0.361 C  
BRANCH  17  18
HETATM   18  C   UNL     1     -10.326   7.989  72.787  1.00  0.00    -0.408 A  
HETATM   19  C   UNL     1      -9.045   8.553  72.680  1.00  0.00    -0.256 A  
HETATM   20  C   UNL     1      -8.183   6.973  74.292  1.00  0.00    -0.166 A  
HETATM   21  C   UNL     1      -9.456   6.422  74.427  1.00  0.00    -0.254 A  
HETATM   22  C   UNL     1      -7.979   8.043  73.423  1.00  0.00    -0.236 A  
HETATM   23  C   UNL     1     -10.523   6.928  73.683  1.00  0.00    -0.400 A  
ENDBRANCH  17  18
ENDBRANCH  10  17
ENDBRANCH   7   8
ENDBRANCH   6   7
ENDBRANCH   5   6
ENDBRANCH   4   5
ENDBRANCH   2   4
TORSDOF 7
ENDMDL
MODEL      119
REMARK 921   NORMALIZED FREE ENERGY PREDICTED BY IDOCK:   -4.93 KCAL/MOL
REMARK 922        TOTAL FREE ENERGY PREDICTED BY IDOCK:   -7.33 KCAL/MOL
REMARK 923 INTER-LIGAND FREE ENERGY PREDICTED BY IDOCK:   -6.49 KCAL/MOL
REMARK 924 INTRA-LIGAND FREE ENERGY PREDICTED BY IDOCK:   -0.84 KCAL/MOL
REMARK 927      BINDING AFFINITY PREDICTED BY RF-SCORE:    0.00 PKD
ROOT
HETATM    1  C   UNL     1      -7.683   7.655  64.994  1.00  0.00    -0.109 C  
HETATM    2  N   UNL     1      -8.921   7.262  65.675  1.00  0.00    -0.028 NA 
HETATM    3  C   UNL     1      -8.726   5.971  66.336  1.00  0.00    -0.133 C  
ENDROOT
BRANCH   2   4
HETATM    4  C   UNL     1      -9.324   8.322  66.618  1.00  0.00    -0.192 C  
BRANCH   4   5
HETATM    5  C   UNL     1      -9.611   9.668  65.949  1.00  0.00    -0.321 C  
BRANCH   5   6
HETATM    6  C   UNL     1      -8.616  10.729  66.406  1.00  0.00    -0.158 C  
BRANCH   6   7
HETATM    7  O   UNL     1      -9.312  11.623  67.277  1.00  0.00    -0.166 OA 
BRANCH   7   8
HETATM    8  C   UNL     1      -9.383  12.886  66.808  1.00  0.00    -0.243 A  
HETATM    9  N   UNL     1      -8.441  13.776  67.115  1.00  0.00    -0.198 NA 
HETATM   10  N   UNL     1      -8.868  14.901  66.495  1.00  0.00    -0.255 NA 
HETATM   11  C   UNL     1     -12.319  13.744  64.556  1.00  0.00    -0.399 A  
HETATM   12  C   UNL     1     -10.034  14.730  65.774  1.00  0.00    -0.347 A  
HETATM   13  C   UNL     1     -10.805  15.602  64.992  1.00  0.00    -0.468 A  
HETATM   14  C   UNL     1     -10.384  13.394  65.958  1.00  0.00    -0.297 A  
HETATM   15  C   UNL     1     -11.543  12.887  65.342  1.00  0.00    -0.386 A  
HETATM   16  C   UNL     1     -11.956  15.080  64.387  1.00  0.00    -0.366 A  
BRANCH  10  17
HETATM   17  C   UNL     1      -8.052  16.107  66.576  1.00  0.00    -0.296 C  
BRANCH  17  18
HETATM   18  C   UNL     1      -8.810  17.281  67.147  1.00  0.00    -0.237 A  
HETATM   19  C   UNL     1      -9.434  17.196  68.402  1.00  0.00    -0.276 A  
HETATM   20  C   UNL     1     -10.219  19.472  68.199  1.00  0.00    -0.556 A  
HETATM   21  C   UNL     1      -9.582  19.579  66.964  1.00  0.00    -0.433 A  
HETATM   22  C   UNL     1     -10.140  18.283  68.921  1.00  0.00    -0.358 A  
HETATM   23  C   UNL     1      -8.878  18.493  66.442  1.00  0.00    -0.267 A  
ENDBRANCH  17  18
ENDBRANCH  10  17
ENDBRANCH   7   8
ENDBRANCH   6   7
ENDBRANCH   5   6
ENDBRANCH   4   5
ENDBRANCH   2   4
TORSDOF 7
ENDMDL
MODEL      120
REMARK 921   NORMALIZED FREE ENERGY PREDICTED BY IDOCK:   -4.92 KCAL/MOL
REMARK 922        TOTAL FREE ENERGY PREDICTED BY IDOCK:   -7.32 KCAL/MOL
REMARK 923 INTER-LIGAND FREE ENERGY PREDICTED BY IDOCK:   -6.51 KCAL/MOL
REMARK 924 INTRA-LIGAND FREE ENERGY PREDICTED BY IDOCK:   -0.81 KCAL/MOL
REMARK 927      BINDING AFFINITY PREDICTED BY RF-SCORE:    0.00 PKD
ROOT
HETATM    1  C   UNL     1     -10.331  19.517  66.341  1.00  0.00    -0.496 C  
HETATM    2  N   UNL     1      -9.055  18.806  66.207  1.00  0.00    -0.436 NA 
HETATM    3  C   UNL     1      -7.972  19.776  66.034  1.00  0.00    -0.330 C  
ENDROOT
BRANCH   2   4
HETATM    4  C   UNL     1      -8.848  17.937  67.380  1.00  0.00    -0.245 C  
BRANCH   4   5
HETATM    5  C   UNL     1      -7.679  16.961  67.228  1.00  0.00    -0.196 C  
BRANCH   5   6
HETATM    6  C   UNL     1      -8.178  15.560  66.885  1.00  0.00    -0.252 C  
BRANCH   6   7
HETATM    7  O   UNL     1      -9.362  15.328  67.650  1.00  0.00    -0.197 OA 
BRANCH   7   8
HETATM    8  C   UNL     1     -10.038  14.223  67.272  1.00  0.00    -0.252 A  
HETATM    9  N   UNL     1      -9.997  13.118  68.016  1.00  0.00    -0.227 NA 
HETATM   10  N   UNL     1     -10.758  12.246  67.311  1.00  0.00    -0.226 NA 
HETATM   11  C   UNL     1     -12.078  14.436  64.075  1.00  0.00    -0.312 A  
HETATM   12  C   UNL     1     -11.307  12.788  66.166  1.00  0.00    -0.328 A  
HETATM   13  C   UNL     1     -12.144  12.262  65.171  1.00  0.00    -0.379 A  
HETATM   14  C   UNL     1     -10.853  14.105  66.130  1.00  0.00    -0.296 A  
HETATM   15  C   UNL     1     -11.240  14.947  65.072  1.00  0.00    -0.408 A  
HETATM   16  C   UNL     1     -12.520  13.114  64.125  1.00  0.00    -0.348 A  
BRANCH  10  17
HETATM   17  C   UNL     1     -10.980  10.909  67.847  1.00  0.00    -0.271 C  
BRANCH  17  18
HETATM   18  C   UNL     1     -10.105   9.869  67.189  1.00  0.00    -0.270 A  
HETATM   19  C   UNL     1     -10.458   8.510  67.207  1.00  0.00    -0.366 A  
HETATM   20  C   UNL     1      -8.466   7.944  65.964  1.00  0.00    -0.145 A  
HETATM   21  C   UNL     1      -8.117   9.293  65.915  1.00  0.00    -0.111 A  
HETATM   22  C   UNL     1      -9.640   7.554  66.604  1.00  0.00    -0.263 A  
HETATM   23  C   UNL     1      -8.932  10.251  66.520  1.00  0.00    -0.161 A  
ENDBRANCH  17  18
ENDBRANCH  10  17
ENDBRANCH   7   8
ENDBRANCH   6   7
ENDBRANCH   5   6
ENDBRANCH   4   5
ENDBRANCH   2   4
TORSDOF 7
ENDMDL
MODEL      121
REMARK 921   NORMALIZED FREE ENERGY PREDICTED BY IDOCK:   -4.92 KCAL/MOL
REMARK 922        TOTAL FREE ENERGY PREDICTED BY IDOCK:   -7.32 KCAL/MOL
REMARK 923 INTER-LIGAND FREE ENERGY PREDICTED BY IDOCK:   -7.30 KCAL/MOL
REMARK 924 INTRA-LIGAND FREE ENERGY PREDICTED BY IDOCK:   -0.01 KCAL/MOL
REMARK 927      BINDING AFFINITY PREDICTED BY RF-SCORE:    0.00 PKD
ROOT
HETATM    1  C   UNL     1      -5.544  13.263  67.913  1.00  0.00    -0.125 C  
HETATM    2  N   UNL     1      -6.399  12.086  68.103  1.00  0.00    -0.051 NA 
HETATM    3  C   UNL     1      -5.779  11.186  69.077  1.00  0.00    -0.040 C  
ENDROOT
BRANCH   2   4
HETATM    4  C   UNL     1      -7.748  12.517  68.514  1.00  0.00    -0.113 C  
BRANCH   4   5
HETATM    5  C   UNL     1      -8.878  11.724  67.852  1.00  0.00    -0.165 C  
BRANCH   5   6
HETATM    6  C   UNL     1      -9.533  10.772  68.848  1.00  0.00    -0.181 C  
BRANCH   6   7
HETATM    7  O   UNL     1     -10.948  10.921  68.714  1.00  0.00    -0.202 OA 
BRANCH   7   8
HETATM    8  C   UNL     1     -11.325  12.160  68.333  1.00  0.00    -0.286 A  
HETATM    9  N   UNL     1     -11.418  13.143  69.227  1.00  0.00    -0.287 NA 
HETATM   10  N   UNL     1     -11.838  14.195  68.483  1.00  0.00    -0.348 NA 
HETATM   11  C   UNL     1     -12.034  12.706  64.641  1.00  0.00    -0.463 A  
HETATM   12  C   UNL     1     -11.972  13.906  67.139  1.00  0.00    -0.420 A  
HETATM   13  C   UNL     1     -12.362  14.677  66.034  1.00  0.00    -0.119 A  
HETATM   14  C   UNL     1     -11.623  12.563  67.017  1.00  0.00    -0.437 A  
HETATM   15  C   UNL     1     -11.651  11.947  65.752  1.00  0.00    -0.281 A  
HETATM   16  C   UNL     1     -12.386  14.048  64.783  1.00  0.00    -0.437 A  
BRANCH  10  17
HETATM   17  C   UNL     1     -12.019  15.490  69.127  1.00  0.00    -0.309 C  
BRANCH  17  18
HETATM   18  C   UNL     1     -12.409  15.363  70.580  1.00  0.00    -0.451 A  
HETATM   19  C   UNL     1     -13.747  15.162  70.954  1.00  0.00    -0.352 A  
HETATM   20  C   UNL     1     -13.122  15.131  73.287  1.00  0.00    -0.622 A  
HETATM   21  C   UNL     1     -11.786  15.304  72.929  1.00  0.00    -0.510 A  
HETATM   22  C   UNL     1     -14.102  15.054  72.300  1.00  0.00    -0.612 A  
HETATM   23  C   UNL     1     -11.430  15.415  71.584  1.00  0.00    -0.492 A  
ENDBRANCH  17  18
ENDBRANCH  10  17
ENDBRANCH   7   8
ENDBRANCH   6   7
ENDBRANCH   5   6
ENDBRANCH   4   5
ENDBRANCH   2   4
TORSDOF 7
ENDMDL
MODEL      122
REMARK 921   NORMALIZED FREE ENERGY PREDICTED BY IDOCK:   -4.92 KCAL/MOL
REMARK 922        TOTAL FREE ENERGY PREDICTED BY IDOCK:   -7.32 KCAL/MOL
REMARK 923 INTER-LIGAND FREE ENERGY PREDICTED BY IDOCK:   -6.44 KCAL/MOL
REMARK 924 INTRA-LIGAND FREE ENERGY PREDICTED BY IDOCK:   -0.88 KCAL/MOL
REMARK 927      BINDING AFFINITY PREDICTED BY RF-SCORE:    0.00 PKD
ROOT
HETATM    1  C   UNL     1     -13.808  15.904  72.894  1.00  0.00    -0.457 C  
HETATM    2  N   UNL     1     -13.539  14.980  71.787  1.00  0.00    -0.388 NA 
HETATM    3  C   UNL     1     -12.727  15.657  70.774  1.00  0.00    -0.431 C  
ENDROOT
BRANCH   2   4
HETATM    4  C   UNL     1     -12.889  13.763  72.307  1.00  0.00    -0.261 C  
BRANCH   4   5
HETATM    5  C   UNL     1     -13.652  12.473  71.995  1.00  0.00    -0.387 C  
BRANCH   5   6
HETATM    6  C   UNL     1     -12.691  11.335  71.669  1.00  0.00    -0.343 C  
BRANCH   6   7
HETATM    7  O   UNL     1     -12.951  10.926  70.325  1.00  0.00    -0.214 OA 
BRANCH   7   8
HETATM    8  C   UNL     1     -11.846  10.886  69.551  1.00  0.00    -0.332 A  
HETATM    9  N   UNL     1     -11.048   9.820  69.566  1.00  0.00    -0.220 NA 
HETATM   10  N   UNL     1     -10.063  10.163  68.702  1.00  0.00    -0.165 NA 
HETATM   11  C   UNL     1     -11.172  13.889  67.324  1.00  0.00    -0.329 A  
HETATM   12  C   UNL     1     -10.243  11.401  68.116  1.00  0.00    -0.187 A  
HETATM   13  C   UNL     1      -9.494  12.130  67.182  1.00  0.00    -0.190 A  
HETATM   14  C   UNL     1     -11.430  11.891  68.657  1.00  0.00    -0.350 A  
HETATM   15  C   UNL     1     -11.907  13.153  68.259  1.00  0.00    -0.384 A  
HETATM   16  C   UNL     1      -9.983  13.384  66.797  1.00  0.00    -0.264 A  
BRANCH  10  17
HETATM   17  C   UNL     1      -9.000   9.204  68.423  1.00  0.00    -0.133 C  
BRANCH  17  18
HETATM   18  C   UNL     1      -9.527   7.807  68.198  1.00  0.00    -0.152 A  
HETATM   19  C   UNL     1     -10.291   7.498  67.061  1.00  0.00    -0.395 A  
HETATM   20  C   UNL     1     -10.504   5.205  67.790  1.00  0.00    -0.112 A  
HETATM   21  C   UNL     1      -9.724   5.491  68.910  1.00  0.00    -0.193 A  
HETATM   22  C   UNL     1     -10.782   6.206  66.863  1.00  0.00    -0.413 A  
HETATM   23  C   UNL     1      -9.235   6.783  69.111  1.00  0.00    -0.137 A  
ENDBRANCH  17  18
ENDBRANCH  10  17
ENDBRANCH   7   8
ENDBRANCH   6   7
ENDBRANCH   5   6
ENDBRANCH   4   5
ENDBRANCH   2   4
TORSDOF 7
ENDMDL
MODEL      123
REMARK 921   NORMALIZED FREE ENERGY PREDICTED BY IDOCK:   -4.90 KCAL/MOL
REMARK 922        TOTAL FREE ENERGY PREDICTED BY IDOCK:   -7.30 KCAL/MOL
REMARK 923 INTER-LIGAND FREE ENERGY PREDICTED BY IDOCK:   -6.60 KCAL/MOL
REMARK 924 INTRA-LIGAND FREE ENERGY PREDICTED BY IDOCK:   -0.70 KCAL/MOL
REMARK 927      BINDING AFFINITY PREDICTED BY RF-SCORE:    0.00 PKD
ROOT
HETATM    1  C   UNL     1     -11.010  14.883  67.496  1.00  0.00    -0.302 C  
HETATM    2  N   UNL     1     -11.578  14.950  66.145  1.00  0.00    -0.284 NA 
HETATM    3  C   UNL     1     -10.538  15.360  65.199  1.00  0.00    -0.434 C  
ENDROOT
BRANCH   2   4
HETATM    4  C   UNL     1     -12.174  13.648  65.796  1.00  0.00    -0.464 C  
BRANCH   4   5
HETATM    5  C   UNL     1     -11.727  12.500  66.704  1.00  0.00    -0.453 C  
BRANCH   5   6
HETATM    6  C   UNL     1     -10.785  11.554  65.966  1.00  0.00    -0.281 C  
BRANCH   6   7
HETATM    7  O   UNL     1      -9.546  11.542  66.679  1.00  0.00    -0.190 OA 
BRANCH   7   8
HETATM    8  C   UNL     1      -9.439  10.519  67.554  1.00  0.00    -0.149 A  
HETATM    9  N   UNL     1      -9.560  10.734  68.863  1.00  0.00    -0.196 NA 
HETATM   10  N   UNL     1      -9.370   9.502  69.394  1.00  0.00    -0.170 NA 
HETATM   11  C   UNL     1      -8.849   7.053  66.117  1.00  0.00    -0.165 A  
HETATM   12  C   UNL     1      -9.173   8.514  68.449  1.00  0.00    -0.135 A  
HETATM   13  C   UNL     1      -8.951   7.133  68.549  1.00  0.00    -0.127 A  
HETATM   14  C   UNL     1      -9.229   9.168  67.220  1.00  0.00    -0.157 A  
HETATM   15  C   UNL     1      -9.066   8.432  66.032  1.00  0.00    -0.235 A  
HETATM   16  C   UNL     1      -8.790   6.416  67.356  1.00  0.00    -0.104 A  
BRANCH  10  17
HETATM   17  C   UNL     1      -9.470   9.332  70.838  1.00  0.00    -0.261 C  
BRANCH  17  18
HETATM   18  C   UNL     1     -10.902   9.263  71.315  1.00  0.00    -0.417 A  
HETATM   19  C   UNL     1     -11.363   8.166  72.059  1.00  0.00    -0.378 A  
HETATM   20  C   UNL     1     -13.567   9.145  72.192  1.00  0.00    -0.534 A  
HETATM   21  C   UNL     1     -13.115  10.253  71.477  1.00  0.00    -0.534 A  
HETATM   22  C   UNL     1     -12.690   8.105  72.489  1.00  0.00    -0.159 A  
HETATM   23  C   UNL     1     -11.790  10.315  71.044  1.00  0.00    -0.472 A  
ENDBRANCH  17  18
ENDBRANCH  10  17
ENDBRANCH   7   8
ENDBRANCH   6   7
ENDBRANCH   5   6
ENDBRANCH   4   5
ENDBRANCH   2   4
TORSDOF 7
ENDMDL
MODEL      124
REMARK 921   NORMALIZED FREE ENERGY PREDICTED BY IDOCK:   -4.90 KCAL/MOL
REMARK 922        TOTAL FREE ENERGY PREDICTED BY IDOCK:   -7.29 KCAL/MOL
REMARK 923 INTER-LIGAND FREE ENERGY PREDICTED BY IDOCK:   -6.32 KCAL/MOL
REMARK 924 INTRA-LIGAND FREE ENERGY PREDICTED BY IDOCK:   -0.97 KCAL/MOL
REMARK 927      BINDING AFFINITY PREDICTED BY RF-SCORE:    0.00 PKD
ROOT
HETATM    1  C   UNL     1      -9.098  15.148  68.784  1.00  0.00    -0.200 C  
HETATM    2  N   UNL     1     -10.504  15.364  69.141  1.00  0.00    -0.226 NA 
HETATM    3  C   UNL     1     -11.103  16.318  68.207  1.00  0.00    -0.346 C  
ENDROOT
BRANCH   2   4
HETATM    4  C   UNL     1     -11.213  14.071  69.157  1.00  0.00    -0.269 C  
BRANCH   4   5
HETATM    5  C   UNL     1     -11.962  13.762  67.859  1.00  0.00    -0.391 C  
BRANCH   5   6
HETATM    6  C   UNL     1     -11.351  12.558  67.149  1.00  0.00    -0.324 C  
BRANCH   6   7
HETATM    7  O   UNL     1     -12.043  11.394  67.607  1.00  0.00    -0.630 OA 
BRANCH   7   8
HETATM    8  C   UNL     1     -11.257  10.537  68.292  1.00  0.00    -0.291 A  
HETATM    9  N   UNL     1     -11.205  10.584  69.622  1.00  0.00    -0.262 NA 
HETATM   10  N   UNL     1     -10.313   9.611  69.928  1.00  0.00    -0.230 NA 
HETATM   11  C   UNL     1      -9.288   7.989  66.277  1.00  0.00    -0.246 A  
HETATM   12  C   UNL     1      -9.834   8.930  68.826  1.00  0.00    -0.173 A  
HETATM   13  C   UNL     1      -8.926   7.871  68.683  1.00  0.00    -0.134 A  
HETATM   14  C   UNL     1     -10.461   9.520  67.731  1.00  0.00    -0.309 A  
HETATM   15  C   UNL     1     -10.188   9.048  66.434  1.00  0.00    -0.297 A  
HETATM   16  C   UNL     1      -8.666   7.413  67.385  1.00  0.00    -0.121 A  
BRANCH  10  17
HETATM   17  C   UNL     1     -10.020   9.335  71.330  1.00  0.00    -0.271 C  
BRANCH  17  18
HETATM   18  C   UNL     1     -10.537   7.988  71.774  1.00  0.00    -0.296 A  
HETATM   19  C   UNL     1      -9.687   7.054  72.388  1.00  0.00    -0.171 A  
HETATM   20  C   UNL     1     -11.511   5.484  72.593  1.00  0.00    -0.331 A  
HETATM   21  C   UNL     1     -12.373   6.412  72.009  1.00  0.00    -0.268 A  
HETATM   22  C   UNL     1     -10.171   5.807  72.788  1.00  0.00    -0.211 A  
HETATM   23  C   UNL     1     -11.891   7.657  71.605  1.00  0.00    -0.323 A  
ENDBRANCH  17  18
ENDBRANCH  10  17
ENDBRANCH   7   8
ENDBRANCH   6   7
ENDBRANCH   5   6
ENDBRANCH   4   5
ENDBRANCH   2   4
TORSDOF 7
ENDMDL
MODEL      125
REMARK 921   NORMALIZED FREE ENERGY PREDICTED BY IDOCK:   -4.90 KCAL/MOL
REMARK 922        TOTAL FREE ENERGY PREDICTED BY IDOCK:   -7.29 KCAL/MOL
REMARK 923 INTER-LIGAND FREE ENERGY PREDICTED BY IDOCK:   -6.39 KCAL/MOL
REMARK 924 INTRA-LIGAND FREE ENERGY PREDICTED BY IDOCK:   -0.90 KCAL/MOL
REMARK 927      BINDING AFFINITY PREDICTED BY RF-SCORE:    0.00 PKD
ROOT
HETATM    1  C   UNL     1      -7.118   5.661  64.937  1.00  0.00    -0.060 C  
HETATM    2  N   UNL     1      -8.460   6.178  65.226  1.00  0.00    -0.143 NA 
HETATM    3  C   UNL     1      -9.283   5.108  65.792  1.00  0.00    -0.156 C  
ENDROOT
BRANCH   2   4
HETATM    4  C   UNL     1      -8.357   7.343  66.124  1.00  0.00    -0.139 C  
BRANCH   4   5
HETATM    5  C   UNL     1      -9.420   7.370  67.225  1.00  0.00    -0.179 C  
BRANCH   5   6
HETATM    6  C   UNL     1     -10.408   8.510  67.002  1.00  0.00    -0.309 C  
BRANCH   6   7
HETATM    7  O   UNL     1      -9.650   9.676  66.675  1.00  0.00    -0.166 OA 
BRANCH   7   8
HETATM    8  C   UNL     1     -10.371  10.817  66.721  1.00  0.00    -0.243 A  
HETATM    9  N   UNL     1     -10.618  11.413  67.887  1.00  0.00    -0.181 NA 
HETATM   10  N   UNL     1     -11.370  12.482  67.530  1.00  0.00    -0.291 NA 
HETATM   11  C   UNL     1     -11.579  12.250  63.418  1.00  0.00    -0.530 A  
HETATM   12  C   UNL     1     -11.566  12.594  66.168  1.00  0.00    -0.393 A  
HETATM   13  C   UNL     1     -12.254  13.527  65.379  1.00  0.00    -0.482 A  
HETATM   14  C   UNL     1     -10.898  11.505  65.612  1.00  0.00    -0.310 A  
HETATM   15  C   UNL     1     -10.900  11.324  64.217  1.00  0.00    -0.398 A  
HETATM   16  C   UNL     1     -12.247  13.331  63.992  1.00  0.00    -0.475 A  
BRANCH  10  17
HETATM   17  C   UNL     1     -11.808  13.414  68.562  1.00  0.00    -0.366 C  
BRANCH  17  18
HETATM   18  C   UNL     1     -10.982  14.678  68.589  1.00  0.00    -0.266 A  
HETATM   19  C   UNL     1     -11.575  15.933  68.383  1.00  0.00    -0.317 A  
HETATM   20  C   UNL     1      -9.433  17.020  68.640  1.00  0.00    -0.274 A  
HETATM   21  C   UNL     1      -8.836  15.783  68.873  1.00  0.00    -0.220 A  
HETATM   22  C   UNL     1     -10.803  17.096  68.401  1.00  0.00    -0.309 A  
HETATM   23  C   UNL     1      -9.605  14.618  68.852  1.00  0.00    -0.184 A  
ENDBRANCH  17  18
ENDBRANCH  10  17
ENDBRANCH   7   8
ENDBRANCH   6   7
ENDBRANCH   5   6
ENDBRANCH   4   5
ENDBRANCH   2   4
TORSDOF 7
ENDMDL
MODEL      126
REMARK 921   NORMALIZED FREE ENERGY PREDICTED BY IDOCK:   -4.90 KCAL/MOL
REMARK 922        TOTAL FREE ENERGY PREDICTED BY IDOCK:   -7.29 KCAL/MOL
REMARK 923 INTER-LIGAND FREE ENERGY PREDICTED BY IDOCK:   -6.34 KCAL/MOL
REMARK 924 INTRA-LIGAND FREE ENERGY PREDICTED BY IDOCK:   -0.95 KCAL/MOL
REMARK 927      BINDING AFFINITY PREDICTED BY RF-SCORE:    0.00 PKD
ROOT
HETATM    1  C   UNL     1      -9.671   9.088  71.004  1.00  0.00    -0.278 C  
HETATM    2  N   UNL     1      -8.381   8.445  70.730  1.00  0.00    -0.120 NA 
HETATM    3  C   UNL     1      -8.474   7.016  71.035  1.00  0.00    -0.133 C  
ENDROOT
BRANCH   2   4
HETATM    4  C   UNL     1      -7.993   8.696  69.330  1.00  0.00    -0.103 C  
BRANCH   4   5
HETATM    5  C   UNL     1      -9.140   8.530  68.330  1.00  0.00    -0.139 C  
BRANCH   5   6
HETATM    6  C   UNL     1      -9.102   9.622  67.267  1.00  0.00    -0.134 C  
BRANCH   6   7
HETATM    7  O   UNL     1     -10.408   9.708  66.694  1.00  0.00    -0.239 OA 
BRANCH   7   8
HETATM    8  C   UNL     1     -10.926  10.955  66.720  1.00  0.00    -0.185 A  
HETATM    9  N   UNL     1     -11.164  11.564  67.881  1.00  0.00    -0.256 NA 
HETATM   10  N   UNL     1     -11.691  12.752  67.500  1.00  0.00    -0.358 NA 
HETATM   11  C   UNL     1     -11.599  12.631  63.379  1.00  0.00    -0.536 A  
HETATM   12  C   UNL     1     -11.753  12.920  66.131  1.00  0.00    -0.396 A  
HETATM   13  C   UNL     1     -12.207  13.970  65.320  1.00  0.00    -0.451 A  
HETATM   14  C   UNL     1     -11.236  11.742  65.595  1.00  0.00    -0.324 A  
HETATM   15  C   UNL     1     -11.155  11.589  64.199  1.00  0.00    -0.417 A  
HETATM   16  C   UNL     1     -12.119  13.801  63.933  1.00  0.00    -0.423 A  
BRANCH  10  17
HETATM   17  C   UNL     1     -12.049  13.727  68.524  1.00  0.00    -0.292 C  
BRANCH  17  18
HETATM   18  C   UNL     1     -11.080  14.885  68.583  1.00  0.00    -0.272 A  
HETATM   19  C   UNL     1      -9.775  14.710  69.070  1.00  0.00    -0.161 A  
HETATM   20  C   UNL     1      -9.289  17.045  68.690  1.00  0.00    -0.270 A  
HETATM   21  C   UNL     1     -10.573  17.227  68.179  1.00  0.00    -0.386 A  
HETATM   22  C   UNL     1      -8.888  15.786  69.129  1.00  0.00    -0.250 A  
HETATM   23  C   UNL     1     -11.463  16.153  68.122  1.00  0.00    -0.220 A  
ENDBRANCH  17  18
ENDBRANCH  10  17
ENDBRANCH   7   8
ENDBRANCH   6   7
ENDBRANCH   5   6
ENDBRANCH   4   5
ENDBRANCH   2   4
TORSDOF 7
ENDMDL
MODEL      127
REMARK 921   NORMALIZED FREE ENERGY PREDICTED BY IDOCK:   -4.88 KCAL/MOL
REMARK 922        TOTAL FREE ENERGY PREDICTED BY IDOCK:   -7.27 KCAL/MOL
REMARK 923 INTER-LIGAND FREE ENERGY PREDICTED BY IDOCK:   -6.34 KCAL/MOL
REMARK 924 INTRA-LIGAND FREE ENERGY PREDICTED BY IDOCK:   -0.93 KCAL/MOL
REMARK 927      BINDING AFFINITY PREDICTED BY RF-SCORE:    0.00 PKD
ROOT
HETATM    1  C   UNL     1      -9.284   3.041  65.600  1.00  0.00    -0.129 C  
HETATM    2  N   UNL     1      -8.924   4.339  66.181  1.00  0.00    -0.119 NA 
HETATM    3  C   UNL     1      -8.679   5.303  65.106  1.00  0.00    -0.146 C  
ENDROOT
BRANCH   2   4
HETATM    4  C   UNL     1      -9.989   4.781  67.100  1.00  0.00    -0.190 C  
BRANCH   4   5
HETATM    5  C   UNL     1      -9.813   4.281  68.536  1.00  0.00    -0.115 C  
BRANCH   5   6
HETATM    6  C   UNL     1      -9.640   5.447  69.503  1.00  0.00    -0.149 C  
BRANCH   6   7
HETATM    7  O   UNL     1     -10.942   5.961  69.791  1.00  0.00    -0.349 OA 
BRANCH   7   8
HETATM    8  C   UNL     1     -10.970   7.302  69.942  1.00  0.00    -0.243 A  
HETATM    9  N   UNL     1     -10.084   8.072  69.313  1.00  0.00    -0.193 NA 
HETATM   10  N   UNL     1     -10.413   9.319  69.728  1.00  0.00    -0.212 NA 
HETATM   11  C   UNL     1     -13.694   8.747  72.161  1.00  0.00    -0.498 A  
HETATM   12  C   UNL     1     -11.508   9.354  70.569  1.00  0.00    -0.262 A  
HETATM   13  C   UNL     1     -12.182  10.403  71.210  1.00  0.00    -0.491 A  
HETATM   14  C   UNL     1     -11.901   8.025  70.712  1.00  0.00    -0.171 A  
HETATM   15  C   UNL     1     -13.010   7.710  71.519  1.00  0.00    -0.378 A  
HETATM   16  C   UNL     1     -13.283  10.072  72.010  1.00  0.00    -0.545 A  
BRANCH  10  17
HETATM   17  C   UNL     1      -9.667  10.458  69.205  1.00  0.00    -0.214 C  
BRANCH  17  18
HETATM   18  C   UNL     1     -10.353  11.105  68.026  1.00  0.00    -0.208 A  
HETATM   19  C   UNL     1     -10.146  10.632  66.720  1.00  0.00    -0.272 A  
HETATM   20  C   UNL     1     -11.632  12.321  65.840  1.00  0.00    -0.450 A  
HETATM   21  C   UNL     1     -11.867  12.784  67.133  1.00  0.00    -0.415 A  
HETATM   22  C   UNL     1     -10.777  11.241  65.634  1.00  0.00    -0.279 A  
HETATM   23  C   UNL     1     -11.235  12.179  68.220  1.00  0.00    -0.319 A  
ENDBRANCH  17  18
ENDBRANCH  10  17
ENDBRANCH   7   8
ENDBRANCH   6   7
ENDBRANCH   5   6
ENDBRANCH   4   5
ENDBRANCH   2   4
TORSDOF 7
ENDMDL
MODEL      128
REMARK 921   NORMALIZED FREE ENERGY PREDICTED BY IDOCK:   -4.88 KCAL/MOL
REMARK 922        TOTAL FREE ENERGY PREDICTED BY IDOCK:   -7.27 KCAL/MOL
REMARK 923 INTER-LIGAND FREE ENERGY PREDICTED BY IDOCK:   -6.27 KCAL/MOL
REMARK 924 INTRA-LIGAND FREE ENERGY PREDICTED BY IDOCK:   -1.00 KCAL/MOL
REMARK 927      BINDING AFFINITY PREDICTED BY RF-SCORE:    0.00 PKD
ROOT
HETATM    1  C   UNL     1     -13.274   9.723  72.120  1.00  0.00    -0.436 C  
HETATM    2  N   UNL     1     -11.923   9.214  71.861  1.00  0.00    -0.370 NA 
HETATM    3  C   UNL     1     -12.002   7.812  71.444  1.00  0.00    -0.306 C  
ENDROOT
BRANCH   2   4
HETATM    4  C   UNL     1     -11.260  10.063  70.854  1.00  0.00    -0.341 C  
BRANCH   4   5
HETATM    5  C   UNL     1     -12.063  11.309  70.471  1.00  0.00    -0.481 C  
BRANCH   5   6
HETATM    6  C   UNL     1     -12.143  11.463  68.956  1.00  0.00    -0.249 C  
BRANCH   6   7
HETATM    7  O   UNL     1     -11.150  12.416  68.570  1.00  0.00    -0.227 OA 
BRANCH   7   8
HETATM    8  C   UNL     1     -10.501  12.086  67.433  1.00  0.00    -0.216 A  
HETATM    9  N   UNL     1      -9.311  11.490  67.483  1.00  0.00    -0.164 NA 
HETATM   10  N   UNL     1      -8.983  11.351  66.176  1.00  0.00    -0.202 NA 
HETATM   11  C   UNL     1     -12.235  12.873  64.147  1.00  0.00    -0.487 A  
HETATM   12  C   UNL     1      -9.955  11.808  65.308  1.00  0.00    -0.253 A  
HETATM   13  C   UNL     1     -10.037  11.850  63.909  1.00  0.00    -0.396 A  
HETATM   14  C   UNL     1     -10.978  12.288  66.124  1.00  0.00    -0.328 A  
HETATM   15  C   UNL     1     -12.138  12.830  65.541  1.00  0.00    -0.517 A  
HETATM   16  C   UNL     1     -11.199  12.393  63.345  1.00  0.00    -0.492 A  
BRANCH  10  17
HETATM   17  C   UNL     1      -7.733  10.687  65.827  1.00  0.00    -0.130 C  
BRANCH  17  18
HETATM   18  C   UNL     1      -7.759   9.208  66.129  1.00  0.00    -0.095 A  
HETATM   19  C   UNL     1      -8.487   8.319  65.322  1.00  0.00    -0.179 A  
HETATM   20  C   UNL     1      -7.803   6.458  66.703  1.00  0.00    -0.104 A  
HETATM   21  C   UNL     1      -7.055   7.326  67.497  1.00  0.00    -0.085 A  
HETATM   22  C   UNL     1      -8.513   6.954  65.612  1.00  0.00    -0.141 A  
HETATM   23  C   UNL     1      -7.029   8.692  67.211  1.00  0.00    -0.075 A  
ENDBRANCH  17  18
ENDBRANCH  10  17
ENDBRANCH   7   8
ENDBRANCH   6   7
ENDBRANCH   5   6
ENDBRANCH   4   5
ENDBRANCH   2   4
TORSDOF 7
ENDMDL
MODEL      129
REMARK 921   NORMALIZED FREE ENERGY PREDICTED BY IDOCK:   -4.87 KCAL/MOL
REMARK 922        TOTAL FREE ENERGY PREDICTED BY IDOCK:   -7.25 KCAL/MOL
REMARK 923 INTER-LIGAND FREE ENERGY PREDICTED BY IDOCK:   -6.30 KCAL/MOL
REMARK 924 INTRA-LIGAND FREE ENERGY PREDICTED BY IDOCK:   -0.95 KCAL/MOL
REMARK 927      BINDING AFFINITY PREDICTED BY RF-SCORE:    0.00 PKD
ROOT
HETATM    1  C   UNL     1     -10.624  13.709  64.357  1.00  0.00    -0.341 C  
HETATM    2  N   UNL     1     -12.017  13.263  64.246  1.00  0.00    -0.399 NA 
HETATM    3  C   UNL     1     -12.088  12.100  63.360  1.00  0.00    -0.507 C  
ENDROOT
BRANCH   2   4
HETATM    4  C   UNL     1     -12.552  12.979  65.590  1.00  0.00    -0.285 C  
BRANCH   4   5
HETATM    5  C   UNL     1     -12.391  14.138  66.577  1.00  0.00    -0.405 C  
BRANCH   5   6
HETATM    6  C   UNL     1     -11.869  13.642  67.922  1.00  0.00    -0.366 C  
BRANCH   6   7
HETATM    7  O   UNL     1     -10.674  12.901  67.670  1.00  0.00    -0.219 OA 
BRANCH   7   8
HETATM    8  C   UNL     1      -9.545  13.601  67.913  1.00  0.00    -0.223 A  
HETATM    9  N   UNL     1      -9.607  14.821  68.445  1.00  0.00    -0.207 NA 
HETATM   10  N   UNL     1      -8.307  15.193  68.508  1.00  0.00    -0.150 NA 
HETATM   11  C   UNL     1      -6.242  11.924  67.076  1.00  0.00    -0.145 A  
HETATM   12  C   UNL     1      -7.428  14.223  68.066  1.00  0.00    -0.142 A  
HETATM   13  C   UNL     1      -6.030  14.180  67.966  1.00  0.00    -0.146 A  
HETATM   14  C   UNL     1      -8.231  13.152  67.680  1.00  0.00    -0.175 A  
HETATM   15  C   UNL     1      -7.636  11.982  67.176  1.00  0.00    -0.146 A  
HETATM   16  C   UNL     1      -5.454  13.007  67.463  1.00  0.00    -0.043 A  
BRANCH  10  17
HETATM   17  C   UNL     1      -7.970  16.489  69.086  1.00  0.00    -0.182 C  
BRANCH  17  18
HETATM   18  C   UNL     1      -8.564  17.641  68.310  1.00  0.00    -0.268 A  
HETATM   19  C   UNL     1      -8.055  18.003  67.053  1.00  0.00    -0.241 A  
HETATM   20  C   UNL     1      -9.675  19.786  66.879  1.00  0.00    -0.504 A  
HETATM   21  C   UNL     1     -10.208  19.420  68.113  1.00  0.00    -0.537 A  
HETATM   22  C   UNL     1      -8.604  19.074  66.346  1.00  0.00    -0.320 A  
HETATM   23  C   UNL     1      -9.659  18.351  68.824  1.00  0.00    -0.345 A  
ENDBRANCH  17  18
ENDBRANCH  10  17
ENDBRANCH   7   8
ENDBRANCH   6   7
ENDBRANCH   5   6
ENDBRANCH   4   5
ENDBRANCH   2   4
TORSDOF 7
ENDMDL
MODEL      130
REMARK 921   NORMALIZED FREE ENERGY PREDICTED BY IDOCK:   -4.87 KCAL/MOL
REMARK 922        TOTAL FREE ENERGY PREDICTED BY IDOCK:   -7.25 KCAL/MOL
REMARK 923 INTER-LIGAND FREE ENERGY PREDICTED BY IDOCK:   -6.15 KCAL/MOL
REMARK 924 INTRA-LIGAND FREE ENERGY PREDICTED BY IDOCK:   -1.10 KCAL/MOL
REMARK 927      BINDING AFFINITY PREDICTED BY RF-SCORE:    0.00 PKD
ROOT
HETATM    1  C   UNL     1      -8.116  11.801  68.495  1.00  0.00    -0.140 C  
HETATM    2  N   UNL     1      -7.612  12.156  67.164  1.00  0.00    -0.149 NA 
HETATM    3  C   UNL     1      -6.155  12.013  67.140  1.00  0.00    -0.155 C  
ENDROOT
BRANCH   2   4
HETATM    4  C   UNL     1      -8.276  11.320  66.147  1.00  0.00    -0.088 C  
BRANCH   4   5
HETATM    5  C   UNL     1      -9.194  10.245  66.733  1.00  0.00    -0.180 C  
BRANCH   5   6
HETATM    6  C   UNL     1     -10.647  10.494  66.342  1.00  0.00    -0.149 C  
BRANCH   6   7
HETATM    7  O   UNL     1     -11.444  10.300  67.512  1.00  0.00    -0.323 OA 
BRANCH   7   8
HETATM    8  C   UNL     1     -11.656  11.434  68.214  1.00  0.00    -0.306 A  
HETATM    9  N   UNL     1     -11.372  12.621  67.680  1.00  0.00    -0.289 NA 
HETATM   10  N   UNL     1     -11.688  13.486  68.674  1.00  0.00    -0.332 NA 
HETATM   11  C   UNL     1     -13.131  11.078  71.695  1.00  0.00    -0.543 A  
HETATM   12  C   UNL     1     -12.199  12.874  69.802  1.00  0.00    -0.162 A  
HETATM   13  C   UNL     1     -12.654  13.372  71.031  1.00  0.00    -0.425 A  
HETATM   14  C   UNL     1     -12.199  11.511  69.510  1.00  0.00    -0.287 A  
HETATM   15  C   UNL     1     -12.671  10.594  70.466  1.00  0.00    -0.395 A  
HETATM   16  C   UNL     1     -13.120  12.445  71.972  1.00  0.00    -0.470 A  
BRANCH  10  17
HETATM   17  C   UNL     1     -11.542  14.917  68.438  1.00  0.00    -0.325 C  
BRANCH  17  18
HETATM   18  C   UNL     1     -10.124  15.306  68.096  1.00  0.00    -0.229 A  
HETATM   19  C   UNL     1      -9.119  15.310  69.077  1.00  0.00    -0.225 A  
HETATM   20  C   UNL     1      -7.489  16.033  67.448  1.00  0.00    -0.208 A  
HETATM   21  C   UNL     1      -8.471  16.007  66.458  1.00  0.00    -0.348 A  
HETATM   22  C   UNL     1      -7.812  15.678  68.755  1.00  0.00    -0.169 A  
HETATM   23  C   UNL     1      -9.779  15.643  66.778  1.00  0.00    -0.255 A  
ENDBRANCH  17  18
ENDBRANCH  10  17
ENDBRANCH   7   8
ENDBRANCH   6   7
ENDBRANCH   5   6
ENDBRANCH   4   5
ENDBRANCH   2   4
TORSDOF 7
ENDMDL
MODEL      131
REMARK 921   NORMALIZED FREE ENERGY PREDICTED BY IDOCK:   -4.87 KCAL/MOL
REMARK 922        TOTAL FREE ENERGY PREDICTED BY IDOCK:   -7.25 KCAL/MOL
REMARK 923 INTER-LIGAND FREE ENERGY PREDICTED BY IDOCK:   -6.40 KCAL/MOL
REMARK 924 INTRA-LIGAND FREE ENERGY PREDICTED BY IDOCK:   -0.85 KCAL/MOL
REMARK 927      BINDING AFFINITY PREDICTED BY RF-SCORE:    0.00 PKD
ROOT
HETATM    1  C   UNL     1     -10.343   5.563  70.601  1.00  0.00    -0.262 C  
HETATM    2  N   UNL     1      -9.915   6.478  71.664  1.00  0.00    -0.178 NA 
HETATM    3  C   UNL     1      -8.653   6.004  72.236  1.00  0.00    -0.124 C  
ENDROOT
BRANCH   2   4
HETATM    4  C   UNL     1      -9.809   7.846  71.125  1.00  0.00    -0.165 C  
BRANCH   4   5
HETATM    5  C   UNL     1     -10.821   8.826  71.723  1.00  0.00    -0.416 C  
BRANCH   5   6
HETATM    6  C   UNL     1     -11.372   9.763  70.653  1.00  0.00    -0.330 C  
BRANCH   6   7
HETATM    7  O   UNL     1     -10.257  10.383  70.010  1.00  0.00    -0.219 OA 
BRANCH   7   8
HETATM    8  C   UNL     1     -10.575  10.989  68.847  1.00  0.00    -0.207 A  
HETATM    9  N   UNL     1     -11.236  12.146  68.846  1.00  0.00    -0.251 NA 
HETATM   10  N   UNL     1     -11.385  12.411  67.526  1.00  0.00    -0.294 NA 
HETATM   11  C   UNL     1      -9.457   9.293  65.637  1.00  0.00    -0.324 A  
HETATM   12  C   UNL     1     -10.801  11.471  66.700  1.00  0.00    -0.287 A  
HETATM   13  C   UNL     1     -10.708  11.356  65.306  1.00  0.00    -0.326 A  
HETATM   14  C   UNL     1     -10.245  10.526  67.559  1.00  0.00    -0.245 A  
HETATM   15  C   UNL     1      -9.561   9.418  67.027  1.00  0.00    -0.209 A  
HETATM   16  C   UNL     1     -10.024  10.247  64.792  1.00  0.00    -0.392 A  
BRANCH  10  17
HETATM   17  C   UNL     1     -12.045  13.648  67.123  1.00  0.00    -0.362 C  
BRANCH  17  18
HETATM   18  C   UNL     1     -11.246  14.876  67.489  1.00  0.00    -0.334 A  
HETATM   19  C   UNL     1     -11.600  15.666  68.595  1.00  0.00    -0.391 A  
HETATM   20  C   UNL     1      -9.751  17.158  68.159  1.00  0.00    -0.276 A  
HETATM   21  C   UNL     1      -9.372  16.368  67.075  1.00  0.00    -0.241 A  
HETATM   22  C   UNL     1     -10.861  16.803  68.922  1.00  0.00    -0.301 A  
HETATM   23  C   UNL     1     -10.111  15.231  66.743  1.00  0.00    -0.262 A  
ENDBRANCH  17  18
ENDBRANCH  10  17
ENDBRANCH   7   8
ENDBRANCH   6   7
ENDBRANCH   5   6
ENDBRANCH   4   5
ENDBRANCH   2   4
TORSDOF 7
ENDMDL
MODEL      132
REMARK 921   NORMALIZED FREE ENERGY PREDICTED BY IDOCK:   -4.87 KCAL/MOL
REMARK 922        TOTAL FREE ENERGY PREDICTED BY IDOCK:   -7.24 KCAL/MOL
REMARK 923 INTER-LIGAND FREE ENERGY PREDICTED BY IDOCK:   -7.01 KCAL/MOL
REMARK 924 INTRA-LIGAND FREE ENERGY PREDICTED BY IDOCK:   -0.24 KCAL/MOL
REMARK 927      BINDING AFFINITY PREDICTED BY RF-SCORE:    0.00 PKD
ROOT
HETATM    1  C   UNL     1      -8.385   9.568  62.925  1.00  0.00    -0.172 C  
HETATM    2  N   UNL     1      -8.630   8.989  64.250  1.00  0.00    -0.178 NA 
HETATM    3  C   UNL     1      -7.981   7.679  64.337  1.00  0.00    -0.123 C  
ENDROOT
BRANCH   2   4
HETATM    4  C   UNL     1      -8.156   9.920  65.291  1.00  0.00    -0.139 C  
BRANCH   4   5
HETATM    5  C   UNL     1      -9.038  11.160  65.458  1.00  0.00    -0.211 C  
BRANCH   5   6
HETATM    6  C   UNL     1     -10.515  10.781  65.477  1.00  0.00    -0.194 C  
BRANCH   6   7
HETATM    7  O   UNL     1     -11.266  11.977  65.259  1.00  0.00    -0.317 OA 
BRANCH   7   8
HETATM    8  C   UNL     1     -11.377  12.752  66.359  1.00  0.00    -0.323 A  
HETATM    9  N   UNL     1     -11.810  12.236  67.508  1.00  0.00    -0.519 NA 
HETATM   10  N   UNL     1     -11.807  13.302  68.343  1.00  0.00    -0.354 NA 
HETATM   11  C   UNL     1     -10.351  16.394  66.034  1.00  0.00    -0.365 A  
HETATM   12  C   UNL     1     -11.345  14.465  67.757  1.00  0.00    -0.312 A  
HETATM   13  C   UNL     1     -11.169  15.769  68.241  1.00  0.00    -0.356 A  
HETATM   14  C   UNL     1     -11.042  14.116  66.443  1.00  0.00    -0.320 A  
HETATM   15  C   UNL     1     -10.536  15.090  65.563  1.00  0.00    -0.380 A  
HETATM   16  C   UNL     1     -10.665  16.727  67.352  1.00  0.00    -0.244 A  
BRANCH  10  17
HETATM   17  C   UNL     1     -12.193  13.112  69.736  1.00  0.00    -0.202 C  
BRANCH  17  18
HETATM   18  C   UNL     1     -11.907  11.714  70.229  1.00  0.00    -0.414 A  
HETATM   19  C   UNL     1     -12.781  11.068  71.119  1.00  0.00    -0.521 A  
HETATM   20  C   UNL     1     -11.362   9.113  71.142  1.00  0.00    -0.392 A  
HETATM   21  C   UNL     1     -10.500   9.732  70.238  1.00  0.00    -0.345 A  
HETATM   22  C   UNL     1     -12.505   9.779  71.577  1.00  0.00    -0.495 A  
HETATM   23  C   UNL     1     -10.771  11.022  69.781  1.00  0.00    -0.135 A  
ENDBRANCH  17  18
ENDBRANCH  10  17
ENDBRANCH   7   8
ENDBRANCH   6   7
ENDBRANCH   5   6
ENDBRANCH   4   5
ENDBRANCH   2   4
TORSDOF 7
ENDMDL
MODEL      133
REMARK 921   NORMALIZED FREE ENERGY PREDICTED BY IDOCK:   -4.86 KCAL/MOL
REMARK 922        TOTAL FREE ENERGY PREDICTED BY IDOCK:   -7.24 KCAL/MOL
REMARK 923 INTER-LIGAND FREE ENERGY PREDICTED BY IDOCK:   -6.38 KCAL/MOL
REMARK 924 INTRA-LIGAND FREE ENERGY PREDICTED BY IDOCK:   -0.86 KCAL/MOL
REMARK 927      BINDING AFFINITY PREDICTED BY RF-SCORE:    0.00 PKD
ROOT
HETATM    1  C   UNL     1     -12.269  15.443  70.444  1.00  0.00    -0.391 C  
HETATM    2  N   UNL     1     -11.805  15.774  69.093  1.00  0.00    -0.386 NA 
HETATM    3  C   UNL     1     -10.492  16.418  69.171  1.00  0.00    -0.303 C  
ENDROOT
BRANCH   2   4
HETATM    4  C   UNL     1     -11.784  14.553  68.266  1.00  0.00    -0.335 C  
BRANCH   4   5
HETATM    5  C   UNL     1     -10.943  13.420  68.859  1.00  0.00    -0.284 C  
BRANCH   5   6
HETATM    6  C   UNL     1     -11.722  12.109  68.869  1.00  0.00    -0.327 C  
BRANCH   6   7
HETATM    7  O   UNL     1     -11.855  11.701  70.231  1.00  0.00    -0.340 OA 
BRANCH   7   8
HETATM    8  C   UNL     1     -11.605  10.388  70.427  1.00  0.00    -0.337 A  
HETATM    9  N   UNL     1     -10.417   9.873  70.112  1.00  0.00    -0.269 NA 
HETATM   10  N   UNL     1     -10.561   8.562  70.421  1.00  0.00    -0.217 NA 
HETATM   11  C   UNL     1     -14.382   8.293  71.949  1.00  0.00    -0.564 A  
HETATM   12  C   UNL     1     -11.795   8.250  70.958  1.00  0.00    -0.255 A  
HETATM   13  C   UNL     1     -12.357   7.050  71.416  1.00  0.00    -0.419 A  
HETATM   14  C   UNL     1     -12.497   9.453  70.983  1.00  0.00    -0.311 A  
HETATM   15  C   UNL     1     -13.811   9.482  71.485  1.00  0.00    -0.262 A  
HETATM   16  C   UNL     1     -13.666   7.097  71.912  1.00  0.00    -0.290 A  
BRANCH  10  17
HETATM   17  C   UNL     1      -9.426   7.665  70.243  1.00  0.00    -0.161 C  
BRANCH  17  18
HETATM   18  C   UNL     1      -9.190   7.312  68.794  1.00  0.00    -0.137 A  
HETATM   19  C   UNL     1      -7.900   7.357  68.240  1.00  0.00    -0.122 A  
HETATM   20  C   UNL     1      -8.763   6.657  66.096  1.00  0.00    -0.154 A  
HETATM   21  C   UNL     1     -10.044   6.582  66.639  1.00  0.00    -0.201 A  
HETATM   22  C   UNL     1      -7.690   7.038  66.898  1.00  0.00    -0.103 A  
HETATM   23  C   UNL     1     -10.257   6.903  67.980  1.00  0.00    -0.209 A  
ENDBRANCH  17  18
ENDBRANCH  10  17
ENDBRANCH   7   8
ENDBRANCH   6   7
ENDBRANCH   5   6
ENDBRANCH   4   5
ENDBRANCH   2   4
TORSDOF 7
ENDMDL
MODEL      134
REMARK 921   NORMALIZED FREE ENERGY PREDICTED BY IDOCK:   -4.82 KCAL/MOL
REMARK 922        TOTAL FREE ENERGY PREDICTED BY IDOCK:   -7.18 KCAL/MOL
REMARK 923 INTER-LIGAND FREE ENERGY PREDICTED BY IDOCK:   -6.35 KCAL/MOL
REMARK 924 INTRA-LIGAND FREE ENERGY PREDICTED BY IDOCK:   -0.83 KCAL/MOL
REMARK 927      BINDING AFFINITY PREDICTED BY RF-SCORE:    0.00 PKD
ROOT
HETATM    1  C   UNL     1     -10.047   9.944  67.232  1.00  0.00    -0.211 C  
HETATM    2  N   UNL     1      -9.333   9.063  68.162  1.00  0.00    -0.141 NA 
HETATM    3  C   UNL     1      -7.890   9.234  67.985  1.00  0.00    -0.092 C  
ENDROOT
BRANCH   2   4
HETATM    4  C   UNL     1      -9.767   9.346  69.542  1.00  0.00    -0.183 C  
BRANCH   4   5
HETATM    5  C   UNL     1     -11.282   9.499  69.694  1.00  0.00    -0.138 C  
BRANCH   5   6
HETATM    6  C   UNL     1     -11.625  10.405  70.873  1.00  0.00    -0.337 C  
BRANCH   6   7
HETATM    7  O   UNL     1     -12.648  11.303  70.439  1.00  0.00    -0.270 OA 
BRANCH   7   8
HETATM    8  C   UNL     1     -12.230  12.582  70.329  1.00  0.00    -0.267 A  
HETATM    9  N   UNL     1     -11.573  12.987  69.243  1.00  0.00    -0.296 NA 
HETATM   10  N   UNL     1     -11.309  14.288  69.513  1.00  0.00    -0.265 NA 
HETATM   11  C   UNL     1     -13.061  14.939  73.189  1.00  0.00    -0.615 A  
HETATM   12  C   UNL     1     -11.818  14.719  70.722  1.00  0.00    -0.312 A  
HETATM   13  C   UNL     1     -11.789  15.958  71.379  1.00  0.00    -0.524 A  
HETATM   14  C   UNL     1     -12.446  13.604  71.273  1.00  0.00    -0.412 A  
HETATM   15  C   UNL     1     -13.079  13.709  72.524  1.00  0.00    -0.487 A  
HETATM   16  C   UNL     1     -12.424  16.044  72.624  1.00  0.00    -0.572 A  
BRANCH  10  17
HETATM   17  C   UNL     1     -10.618  15.092  68.511  1.00  0.00    -0.235 C  
BRANCH  17  18
HETATM   18  C   UNL     1      -9.167  14.702  68.357  1.00  0.00    -0.197 A  
HETATM   19  C   UNL     1      -8.803  13.528  67.678  1.00  0.00    -0.202 A  
HETATM   20  C   UNL     1      -6.465  13.986  68.080  1.00  0.00    -0.126 A  
HETATM   21  C   UNL     1      -6.811  15.167  68.733  1.00  0.00    -0.108 A  
HETATM   22  C   UNL     1      -7.460  13.170  67.547  1.00  0.00    -0.164 A  
HETATM   23  C   UNL     1      -8.153  15.526  68.869  1.00  0.00    -0.194 A  
ENDBRANCH  17  18
ENDBRANCH  10  17
ENDBRANCH   7   8
ENDBRANCH   6   7
ENDBRANCH   5   6
ENDBRANCH   4   5
ENDBRANCH   2   4
TORSDOF 7
ENDMDL
MODEL      135
REMARK 921   NORMALIZED FREE ENERGY PREDICTED BY IDOCK:   -4.80 KCAL/MOL
REMARK 922        TOTAL FREE ENERGY PREDICTED BY IDOCK:   -7.16 KCAL/MOL
REMARK 923 INTER-LIGAND FREE ENERGY PREDICTED BY IDOCK:   -6.16 KCAL/MOL
REMARK 924 INTRA-LIGAND FREE ENERGY PREDICTED BY IDOCK:   -1.00 KCAL/MOL
REMARK 927      BINDING AFFINITY PREDICTED BY RF-SCORE:    0.00 PKD
ROOT
HETATM    1  C   UNL     1     -11.172  15.746  64.802  1.00  0.00    -0.366 C  
HETATM    2  N   UNL     1      -9.990  15.042  65.310  1.00  0.00    -0.330 NA 
HETATM    3  C   UNL     1      -9.218  15.943  66.168  1.00  0.00    -0.349 C  
ENDROOT
BRANCH   2   4
HETATM    4  C   UNL     1     -10.410  13.817  66.015  1.00  0.00    -0.308 C  
BRANCH   4   5
HETATM    5  C   UNL     1     -11.695  13.983  66.830  1.00  0.00    -0.430 C  
BRANCH   5   6
HETATM    6  C   UNL     1     -11.642  13.152  68.108  1.00  0.00    -0.339 C  
BRANCH   6   7
HETATM    7  O   UNL     1     -12.149  11.853  67.796  1.00  0.00    -0.564 OA 
BRANCH   7   8
HETATM    8  C   UNL     1     -11.491  10.854  68.422  1.00  0.00    -0.304 A  
HETATM    9  N   UNL     1     -10.439  10.273  67.847  1.00  0.00    -0.196 NA 
HETATM   10  N   UNL     1     -10.081   9.328  68.749  1.00  0.00    -0.189 NA 
HETATM   11  C   UNL     1     -12.729   9.846  71.868  1.00  0.00    -0.501 A  
HETATM   12  C   UNL     1     -10.856   9.329  69.892  1.00  0.00    -0.234 A  
HETATM   13  C   UNL     1     -10.834   8.549  71.058  1.00  0.00    -0.290 A  
HETATM   14  C   UNL     1     -11.790  10.345  69.700  1.00  0.00    -0.252 A  
HETATM   15  C   UNL     1     -12.743  10.613  70.699  1.00  0.00    -0.445 A  
HETATM   16  C   UNL     1     -11.790   8.829  72.042  1.00  0.00    -0.442 A  
BRANCH  10  17
HETATM   17  C   UNL     1      -8.915   8.496  68.477  1.00  0.00    -0.139 C  
BRANCH  17  18
HETATM   18  C   UNL     1      -7.615   9.240  68.674  1.00  0.00    -0.081 A  
HETATM   19  C   UNL     1      -6.672   9.332  67.639  1.00  0.00    -0.068 A  
HETATM   20  C   UNL     1      -5.201  10.624  69.054  1.00  0.00    -0.041 A  
HETATM   21  C   UNL     1      -6.140  10.563  70.082  1.00  0.00    -0.105 A  
HETATM   22  C   UNL     1      -5.469  10.014  67.831  1.00  0.00    -0.038 A  
HETATM   23  C   UNL     1      -7.342   9.879  69.893  1.00  0.00    -0.147 A  
ENDBRANCH  17  18
ENDBRANCH  10  17
ENDBRANCH   7   8
ENDBRANCH   6   7
ENDBRANCH   5   6
ENDBRANCH   4   5
ENDBRANCH   2   4
TORSDOF 7
ENDMDL
MODEL      136
REMARK 921   NORMALIZED FREE ENERGY PREDICTED BY IDOCK:   -4.79 KCAL/MOL
REMARK 922        TOTAL FREE ENERGY PREDICTED BY IDOCK:   -7.14 KCAL/MOL
REMARK 923 INTER-LIGAND FREE ENERGY PREDICTED BY IDOCK:   -6.15 KCAL/MOL
REMARK 924 INTRA-LIGAND FREE ENERGY PREDICTED BY IDOCK:   -0.99 KCAL/MOL
REMARK 927      BINDING AFFINITY PREDICTED BY RF-SCORE:    0.00 PKD
ROOT
HETATM    1  C   UNL     1      -8.496   7.090  72.147  1.00  0.00    -0.111 C  
HETATM    2  N   UNL     1      -9.564   6.358  71.457  1.00  0.00    -0.159 NA 
HETATM    3  C   UNL     1      -9.906   5.157  72.222  1.00  0.00    -0.171 C  
ENDROOT
BRANCH   2   4
HETATM    4  C   UNL     1     -10.723   7.247  71.258  1.00  0.00    -0.225 C  
BRANCH   4   5
HETATM    5  C   UNL     1     -10.819   8.376  72.286  1.00  0.00    -0.422 C  
BRANCH   5   6
HETATM    6  C   UNL     1     -11.428   9.629  71.666  1.00  0.00    -0.305 C  
BRANCH   6   7
HETATM    7  O   UNL     1     -11.483   9.425  70.253  1.00  0.00    -0.244 OA 
BRANCH   7   8
HETATM    8  C   UNL     1     -10.997  10.463  69.539  1.00  0.00    -0.262 A  
HETATM    9  N   UNL     1     -11.764  11.520  69.277  1.00  0.00    -0.301 NA 
HETATM   10  N   UNL     1     -10.950  12.312  68.539  1.00  0.00    -0.227 NA 
HETATM   11  C   UNL     1      -7.383  10.248  68.391  1.00  0.00    -0.084 A  
HETATM   12  C   UNL     1      -9.681  11.796  68.364  1.00  0.00    -0.197 A  
HETATM   13  C   UNL     1      -8.545  12.272  67.694  1.00  0.00    -0.169 A  
HETATM   14  C   UNL     1      -9.688  10.575  69.034  1.00  0.00    -0.221 A  
HETATM   15  C   UNL     1      -8.525   9.783  69.052  1.00  0.00    -0.137 A  
HETATM   16  C   UNL     1      -7.396  11.471  67.722  1.00  0.00    -0.096 A  
BRANCH  10  17
HETATM   17  C   UNL     1     -11.443  13.609  68.090  1.00  0.00    -0.313 C  
BRANCH  17  18
HETATM   18  C   UNL     1     -11.701  13.647  66.602  1.00  0.00    -0.420 A  
HETATM   19  C   UNL     1     -11.541  14.835  65.871  1.00  0.00    -0.286 A  
HETATM   20  C   UNL     1     -12.186  13.704  63.836  1.00  0.00    -0.429 A  
HETATM   21  C   UNL     1     -12.323  12.512  64.545  1.00  0.00    -0.545 A  
HETATM   22  C   UNL     1     -11.789  14.864  64.498  1.00  0.00    -0.404 A  
HETATM   23  C   UNL     1     -12.078  12.481  65.919  1.00  0.00    -0.420 A  
ENDBRANCH  17  18
ENDBRANCH  10  17
ENDBRANCH   7   8
ENDBRANCH   6   7
ENDBRANCH   5   6
ENDBRANCH   4   5
ENDBRANCH   2   4
TORSDOF 7
ENDMDL
MODEL      137
REMARK 921   NORMALIZED FREE ENERGY PREDICTED BY IDOCK:   -4.78 KCAL/MOL
REMARK 922        TOTAL FREE ENERGY PREDICTED BY IDOCK:   -7.12 KCAL/MOL
REMARK 923 INTER-LIGAND FREE ENERGY PREDICTED BY IDOCK:   -5.96 KCAL/MOL
REMARK 924 INTRA-LIGAND FREE ENERGY PREDICTED BY IDOCK:   -1.16 KCAL/MOL
REMARK 927      BINDING AFFINITY PREDICTED BY RF-SCORE:    0.00 PKD
ROOT
HETATM    1  C   UNL     1     -12.195  12.262  70.801  1.00  0.00    -0.260 C  
HETATM    2  N   UNL     1     -12.304  10.849  70.425  1.00  0.00    -0.333 NA 
HETATM    3  C   UNL     1     -11.275  10.526  69.435  1.00  0.00    -0.269 C  
ENDROOT
BRANCH   2   4
HETATM    4  C   UNL     1     -12.205  10.008  71.633  1.00  0.00    -0.367 C  
BRANCH   4   5
HETATM    5  C   UNL     1     -13.536   9.389  72.066  1.00  0.00    -0.505 C  
BRANCH   5   6
HETATM    6  C   UNL     1     -13.683   7.972  71.520  1.00  0.00    -0.312 C  
BRANCH   6   7
HETATM    7  O   UNL     1     -12.732   7.151  72.201  1.00  0.00    -0.218 OA 
BRANCH   7   8
HETATM    8  C   UNL     1     -11.870   6.525  71.371  1.00  0.00    -0.329 A  
HETATM    9  N   UNL     1     -11.897   6.765  70.061  1.00  0.00    -0.278 NA 
HETATM   10  N   UNL     1     -10.927   5.951  69.581  1.00  0.00    -0.376 NA 
HETATM   11  C   UNL     1      -9.367   4.137  72.940  1.00  0.00    -0.138 A  
HETATM   12  C   UNL     1     -10.265   5.237  70.560  1.00  0.00    -0.264 A  
HETATM   13  C   UNL     1      -9.215   4.309  70.515  1.00  0.00    -0.192 A  
HETATM   14  C   UNL     1     -10.868   5.615  71.758  1.00  0.00    -0.301 A  
HETATM   15  C   UNL     1     -10.417   5.061  72.970  1.00  0.00    -0.251 A  
HETATM   16  C   UNL     1      -8.779   3.767  71.731  1.00  0.00    -0.124 A  
BRANCH  10  17
HETATM   17  C   UNL     1     -10.632   5.969  68.153  1.00  0.00    -0.262 C  
BRANCH  17  18
HETATM   18  C   UNL     1      -9.920   7.231  67.725  1.00  0.00    -0.205 A  
HETATM   19  C   UNL     1      -8.778   7.682  68.405  1.00  0.00    -0.127 A  
HETATM   20  C   UNL     1      -8.608   9.580  66.921  1.00  0.00    -0.132 A  
HETATM   21  C   UNL     1      -9.724   9.129  66.220  1.00  0.00    -0.344 A  
HETATM   22  C   UNL     1      -8.131   8.853  68.009  1.00  0.00    -0.106 A  
HETATM   23  C   UNL     1     -10.376   7.960  66.616  1.00  0.00    -0.270 A  
ENDBRANCH  17  18
ENDBRANCH  10  17
ENDBRANCH   7   8
ENDBRANCH   6   7
ENDBRANCH   5   6
ENDBRANCH   4   5
ENDBRANCH   2   4
TORSDOF 7
ENDMDL
MODEL      138
REMARK 921   NORMALIZED FREE ENERGY PREDICTED BY IDOCK:   -4.77 KCAL/MOL
REMARK 922        TOTAL FREE ENERGY PREDICTED BY IDOCK:   -7.12 KCAL/MOL
REMARK 923 INTER-LIGAND FREE ENERGY PREDICTED BY IDOCK:   -6.38 KCAL/MOL
REMARK 924 INTRA-LIGAND FREE ENERGY PREDICTED BY IDOCK:   -0.74 KCAL/MOL
REMARK 927      BINDING AFFINITY PREDICTED BY RF-SCORE:    0.00 PKD
ROOT
HETATM    1  C   UNL     1     -13.744  14.537  72.556  1.00  0.00    -0.476 C  
HETATM    2  N   UNL     1     -12.962  15.741  72.853  1.00  0.00    -0.456 NA 
HETATM    3  C   UNL     1     -12.734  15.832  74.296  1.00  0.00    -0.459 C  
ENDROOT
BRANCH   2   4
HETATM    4  C   UNL     1     -11.702  15.713  72.086  1.00  0.00    -0.483 C  
BRANCH   4   5
HETATM    5  C   UNL     1     -11.698  14.698  70.941  1.00  0.00    -0.335 C  
BRANCH   5   6
HETATM    6  C   UNL     1     -11.520  15.392  69.595  1.00  0.00    -0.320 C  
BRANCH   6   7
HETATM    7  O   UNL     1     -12.132  14.566  68.603  1.00  0.00    -0.296 OA 
BRANCH   7   8
HETATM    8  C   UNL     1     -11.254  14.049  67.717  1.00  0.00    -0.281 A  
HETATM    9  N   UNL     1      -9.959  13.970  68.017  1.00  0.00    -0.229 NA 
HETATM   10  N   UNL     1      -9.418  13.436  66.896  1.00  0.00    -0.246 NA 
HETATM   11  C   UNL     1     -12.648  12.798  64.412  1.00  0.00    -0.431 A  
HETATM   12  C   UNL     1     -10.346  13.141  65.916  1.00  0.00    -0.290 A  
HETATM   13  C   UNL     1     -10.232  12.584  64.634  1.00  0.00    -0.315 A  
HETATM   14  C   UNL     1     -11.574  13.528  66.448  1.00  0.00    -0.381 A  
HETATM   15  C   UNL     1     -12.747  13.357  65.691  1.00  0.00    -0.432 A  
HETATM   16  C   UNL     1     -11.410  12.421  63.894  1.00  0.00    -0.502 A  
BRANCH  10  17
HETATM   17  C   UNL     1      -7.986  13.159  66.864  1.00  0.00     0.134 C  
BRANCH  17  18
HETATM   18  C   UNL     1      -7.646  11.806  67.440  1.00  0.00    -0.143 A  
HETATM   19  C   UNL     1      -6.912  11.691  68.631  1.00  0.00    -0.088 A  
HETATM   20  C   UNL     1      -7.017   9.281  68.499  1.00  0.00    -0.067 A  
HETATM   21  C   UNL     1      -7.770   9.381  67.331  1.00  0.00    -0.095 A  
HETATM   22  C   UNL     1      -6.594  10.436  69.153  1.00  0.00    -0.054 A  
HETATM   23  C   UNL     1      -8.086  10.634  66.805  1.00  0.00    -0.131 A  
ENDBRANCH  17  18
ENDBRANCH  10  17
ENDBRANCH   7   8
ENDBRANCH   6   7
ENDBRANCH   5   6
ENDBRANCH   4   5
ENDBRANCH   2   4
TORSDOF 7
ENDMDL
MODEL      139
REMARK 921   NORMALIZED FREE ENERGY PREDICTED BY IDOCK:   -4.76 KCAL/MOL
REMARK 922        TOTAL FREE ENERGY PREDICTED BY IDOCK:   -7.10 KCAL/MOL
REMARK 923 INTER-LIGAND FREE ENERGY PREDICTED BY IDOCK:   -6.27 KCAL/MOL
REMARK 924 INTRA-LIGAND FREE ENERGY PREDICTED BY IDOCK:   -0.83 KCAL/MOL
REMARK 927      BINDING AFFINITY PREDICTED BY RF-SCORE:    0.00 PKD
ROOT
HETATM    1  C   UNL     1     -11.968  15.692  69.728  1.00  0.00    -0.354 C  
HETATM    2  N   UNL     1     -11.771  16.181  68.359  1.00  0.00    -0.246 NA 
HETATM    3  C   UNL     1     -10.574  17.023  68.309  1.00  0.00    -0.372 C  
ENDROOT
BRANCH   2   4
HETATM    4  C   UNL     1     -11.694  15.037  67.433  1.00  0.00    -0.239 C  
BRANCH   4   5
HETATM    5  C   UNL     1     -10.625  14.008  67.809  1.00  0.00    -0.244 C  
BRANCH   5   6
HETATM    6  C   UNL     1     -11.214  12.603  67.863  1.00  0.00    -0.266 C  
BRANCH   6   7
HETATM    7  O   UNL     1     -11.699  12.392  69.190  1.00  0.00    -0.288 OA 
BRANCH   7   8
HETATM    8  C   UNL     1     -11.287  11.227  69.735  1.00  0.00    -0.271 A  
HETATM    9  N   UNL     1     -10.101  10.712  69.413  1.00  0.00    -0.205 NA 
HETATM   10  N   UNL     1     -10.065   9.560  70.124  1.00  0.00    -0.231 NA 
HETATM   11  C   UNL     1     -13.611   9.554  72.230  1.00  0.00    -0.494 A  
HETATM   12  C   UNL     1     -11.180   9.358  70.914  1.00  0.00    -0.325 A  
HETATM   13  C   UNL     1     -11.549   8.332  71.795  1.00  0.00    -0.356 A  
HETATM   14  C   UNL     1     -11.998  10.462  70.680  1.00  0.00    -0.448 A  
HETATM   15  C   UNL     1     -13.233  10.568  71.344  1.00  0.00    -0.441 A  
HETATM   16  C   UNL     1     -12.782   8.454  72.449  1.00  0.00    -0.346 A  
BRANCH  10  17
HETATM   17  C   UNL     1      -8.873   8.723  70.055  1.00  0.00    -0.146 C  
BRANCH  17  18
HETATM   18  C   UNL     1      -9.158   7.356  69.481  1.00  0.00    -0.143 A  
HETATM   19  C   UNL     1      -9.910   7.210  68.304  1.00  0.00    -0.159 A  
HETATM   20  C   UNL     1      -9.684   4.808  68.423  1.00  0.00    -0.209 A  
HETATM   21  C   UNL     1      -8.914   4.940  69.577  1.00  0.00    -0.130 A  
HETATM   22  C   UNL     1     -10.176   5.942  67.783  1.00  0.00    -0.223 A  
HETATM   23  C   UNL     1      -8.648   6.205  70.102  1.00  0.00    -0.133 A  
ENDBRANCH  17  18
ENDBRANCH  10  17
ENDBRANCH   7   8
ENDBRANCH   6   7
ENDBRANCH   5   6
ENDBRANCH   4   5
ENDBRANCH   2   4
TORSDOF 7
ENDMDL
MODEL      140
REMARK 921   NORMALIZED FREE ENERGY PREDICTED BY IDOCK:   -4.76 KCAL/MOL
REMARK 922        TOTAL FREE ENERGY PREDICTED BY IDOCK:   -7.10 KCAL/MOL
REMARK 923 INTER-LIGAND FREE ENERGY PREDICTED BY IDOCK:   -6.35 KCAL/MOL
REMARK 924 INTRA-LIGAND FREE ENERGY PREDICTED BY IDOCK:   -0.75 KCAL/MOL
REMARK 927      BINDING AFFINITY PREDICTED BY RF-SCORE:    0.00 PKD
ROOT
HETATM    1  C   UNL     1      -6.436  14.417  67.945  1.00  0.00    -0.164 C  
HETATM    2  N   UNL     1      -7.525  13.601  67.399  1.00  0.00    -0.158 NA 
HETATM    3  C   UNL     1      -7.222  12.183  67.603  1.00  0.00    -0.123 C  
ENDROOT
BRANCH   2   4
HETATM    4  C   UNL     1      -8.801  13.998  68.023  1.00  0.00    -0.181 C  
BRANCH   4   5
HETATM    5  C   UNL     1      -9.915  14.296  67.016  1.00  0.00    -0.258 C  
BRANCH   5   6
HETATM    6  C   UNL     1     -11.273  14.364  67.708  1.00  0.00    -0.300 C  
BRANCH   6   7
HETATM    7  O   UNL     1     -11.970  13.155  67.402  1.00  0.00    -0.365 OA 
BRANCH   7   8
HETATM    8  C   UNL     1     -11.399  12.054  67.937  1.00  0.00    -0.305 A  
HETATM    9  N   UNL     1     -11.436  11.845  69.252  1.00  0.00    -0.284 NA 
HETATM   10  N   UNL     1     -10.753  10.684  69.397  1.00  0.00    -0.230 NA 
HETATM   11  C   UNL     1      -9.766   9.600  65.542  1.00  0.00    -0.372 A  
HETATM   12  C   UNL     1     -10.323  10.140  68.202  1.00  0.00    -0.185 A  
HETATM   13  C   UNL     1      -9.606   8.976  67.891  1.00  0.00    -0.170 A  
HETATM   14  C   UNL     1     -10.754  11.029  67.220  1.00  0.00    -0.312 A  
HETATM   15  C   UNL     1     -10.476  10.761  65.867  1.00  0.00    -0.270 A  
HETATM   16  C   UNL     1      -9.337   8.724  66.539  1.00  0.00    -0.260 A  
BRANCH  10  17
HETATM   17  C   UNL     1     -10.616  10.105  70.728  1.00  0.00    -0.003 C  
BRANCH  17  18
HETATM   18  C   UNL     1     -11.801   9.252  71.112  1.00  0.00    -0.396 A  
HETATM   19  C   UNL     1     -11.662   7.869  71.309  1.00  0.00    -0.313 A  
HETATM   20  C   UNL     1     -14.014   7.676  71.825  1.00  0.00    -0.471 A  
HETATM   21  C   UNL     1     -14.161   9.052  71.659  1.00  0.00    -0.343 A  
HETATM   22  C   UNL     1     -12.764   7.086  71.657  1.00  0.00    -0.417 A  
HETATM   23  C   UNL     1     -13.061   9.837  71.309  1.00  0.00    -0.465 A  
ENDBRANCH  17  18
ENDBRANCH  10  17
ENDBRANCH   7   8
ENDBRANCH   6   7
ENDBRANCH   5   6
ENDBRANCH   4   5
ENDBRANCH   2   4
TORSDOF 7
ENDMDL
MODEL      141
REMARK 921   NORMALIZED FREE ENERGY PREDICTED BY IDOCK:   -4.73 KCAL/MOL
REMARK 922        TOTAL FREE ENERGY PREDICTED BY IDOCK:   -7.05 KCAL/MOL
REMARK 923 INTER-LIGAND FREE ENERGY PREDICTED BY IDOCK:   -6.14 KCAL/MOL
REMARK 924 INTRA-LIGAND FREE ENERGY PREDICTED BY IDOCK:   -0.91 KCAL/MOL
REMARK 927      BINDING AFFINITY PREDICTED BY RF-SCORE:    0.00 PKD
ROOT
HETATM    1  C   UNL     1      -8.200   3.662  63.038  1.00  0.00    -0.081 C  
HETATM    2  N   UNL     1      -9.329   4.317  63.708  1.00  0.00    -0.147 NA 
HETATM    3  C   UNL     1     -10.505   3.448  63.644  1.00  0.00    -0.254 C  
ENDROOT
BRANCH   2   4
HETATM    4  C   UNL     1      -8.953   4.654  65.093  1.00  0.00    -0.150 C  
BRANCH   4   5
HETATM    5  C   UNL     1     -10.091   4.482  66.102  1.00  0.00    -0.282 C  
BRANCH   5   6
HETATM    6  C   UNL     1     -10.604   5.835  66.583  1.00  0.00    -0.280 C  
BRANCH   6   7
HETATM    7  O   UNL     1      -9.719   6.289  67.608  1.00  0.00    -0.117 OA 
BRANCH   7   8
HETATM    8  C   UNL     1      -9.836   7.607  67.875  1.00  0.00    -0.157 A  
HETATM    9  N   UNL     1      -9.324   8.513  67.042  1.00  0.00    -0.153 NA 
HETATM   10  N   UNL     1      -9.614   9.687  67.652  1.00  0.00    -0.140 NA 
HETATM   11  C   UNL     1     -11.715   8.588  71.026  1.00  0.00    -0.310 A  
HETATM   12  C   UNL     1     -10.329   9.543  68.825  1.00  0.00    -0.208 A  
HETATM   13  C   UNL     1     -10.835  10.467  69.750  1.00  0.00    -0.342 A  
HETATM   14  C   UNL     1     -10.498   8.169  68.983  1.00  0.00    -0.211 A  
HETATM   15  C   UNL     1     -11.201   7.677  70.097  1.00  0.00    -0.193 A  
HETATM   16  C   UNL     1     -11.532   9.960  70.855  1.00  0.00    -0.456 A  
BRANCH  10  17
HETATM   17  C   UNL     1      -9.234  10.935  67.000  1.00  0.00    -0.152 C  
BRANCH  17  18
HETATM   18  C   UNL     1     -10.267  11.405  66.004  1.00  0.00    -0.289 A  
HETATM   19  C   UNL     1     -10.196  11.021  64.655  1.00  0.00    -0.392 A  
HETATM   20  C   UNL     1     -12.193  12.287  64.159  1.00  0.00    -0.539 A  
HETATM   21  C   UNL     1     -12.291  12.653  65.501  1.00  0.00    -0.455 A  
HETATM   22  C   UNL     1     -11.150  11.466  63.738  1.00  0.00    -0.417 A  
HETATM   23  C   UNL     1     -11.337  12.213  66.419  1.00  0.00    -0.411 A  
ENDBRANCH  17  18
ENDBRANCH  10  17
ENDBRANCH   7   8
ENDBRANCH   6   7
ENDBRANCH   5   6
ENDBRANCH   4   5
ENDBRANCH   2   4
TORSDOF 7
ENDMDL
MODEL      142
REMARK 921   NORMALIZED FREE ENERGY PREDICTED BY IDOCK:   -4.72 KCAL/MOL
REMARK 922        TOTAL FREE ENERGY PREDICTED BY IDOCK:   -7.04 KCAL/MOL
REMARK 923 INTER-LIGAND FREE ENERGY PREDICTED BY IDOCK:   -6.06 KCAL/MOL
REMARK 924 INTRA-LIGAND FREE ENERGY PREDICTED BY IDOCK:   -0.99 KCAL/MOL
REMARK 927      BINDING AFFINITY PREDICTED BY RF-SCORE:    0.00 PKD
ROOT
HETATM    1  C   UNL     1     -14.368   8.219  71.836  1.00  0.00    -0.476 C  
HETATM    2  N   UNL     1     -13.364   9.066  71.183  1.00  0.00    -0.181 NA 
HETATM    3  C   UNL     1     -13.271  10.345  71.889  1.00  0.00    -0.429 C  
ENDROOT
BRANCH   2   4
HETATM    4  C   UNL     1     -12.074   8.354  71.136  1.00  0.00    -0.249 C  
BRANCH   4   5
HETATM    5  C   UNL     1     -10.906   9.153  71.720  1.00  0.00    -0.416 C  
BRANCH   5   6
HETATM    6  C   UNL     1      -9.728   9.187  70.752  1.00  0.00    -0.273 C  
BRANCH   6   7
HETATM    7  O   UNL     1     -10.081   8.388  69.621  1.00  0.00    -0.190 OA 
BRANCH   7   8
HETATM    8  C   UNL     1      -9.682   8.915  68.444  1.00  0.00    -0.161 A  
HETATM    9  N   UNL     1      -9.660  10.235  68.267  1.00  0.00    -0.140 NA 
HETATM   10  N   UNL     1      -9.240  10.365  66.986  1.00  0.00    -0.146 NA 
HETATM   11  C   UNL     1      -8.587   6.490  65.733  1.00  0.00    -0.149 A  
HETATM   12  C   UNL     1      -8.960   9.162  66.368  1.00  0.00    -0.149 A  
HETATM   13  C   UNL     1      -8.503   8.836  65.083  1.00  0.00    -0.192 A  
HETATM   14  C   UNL     1      -9.234   8.187  67.325  1.00  0.00    -0.165 A  
HETATM   15  C   UNL     1      -9.047   6.829  67.010  1.00  0.00    -0.139 A  
HETATM   16  C   UNL     1      -8.322   7.479  64.786  1.00  0.00    -0.014 A  
BRANCH  10  17
HETATM   17  C   UNL     1      -9.053  11.702  66.435  1.00  0.00    -0.206 C  
BRANCH  17  18
HETATM   18  C   UNL     1     -10.348  12.321  65.967  1.00  0.00    -0.273 A  
HETATM   19  C   UNL     1     -10.956  13.359  66.691  1.00  0.00    -0.297 A  
HETATM   20  C   UNL     1     -12.759  13.462  65.086  1.00  0.00    -0.459 A  
HETATM   21  C   UNL     1     -12.152  12.451  64.343  1.00  0.00    -0.505 A  
HETATM   22  C   UNL     1     -12.158  13.920  66.256  1.00  0.00    -0.484 A  
HETATM   23  C   UNL     1     -10.952  11.885  64.777  1.00  0.00    -0.366 A  
ENDBRANCH  17  18
ENDBRANCH  10  17
ENDBRANCH   7   8
ENDBRANCH   6   7
ENDBRANCH   5   6
ENDBRANCH   4   5
ENDBRANCH   2   4
TORSDOF 7
ENDMDL
MODEL      143
REMARK 921   NORMALIZED FREE ENERGY PREDICTED BY IDOCK:   -4.72 KCAL/MOL
REMARK 922        TOTAL FREE ENERGY PREDICTED BY IDOCK:   -7.04 KCAL/MOL
REMARK 923 INTER-LIGAND FREE ENERGY PREDICTED BY IDOCK:   -6.11 KCAL/MOL
REMARK 924 INTRA-LIGAND FREE ENERGY PREDICTED BY IDOCK:   -0.93 KCAL/MOL
REMARK 927      BINDING AFFINITY PREDICTED BY RF-SCORE:    0.00 PKD
ROOT
HETATM    1  C   UNL     1     -10.422  13.866  65.258  1.00  0.00    -0.371 C  
HETATM    2  N   UNL     1     -11.075  12.585  64.971  1.00  0.00    -0.290 NA 
HETATM    3  C   UNL     1     -12.516  12.795  64.818  1.00  0.00    -0.472 C  
ENDROOT
BRANCH   2   4
HETATM    4  C   UNL     1     -10.466  11.978  63.773  1.00  0.00    -0.429 C  
BRANCH   4   5
HETATM    5  C   UNL     1      -9.512  10.822  64.083  1.00  0.00    -0.309 C  
BRANCH   5   6
HETATM    6  C   UNL     1     -10.032   9.981  65.245  1.00  0.00    -0.298 C  
BRANCH   6   7
HETATM    7  O   UNL     1      -8.935   9.212  65.742  1.00  0.00    -0.167 OA 
BRANCH   7   8
HETATM    8  C   UNL     1      -8.627   9.482  67.028  1.00  0.00    -0.128 A  
HETATM    9  N   UNL     1      -9.228   8.825  68.019  1.00  0.00    -0.139 NA 
HETATM   10  N   UNL     1      -8.685   9.382  69.128  1.00  0.00    -0.136 NA 
HETATM   11  C   UNL     1      -5.968  12.118  67.666  1.00  0.00    -0.106 A  
HETATM   12  C   UNL     1      -7.732  10.344  68.858  1.00  0.00    -0.111 A  
HETATM   13  C   UNL     1      -6.931  11.148  69.682  1.00  0.00    -0.088 A  
HETATM   14  C   UNL     1      -7.668  10.415  67.468  1.00  0.00    -0.094 A  
HETATM   15  C   UNL     1      -6.775  11.313  66.856  1.00  0.00    -0.135 A  
HETATM   16  C   UNL     1      -6.048  12.036  69.056  1.00  0.00    -0.073 A  
BRANCH  10  17
HETATM   17  C   UNL     1      -9.081   8.878  70.438  1.00  0.00    -0.190 C  
BRANCH  17  18
HETATM   18  C   UNL     1     -10.461   9.341  70.843  1.00  0.00    -0.372 A  
HETATM   19  C   UNL     1     -11.189   8.661  71.832  1.00  0.00    -0.413 A  
HETATM   20  C   UNL     1     -13.026  10.210  71.585  1.00  0.00    -0.561 A  
HETATM   21  C   UNL     1     -12.303  10.911  70.621  1.00  0.00    -0.470 A  
HETATM   22  C   UNL     1     -12.467   9.090  72.195  1.00  0.00    -0.450 A  
HETATM   23  C   UNL     1     -11.027  10.482  70.254  1.00  0.00    -0.306 A  
ENDBRANCH  17  18
ENDBRANCH  10  17
ENDBRANCH   7   8
ENDBRANCH   6   7
ENDBRANCH   5   6
ENDBRANCH   4   5
ENDBRANCH   2   4
TORSDOF 7
ENDMDL
MODEL      144
REMARK 921   NORMALIZED FREE ENERGY PREDICTED BY IDOCK:   -4.70 KCAL/MOL
REMARK 922        TOTAL FREE ENERGY PREDICTED BY IDOCK:   -7.02 KCAL/MOL
REMARK 923 INTER-LIGAND FREE ENERGY PREDICTED BY IDOCK:   -5.99 KCAL/MOL
REMARK 924 INTRA-LIGAND FREE ENERGY PREDICTED BY IDOCK:   -1.03 KCAL/MOL
REMARK 927      BINDING AFFINITY PREDICTED BY RF-SCORE:    0.00 PKD
ROOT
HETATM    1  C   UNL     1     -11.999  15.597  70.541  1.00  0.00    -0.385 C  
HETATM    2  N   UNL     1     -11.922  15.596  69.077  1.00  0.00    -0.356 NA 
HETATM    3  C   UNL     1     -10.710  16.298  68.651  1.00  0.00    -0.309 C  
ENDROOT
BRANCH   2   4
HETATM    4  C   UNL     1     -11.971  14.208  68.581  1.00  0.00    -0.338 C  
BRANCH   4   5
HETATM    5  C   UNL     1     -11.855  14.091  67.059  1.00  0.00    -0.458 C  
BRANCH   5   6
HETATM    6  C   UNL     1     -11.215  12.765  66.661  1.00  0.00    -0.301 C  
BRANCH   6   7
HETATM    7  O   UNL     1     -12.033  11.719  67.188  1.00  0.00    -0.617 OA 
BRANCH   7   8
HETATM    8  C   UNL     1     -11.343  10.806  67.905  1.00  0.00    -0.299 A  
HETATM    9  N   UNL     1     -10.310  10.163  67.364  1.00  0.00    -0.222 NA 
HETATM   10  N   UNL     1      -9.909   9.337  68.360  1.00  0.00    -0.151 NA 
HETATM   11  C   UNL     1     -12.438  10.223  71.495  1.00  0.00    -0.524 A  
HETATM   12  C   UNL     1     -10.640   9.474  69.524  1.00  0.00    -0.221 A  
HETATM   13  C   UNL     1     -10.565   8.843  70.774  1.00  0.00    -0.281 A  
HETATM   14  C   UNL     1     -11.588  10.456  69.247  1.00  0.00    -0.246 A  
HETATM   15  C   UNL     1     -12.504  10.841  70.242  1.00  0.00    -0.395 A  
HETATM   16  C   UNL     1     -11.485   9.238  71.754  1.00  0.00    -0.448 A  
BRANCH  10  17
HETATM   17  C   UNL     1      -8.748   8.481  68.146  1.00  0.00    -0.142 C  
BRANCH  17  18
HETATM   18  C   UNL     1      -7.528   8.963  68.895  1.00  0.00    -0.082 A  
HETATM   19  C   UNL     1      -6.925   8.166  69.881  1.00  0.00    -0.048 A  
HETATM   20  C   UNL     1      -5.263   9.871  70.285  1.00  0.00    -0.037 A  
HETATM   21  C   UNL     1      -5.835  10.661  69.289  1.00  0.00    -0.041 A  
HETATM   22  C   UNL     1      -5.804   8.622  70.576  1.00  0.00    -0.027 A  
HETATM   23  C   UNL     1      -6.959  10.210  68.596  1.00  0.00    -0.062 A  
ENDBRANCH  17  18
ENDBRANCH  10  17
ENDBRANCH   7   8
ENDBRANCH   6   7
ENDBRANCH   5   6
ENDBRANCH   4   5
ENDBRANCH   2   4
TORSDOF 7
ENDMDL
MODEL      145
REMARK 921   NORMALIZED FREE ENERGY PREDICTED BY IDOCK:   -4.70 KCAL/MOL
REMARK 922        TOTAL FREE ENERGY PREDICTED BY IDOCK:   -7.01 KCAL/MOL
REMARK 923 INTER-LIGAND FREE ENERGY PREDICTED BY IDOCK:   -6.19 KCAL/MOL
REMARK 924 INTRA-LIGAND FREE ENERGY PREDICTED BY IDOCK:   -0.82 KCAL/MOL
REMARK 927      BINDING AFFINITY PREDICTED BY RF-SCORE:    0.00 PKD
ROOT
HETATM    1  C   UNL     1     -10.878  16.465  69.629  1.00  0.00    -0.346 C  
HETATM    2  N   UNL     1     -11.591  15.187  69.738  1.00  0.00    -0.289 NA 
HETATM    3  C   UNL     1     -12.757  15.352  70.608  1.00  0.00    -0.437 C  
ENDROOT
BRANCH   2   4
HETATM    4  C   UNL     1     -11.958  14.711  68.391  1.00  0.00    -0.254 C  
BRANCH   4   5
HETATM    5  C   UNL     1     -10.780  14.145  67.594  1.00  0.00    -0.260 C  
BRANCH   5   6
HETATM    6  C   UNL     1     -11.261  13.164  66.530  1.00  0.00    -0.310 C  
BRANCH   6   7
HETATM    7  O   UNL     1     -12.168  12.258  67.162  1.00  0.00    -0.506 OA 
BRANCH   7   8
HETATM    8  C   UNL     1     -11.555  11.215  67.762  1.00  0.00    -0.223 A  
HETATM    9  N   UNL     1     -10.714  10.441  67.079  1.00  0.00    -0.256 NA 
HETATM   10  N   UNL     1     -10.337   9.516  67.994  1.00  0.00    -0.202 NA 
HETATM   11  C   UNL     1     -12.291  10.647  71.445  1.00  0.00    -0.455 A  
HETATM   12  C   UNL     1     -10.890   9.714  69.244  1.00  0.00    -0.205 A  
HETATM   13  C   UNL     1     -10.770   9.022  70.457  1.00  0.00    -0.285 A  
HETATM   14  C   UNL     1     -11.691  10.846  69.114  1.00  0.00    -0.397 A  
HETATM   15  C   UNL     1     -12.405  11.326  70.227  1.00  0.00    -0.389 A  
HETATM   16  C   UNL     1     -11.488   9.512  71.555  1.00  0.00    -0.466 A  
BRANCH  10  17
HETATM   17  C   UNL     1      -9.365   8.498  67.612  1.00  0.00    -0.137 C  
BRANCH  17  18
HETATM   18  C   UNL     1      -8.423   8.974  66.532  1.00  0.00    -0.124 A  
HETATM   19  C   UNL     1      -7.446   9.945  66.802  1.00  0.00    -0.095 A  
HETATM   20  C   UNL     1      -6.679   9.854  64.514  1.00  0.00    -0.124 A  
HETATM   21  C   UNL     1      -7.626   8.870  64.238  1.00  0.00    -0.115 A  
HETATM   22  C   UNL     1      -6.584  10.387  65.797  1.00  0.00    -0.126 A  
HETATM   23  C   UNL     1      -8.491   8.429  65.241  1.00  0.00    -0.189 A  
ENDBRANCH  17  18
ENDBRANCH  10  17
ENDBRANCH   7   8
ENDBRANCH   6   7
ENDBRANCH   5   6
ENDBRANCH   4   5
ENDBRANCH   2   4
TORSDOF 7
ENDMDL
MODEL      146
REMARK 921   NORMALIZED FREE ENERGY PREDICTED BY IDOCK:   -4.70 KCAL/MOL
REMARK 922        TOTAL FREE ENERGY PREDICTED BY IDOCK:   -7.01 KCAL/MOL
REMARK 923 INTER-LIGAND FREE ENERGY PREDICTED BY IDOCK:   -5.85 KCAL/MOL
REMARK 924 INTRA-LIGAND FREE ENERGY PREDICTED BY IDOCK:   -1.16 KCAL/MOL
REMARK 927      BINDING AFFINITY PREDICTED BY RF-SCORE:    0.00 PKD
ROOT
HETATM    1  C   UNL     1      -8.184   8.907  64.478  1.00  0.00    -0.166 C  
HETATM    2  N   UNL     1      -8.341  10.337  64.764  1.00  0.00    -0.169 NA 
HETATM    3  C   UNL     1      -9.697  10.759  64.406  1.00  0.00    -0.301 C  
ENDROOT
BRANCH   2   4
HETATM    4  C   UNL     1      -8.029  10.593  66.182  1.00  0.00    -0.151 C  
BRANCH   4   5
HETATM    5  C   UNL     1      -8.788  11.782  66.777  1.00  0.00    -0.191 C  
BRANCH   5   6
HETATM    6  C   UNL     1      -9.140  11.530  68.239  1.00  0.00    -0.185 C  
BRANCH   6   7
HETATM    7  O   UNL     1     -10.521  11.167  68.290  1.00  0.00    -0.176 OA 
BRANCH   7   8
HETATM    8  C   UNL     1     -10.756  10.042  68.999  1.00  0.00    -0.220 A  
HETATM    9  N   UNL     1     -11.081  10.112  70.289  1.00  0.00    -0.296 NA 
HETATM   10  N   UNL     1     -11.207   8.811  70.644  1.00  0.00    -0.255 NA 
HETATM   11  C   UNL     1     -10.508   6.734  67.150  1.00  0.00    -0.364 A  
HETATM   12  C   UNL     1     -11.008   7.929  69.600  1.00  0.00    -0.110 A  
HETATM   13  C   UNL     1     -11.049   6.530  69.516  1.00  0.00    -0.425 A  
HETATM   14  C   UNL     1     -10.721   8.728  68.495  1.00  0.00    -0.108 A  
HETATM   15  C   UNL     1     -10.466   8.129  67.249  1.00  0.00    -0.379 A  
HETATM   16  C   UNL     1     -10.792   5.949  68.267  1.00  0.00    -0.325 A  
BRANCH  10  17
HETATM   17  C   UNL     1     -11.604   8.485  72.008  1.00  0.00    -0.362 C  
BRANCH  17  18
HETATM   18  C   UNL     1     -10.465   7.917  72.821  1.00  0.00    -0.412 A  
HETATM   19  C   UNL     1     -10.626   6.738  73.566  1.00  0.00    -0.358 A  
HETATM   20  C   UNL     1      -8.339   6.873  74.332  1.00  0.00    -0.173 A  
HETATM   21  C   UNL     1      -8.157   8.030  73.576  1.00  0.00    -0.255 A  
HETATM   22  C   UNL     1      -9.571   6.223  74.321  1.00  0.00    -0.240 A  
HETATM   23  C   UNL     1      -9.211   8.548  72.823  1.00  0.00    -0.230 A  
ENDBRANCH  17  18
ENDBRANCH  10  17
ENDBRANCH   7   8
ENDBRANCH   6   7
ENDBRANCH   5   6
ENDBRANCH   4   5
ENDBRANCH   2   4
TORSDOF 7
ENDMDL
MODEL      147
REMARK 921   NORMALIZED FREE ENERGY PREDICTED BY IDOCK:   -4.68 KCAL/MOL
REMARK 922        TOTAL FREE ENERGY PREDICTED BY IDOCK:   -6.99 KCAL/MOL
REMARK 923 INTER-LIGAND FREE ENERGY PREDICTED BY IDOCK:   -6.01 KCAL/MOL
REMARK 924 INTRA-LIGAND FREE ENERGY PREDICTED BY IDOCK:   -0.98 KCAL/MOL
REMARK 927      BINDING AFFINITY PREDICTED BY RF-SCORE:    0.00 PKD
ROOT
HETATM    1  C   UNL     1      -9.606  17.468  68.840  1.00  0.00    -0.224 C  
HETATM    2  N   UNL     1      -9.352  17.048  67.458  1.00  0.00    -0.231 NA 
HETATM    3  C   UNL     1      -8.094  16.302  67.399  1.00  0.00    -0.155 C  
ENDROOT
BRANCH   2   4
HETATM    4  C   UNL     1     -10.496  16.261  66.964  1.00  0.00    -0.306 C  
BRANCH   4   5
HETATM    5  C   UNL     1     -10.223  15.535  65.644  1.00  0.00    -0.403 C  
BRANCH   5   6
HETATM    6  C   UNL     1     -10.553  14.050  65.759  1.00  0.00    -0.299 C  
BRANCH   6   7
HETATM    7  O   UNL     1     -11.773  13.938  66.494  1.00  0.00    -0.354 OA 
BRANCH   7   8
HETATM    8  C   UNL     1     -11.776  12.919  67.380  1.00  0.00    -0.372 A  
HETATM    9  N   UNL     1     -11.441  11.689  66.995  1.00  0.00    -0.490 NA 
HETATM   10  N   UNL     1     -11.589  10.963  68.129  1.00  0.00    -0.501 NA 
HETATM   11  C   UNL     1     -12.715  13.734  70.969  1.00  0.00    -0.416 A  
HETATM   12  C   UNL     1     -11.970  11.714  69.224  1.00  0.00    -0.317 A  
HETATM   13  C   UNL     1     -12.223  11.383  70.563  1.00  0.00    -0.478 A  
HETATM   14  C   UNL     1     -12.086  13.018  68.750  1.00  0.00    -0.197 A  
HETATM   15  C   UNL     1     -12.464  14.049  69.629  1.00  0.00    -0.204 A  
HETATM   16  C   UNL     1     -12.598  12.421  71.426  1.00  0.00    -0.299 A  
BRANCH  10  17
HETATM   17  C   UNL     1     -11.266   9.541  68.106  1.00  0.00     0.131 C  
BRANCH  17  18
HETATM   18  C   UNL     1     -10.103   9.197  69.006  1.00  0.00    -0.199 A  
HETATM   19  C   UNL     1      -8.830   9.745  68.782  1.00  0.00    -0.129 A  
HETATM   20  C   UNL     1      -7.947   8.549  70.686  1.00  0.00    -0.104 A  
HETATM   21  C   UNL     1      -9.212   8.019  70.936  1.00  0.00    -0.163 A  
HETATM   22  C   UNL     1      -7.758   9.417  69.613  1.00  0.00    -0.098 A  
HETATM   23  C   UNL     1     -10.285   8.343  70.105  1.00  0.00    -0.198 A  
ENDBRANCH  17  18
ENDBRANCH  10  17
ENDBRANCH   7   8
ENDBRANCH   6   7
ENDBRANCH   5   6
ENDBRANCH   4   5
ENDBRANCH   2   4
TORSDOF 7
ENDMDL
MODEL      148
REMARK 921   NORMALIZED FREE ENERGY PREDICTED BY IDOCK:   -4.68 KCAL/MOL
REMARK 922        TOTAL FREE ENERGY PREDICTED BY IDOCK:   -6.98 KCAL/MOL
REMARK 923 INTER-LIGAND FREE ENERGY PREDICTED BY IDOCK:   -6.08 KCAL/MOL
REMARK 924 INTRA-LIGAND FREE ENERGY PREDICTED BY IDOCK:   -0.91 KCAL/MOL
REMARK 927      BINDING AFFINITY PREDICTED BY RF-SCORE:    0.00 PKD
ROOT
HETATM    1  C   UNL     1      -8.727  18.882  68.272  1.00  0.00    -0.333 C  
HETATM    2  N   UNL     1     -10.185  18.730  68.252  1.00  0.00    -0.377 NA 
HETATM    3  C   UNL     1     -10.779  19.821  67.477  1.00  0.00    -0.360 C  
ENDROOT
BRANCH   2   4
HETATM    4  C   UNL     1     -10.536  17.403  67.713  1.00  0.00    -0.376 C  
BRANCH   4   5
HETATM    5  C   UNL     1     -10.471  16.278  68.749  1.00  0.00    -0.282 C  
BRANCH   5   6
HETATM    6  C   UNL     1      -9.491  15.192  68.316  1.00  0.00    -0.201 C  
BRANCH   6   7
HETATM    7  O   UNL     1      -9.519  15.135  66.889  1.00  0.00    -0.219 OA 
BRANCH   7   8
HETATM    8  C   UNL     1      -9.685  13.887  66.403  1.00  0.00    -0.297 A  
HETATM    9  N   UNL     1      -8.954  12.877  66.870  1.00  0.00    -0.220 NA 
HETATM   10  N   UNL     1      -9.383  11.823  66.136  1.00  0.00    -0.225 NA 
HETATM   11  C   UNL     1     -12.339  13.398  63.730  1.00  0.00    -0.418 A  
HETATM   12  C   UNL     1     -10.393  12.138  65.248  1.00  0.00    -0.277 A  
HETATM   13  C   UNL     1     -11.119  11.375  64.323  1.00  0.00    -0.356 A  
HETATM   14  C   UNL     1     -10.617  13.502  65.420  1.00  0.00    -0.313 A  
HETATM   15  C   UNL     1     -11.604  14.148  64.653  1.00  0.00    -0.414 A  
HETATM   16  C   UNL     1     -12.097  12.034  63.567  1.00  0.00    -0.628 A  
BRANCH  10  17
HETATM   17  C   UNL     1      -8.823  10.502  66.399  1.00  0.00    -0.153 C  
BRANCH  17  18
HETATM   18  C   UNL     1      -7.683  10.161  65.469  1.00  0.00    -0.145 A  
HETATM   19  C   UNL     1      -6.348  10.323  65.874  1.00  0.00    -0.107 A  
HETATM   20  C   UNL     1      -5.571   9.527  63.729  1.00  0.00    -0.073 A  
HETATM   21  C   UNL     1      -6.891   9.336  63.325  1.00  0.00    -0.090 A  
HETATM   22  C   UNL     1      -5.300  10.014  65.006  1.00  0.00    -0.070 A  
HETATM   23  C   UNL     1      -7.942   9.648  64.189  1.00  0.00    -0.143 A  
ENDBRANCH  17  18
ENDBRANCH  10  17
ENDBRANCH   7   8
ENDBRANCH   6   7
ENDBRANCH   5   6
ENDBRANCH   4   5
ENDBRANCH   2   4
TORSDOF 7
ENDMDL
MODEL      149
REMARK 921   NORMALIZED FREE ENERGY PREDICTED BY IDOCK:   -4.67 KCAL/MOL
REMARK 922        TOTAL FREE ENERGY PREDICTED BY IDOCK:   -6.97 KCAL/MOL
REMARK 923 INTER-LIGAND FREE ENERGY PREDICTED BY IDOCK:   -5.75 KCAL/MOL
REMARK 924 INTRA-LIGAND FREE ENERGY PREDICTED BY IDOCK:   -1.22 KCAL/MOL
REMARK 927      BINDING AFFINITY PREDICTED BY RF-SCORE:    0.00 PKD
ROOT
HETATM    1  C   UNL     1      -9.126  11.372  65.158  1.00  0.00    -0.045 C  
HETATM    2  N   UNL     1      -9.683  11.634  63.826  1.00  0.00    -0.269 NA 
HETATM    3  C   UNL     1      -8.735  11.187  62.804  1.00  0.00    -0.191 C  
ENDROOT
BRANCH   2   4
HETATM    4  C   UNL     1     -10.996  10.973  63.702  1.00  0.00     0.014 C  
BRANCH   4   5
HETATM    5  C   UNL     1     -12.105  11.893  63.187  1.00  0.00    -0.321 C  
BRANCH   5   6
HETATM    6  C   UNL     1     -11.971  13.294  63.776  1.00  0.00    -0.491 C  
BRANCH   6   7
HETATM    7  O   UNL     1     -12.851  13.373  64.898  1.00  0.00    -0.688 OA 
BRANCH   7   8
HETATM    8  C   UNL     1     -12.244  13.788  66.031  1.00  0.00    -0.457 A  
HETATM    9  N   UNL     1     -12.052  15.086  66.258  1.00  0.00     0.031 NA 
HETATM   10  N   UNL     1     -11.409  15.096  67.450  1.00  0.00    -0.327 NA 
HETATM   11  C   UNL     1     -11.189  11.119  68.518  1.00  0.00    -0.318 A  
HETATM   12  C   UNL     1     -11.228  13.839  67.994  1.00  0.00    -0.267 A  
HETATM   13  C   UNL     1     -10.635  13.395  69.185  1.00  0.00    -0.035 A  
HETATM   14  C   UNL     1     -11.789  12.958  67.073  1.00  0.00    -0.437 A  
HETATM   15  C   UNL     1     -11.773  11.575  67.332  1.00  0.00    -0.231 A  
HETATM   16  C   UNL     1     -10.627  12.015  69.427  1.00  0.00     0.108 A  
BRANCH  10  17
HETATM   17  C   UNL     1     -11.059  16.376  68.054  1.00  0.00    -0.292 C  
BRANCH  17  18
HETATM   18  C   UNL     1      -9.608  16.738  67.844  1.00  0.00    -0.236 A  
HETATM   19  C   UNL     1      -9.093  16.933  66.553  1.00  0.00    -0.302 A  
HETATM   20  C   UNL     1      -6.907  17.408  67.465  1.00  0.00    -0.173 A  
HETATM   21  C   UNL     1      -7.412  17.244  68.754  1.00  0.00    -0.260 A  
HETATM   22  C   UNL     1      -7.748  17.259  66.365  1.00  0.00    -0.347 A  
HETATM   23  C   UNL     1      -8.755  16.915  68.944  1.00  0.00    -0.212 A  
ENDBRANCH  17  18
ENDBRANCH  10  17
ENDBRANCH   7   8
ENDBRANCH   6   7
ENDBRANCH   5   6
ENDBRANCH   4   5
ENDBRANCH   2   4
TORSDOF 7
ENDMDL
MODEL      150
REMARK 921   NORMALIZED FREE ENERGY PREDICTED BY IDOCK:   -4.65 KCAL/MOL
REMARK 922        TOTAL FREE ENERGY PREDICTED BY IDOCK:   -6.95 KCAL/MOL
REMARK 923 INTER-LIGAND FREE ENERGY PREDICTED BY IDOCK:   -6.11 KCAL/MOL
REMARK 924 INTRA-LIGAND FREE ENERGY PREDICTED BY IDOCK:   -0.84 KCAL/MOL
REMARK 927      BINDING AFFINITY PREDICTED BY RF-SCORE:    0.00 PKD
ROOT
HETATM    1  C   UNL     1     -13.733   9.061  72.360  1.00  0.00    -0.479 C  
HETATM    2  N   UNL     1     -12.430   8.460  72.053  1.00  0.00    -0.339 NA 
HETATM    3  C   UNL     1     -12.630   7.228  71.288  1.00  0.00    -0.366 C  
ENDROOT
BRANCH   2   4
HETATM    4  C   UNL     1     -11.593   9.439  71.335  1.00  0.00    -0.381 C  
BRANCH   4   5
HETATM    5  C   UNL     1     -12.330  10.726  70.959  1.00  0.00    -0.509 C  
BRANCH   5   6
HETATM    6  C   UNL     1     -12.129  11.061  69.485  1.00  0.00    -0.329 C  
BRANCH   6   7
HETATM    7  O   UNL     1     -11.957  12.476  69.386  1.00  0.00    -0.298 OA 
BRANCH   7   8
HETATM    8  C   UNL     1     -10.852  12.837  68.699  1.00  0.00    -0.253 A  
HETATM    9  N   UNL     1      -9.870  11.962  68.490  1.00  0.00    -0.204 NA 
HETATM   10  N   UNL     1      -8.954  12.689  67.808  1.00  0.00    -0.179 NA 
HETATM   11  C   UNL     1     -10.716  16.391  67.367  1.00  0.00    -0.278 A  
HETATM   12  C   UNL     1      -9.352  13.986  67.550  1.00  0.00    -0.209 A  
HETATM   13  C   UNL     1      -8.738  15.055  66.883  1.00  0.00    -0.285 A  
HETATM   14  C   UNL     1     -10.617  14.099  68.122  1.00  0.00    -0.249 A  
HETATM   15  C   UNL     1     -11.316  15.317  68.033  1.00  0.00    -0.345 A  
HETATM   16  C   UNL     1      -9.446  16.261  66.804  1.00  0.00    -0.253 A  
BRANCH  10  17
HETATM   17  C   UNL     1      -7.727  12.039  67.360  1.00  0.00    -0.162 C  
BRANCH  17  18
HETATM   18  C   UNL     1      -7.995  10.793  66.550  1.00  0.00    -0.144 A  
HETATM   19  C   UNL     1      -8.851  10.826  65.437  1.00  0.00    -0.202 A  
HETATM   20  C   UNL     1      -8.488   8.469  65.052  1.00  0.00    -0.183 A  
HETATM   21  C   UNL     1      -7.616   8.428  66.138  1.00  0.00    -0.089 A  
HETATM   22  C   UNL     1      -9.100   9.668  64.698  1.00  0.00    -0.286 A  
HETATM   23  C   UNL     1      -7.367   9.583  66.881  1.00  0.00    -0.087 A  
ENDBRANCH  17  18
ENDBRANCH  10  17
ENDBRANCH   7   8
ENDBRANCH   6   7
ENDBRANCH   5   6
ENDBRANCH   4   5
ENDBRANCH   2   4
TORSDOF 7
ENDMDL
MODEL      151
REMARK 921   NORMALIZED FREE ENERGY PREDICTED BY IDOCK:   -4.63 KCAL/MOL
REMARK 922        TOTAL FREE ENERGY PREDICTED BY IDOCK:   -6.91 KCAL/MOL
REMARK 923 INTER-LIGAND FREE ENERGY PREDICTED BY IDOCK:   -6.01 KCAL/MOL
REMARK 924 INTRA-LIGAND FREE ENERGY PREDICTED BY IDOCK:   -0.90 KCAL/MOL
REMARK 927      BINDING AFFINITY PREDICTED BY RF-SCORE:    0.00 PKD
ROOT
HETATM    1  C   UNL     1      -9.786  14.555  68.612  1.00  0.00    -0.221 C  
HETATM    2  N   UNL     1      -9.989  15.645  69.572  1.00  0.00    -0.271 NA 
HETATM    3  C   UNL     1     -10.261  16.888  68.848  1.00  0.00    -0.314 C  
ENDROOT
BRANCH   2   4
HETATM    4  C   UNL     1     -11.075  15.287  70.502  1.00  0.00    -0.306 C  
BRANCH   4   5
HETATM    5  C   UNL     1     -12.180  14.441  69.866  1.00  0.00    -0.394 C  
BRANCH   5   6
HETATM    6  C   UNL     1     -12.194  13.032  70.450  1.00  0.00    -0.310 C  
BRANCH   6   7
HETATM    7  O   UNL     1     -12.643  12.147  69.423  1.00  0.00     0.134 OA 
BRANCH   7   8
HETATM    8  C   UNL     1     -11.645  11.446  68.842  1.00  0.00    -0.323 A  
HETATM    9  N   UNL     1     -10.894  10.615  69.563  1.00  0.00    -0.244 NA 
HETATM   10  N   UNL     1     -10.012  10.134  68.654  1.00  0.00    -0.163 NA 
HETATM   11  C   UNL     1     -11.138  11.911  65.106  1.00  0.00    -0.360 A  
HETATM   12  C   UNL     1     -10.216  10.613  67.375  1.00  0.00    -0.204 A  
HETATM   13  C   UNL     1      -9.561  10.380  66.157  1.00  0.00    -0.245 A  
HETATM   14  C   UNL     1     -11.305  11.475  67.476  1.00  0.00    -0.366 A  
HETATM   15  C   UNL     1     -11.779  12.137  66.329  1.00  0.00    -0.389 A  
HETATM   16  C   UNL     1     -10.045  11.047  65.024  1.00  0.00    -0.354 A  
BRANCH  10  17
HETATM   17  C   UNL     1      -9.031   9.142  69.077  1.00  0.00    -0.143 C  
BRANCH  17  18
HETATM   18  C   UNL     1      -9.669   7.947  69.745  1.00  0.00    -0.176 A  
HETATM   19  C   UNL     1     -10.511   7.082  69.028  1.00  0.00    -0.219 A  
HETATM   20  C   UNL     1     -10.852   5.730  71.000  1.00  0.00    -0.316 A  
HETATM   21  C   UNL     1      -9.997   6.565  71.718  1.00  0.00    -0.192 A  
HETATM   22  C   UNL     1     -11.103   5.984  69.654  1.00  0.00    -0.474 A  
HETATM   23  C   UNL     1      -9.406   7.665  71.095  1.00  0.00    -0.161 A  
ENDBRANCH  17  18
ENDBRANCH  10  17
ENDBRANCH   7   8
ENDBRANCH   6   7
ENDBRANCH   5   6
ENDBRANCH   4   5
ENDBRANCH   2   4
TORSDOF 7
ENDMDL
MODEL      152
REMARK 921   NORMALIZED FREE ENERGY PREDICTED BY IDOCK:   -4.62 KCAL/MOL
REMARK 922        TOTAL FREE ENERGY PREDICTED BY IDOCK:   -6.89 KCAL/MOL
REMARK 923 INTER-LIGAND FREE ENERGY PREDICTED BY IDOCK:   -6.15 KCAL/MOL
REMARK 924 INTRA-LIGAND FREE ENERGY PREDICTED BY IDOCK:   -0.75 KCAL/MOL
REMARK 927      BINDING AFFINITY PREDICTED BY RF-SCORE:    0.00 PKD
ROOT
HETATM    1  C   UNL     1      -6.345   9.108  67.645  1.00  0.00    -0.059 C  
HETATM    2  N   UNL     1      -5.754   9.947  66.597  1.00  0.00    -0.049 NA 
HETATM    3  C   UNL     1      -6.492   9.757  65.347  1.00  0.00    -0.083 C  
ENDROOT
BRANCH   2   4
HETATM    4  C   UNL     1      -5.746  11.354  67.037  1.00  0.00    -0.106 C  
BRANCH   4   5
HETATM    5  C   UNL     1      -6.039  11.537  68.528  1.00  0.00    -0.049 C  
BRANCH   5   6
HETATM    6  C   UNL     1      -7.013  12.689  68.756  1.00  0.00    -0.096 C  
BRANCH   6   7
HETATM    7  O   UNL     1      -7.660  12.956  67.510  1.00  0.00    -0.143 OA 
BRANCH   7   8
HETATM    8  C   UNL     1      -9.007  12.896  67.580  1.00  0.00    -0.193 A  
HETATM    9  N   UNL     1      -9.604  12.190  68.538  1.00  0.00    -0.175 NA 
HETATM   10  N   UNL     1     -10.920  12.351  68.263  1.00  0.00    -0.223 NA 
HETATM   11  C   UNL     1     -10.972  14.860  64.990  1.00  0.00    -0.432 A  
HETATM   12  C   UNL     1     -11.165  13.173  67.180  1.00  0.00    -0.294 A  
HETATM   13  C   UNL     1     -12.347  13.610  66.565  1.00  0.00    -0.412 A  
HETATM   14  C   UNL     1      -9.907  13.557  66.721  1.00  0.00    -0.267 A  
HETATM   15  C   UNL     1      -9.801  14.413  65.610  1.00  0.00    -0.322 A  
HETATM   16  C   UNL     1     -12.224  14.462  65.460  1.00  0.00    -0.352 A  
BRANCH  10  17
HETATM   17  C   UNL     1     -11.908  11.739  69.144  1.00  0.00    -0.326 C  
BRANCH  17  18
HETATM   18  C   UNL     1     -12.360  12.671  70.242  1.00  0.00    -0.269 A  
HETATM   19  C   UNL     1     -12.174  14.059  70.134  1.00  0.00    -0.425 A  
HETATM   20  C   UNL     1     -13.203  14.395  72.294  1.00  0.00    -0.494 A  
HETATM   21  C   UNL     1     -13.418  13.022  72.402  1.00  0.00    -0.615 A  
HETATM   22  C   UNL     1     -12.587  14.913  71.157  1.00  0.00    -0.404 A  
HETATM   23  C   UNL     1     -13.003  12.165  71.382  1.00  0.00    -0.357 A  
ENDBRANCH  17  18
ENDBRANCH  10  17
ENDBRANCH   7   8
ENDBRANCH   6   7
ENDBRANCH   5   6
ENDBRANCH   4   5
ENDBRANCH   2   4
TORSDOF 7
ENDMDL
MODEL      153
REMARK 921   NORMALIZED FREE ENERGY PREDICTED BY IDOCK:   -4.61 KCAL/MOL
REMARK 922        TOTAL FREE ENERGY PREDICTED BY IDOCK:   -6.88 KCAL/MOL
REMARK 923 INTER-LIGAND FREE ENERGY PREDICTED BY IDOCK:   -5.86 KCAL/MOL
REMARK 924 INTRA-LIGAND FREE ENERGY PREDICTED BY IDOCK:   -1.01 KCAL/MOL
REMARK 927      BINDING AFFINITY PREDICTED BY RF-SCORE:    0.00 PKD
ROOT
HETATM    1  C   UNL     1      -8.356   5.171  64.885  1.00  0.00    -0.145 C  
HETATM    2  N   UNL     1      -8.676   5.584  66.255  1.00  0.00    -0.124 NA 
HETATM    3  C   UNL     1      -7.486   5.447  67.097  1.00  0.00    -0.084 C  
ENDROOT
BRANCH   2   4
HETATM    4  C   UNL     1      -9.202   6.962  66.245  1.00  0.00    -0.120 C  
BRANCH   4   5
HETATM    5  C   UNL     1      -8.114   8.038  66.246  1.00  0.00    -0.112 C  
BRANCH   5   6
HETATM    6  C   UNL     1      -8.721   9.430  66.102  1.00  0.00    -0.147 C  
BRANCH   6   7
HETATM    7  O   UNL     1     -10.142   9.283  66.143  1.00  0.00    -0.288 OA 
BRANCH   7   8
HETATM    8  C   UNL     1     -10.762  10.237  66.870  1.00  0.00    -0.184 A  
HETATM    9  N   UNL     1     -11.166  11.368  66.295  1.00  0.00    -0.240 NA 
HETATM   10  N   UNL     1     -11.703  12.061  67.328  1.00  0.00    -0.548 NA 
HETATM   11  C   UNL     1     -11.337   9.519  70.555  1.00  0.00    -0.343 A  
HETATM   12  C   UNL     1     -11.680  11.377  68.528  1.00  0.00    -0.318 A  
HETATM   13  C   UNL     1     -12.124  11.702  69.817  1.00  0.00    -0.357 A  
HETATM   14  C   UNL     1     -11.071  10.157  68.241  1.00  0.00    -0.285 A  
HETATM   15  C   UNL     1     -10.894   9.209  69.265  1.00  0.00    -0.150 A  
HETATM   16  C   UNL     1     -11.940  10.747  70.825  1.00  0.00    -0.464 A  
BRANCH  10  17
HETATM   17  C   UNL     1     -12.299  13.367  67.071  1.00  0.00    -0.177 C  
BRANCH  17  18
HETATM   18  C   UNL     1     -11.390  14.506  67.466  1.00  0.00    -0.355 A  
HETATM   19  C   UNL     1     -11.714  15.349  68.540  1.00  0.00    -0.355 A  
HETATM   20  C   UNL     1      -9.691  16.623  68.190  1.00  0.00    -0.244 A  
HETATM   21  C   UNL     1      -9.344  15.776  67.139  1.00  0.00    -0.224 A  
HETATM   22  C   UNL     1     -10.873  16.405  68.895  1.00  0.00    -0.334 A  
HETATM   23  C   UNL     1     -10.185  14.722  66.780  1.00  0.00    -0.266 A  
ENDBRANCH  17  18
ENDBRANCH  10  17
ENDBRANCH   7   8
ENDBRANCH   6   7
ENDBRANCH   5   6
ENDBRANCH   4   5
ENDBRANCH   2   4
TORSDOF 7
ENDMDL
MODEL      154
REMARK 921   NORMALIZED FREE ENERGY PREDICTED BY IDOCK:   -4.60 KCAL/MOL
REMARK 922        TOTAL FREE ENERGY PREDICTED BY IDOCK:   -6.87 KCAL/MOL
REMARK 923 INTER-LIGAND FREE ENERGY PREDICTED BY IDOCK:   -5.86 KCAL/MOL
REMARK 924 INTRA-LIGAND FREE ENERGY PREDICTED BY IDOCK:   -1.01 KCAL/MOL
REMARK 927      BINDING AFFINITY PREDICTED BY RF-SCORE:    0.00 PKD
ROOT
HETATM    1  C   UNL     1      -8.290  17.245  66.515  1.00  0.00    -0.277 C  
HETATM    2  N   UNL     1      -9.720  17.045  66.771  1.00  0.00    -0.258 NA 
HETATM    3  C   UNL     1     -10.338  16.404  65.608  1.00  0.00    -0.350 C  
ENDROOT
BRANCH   2   4
HETATM    4  C   UNL     1      -9.896  16.258  68.005  1.00  0.00    -0.236 C  
BRANCH   4   5
HETATM    5  C   UNL     1     -11.334  15.794  68.244  1.00  0.00    -0.354 C  
BRANCH   5   6
HETATM    6  C   UNL     1     -11.384  14.683  69.288  1.00  0.00    -0.286 C  
BRANCH   6   7
HETATM    7  O   UNL     1     -12.339  13.718  68.841  1.00  0.00    -0.291 OA 
BRANCH   7   8
HETATM    8  C   UNL     1     -11.796  12.516  68.556  1.00  0.00    -0.295 A  
HETATM    9  N   UNL     1     -11.655  11.595  69.508  1.00  0.00    -0.305 NA 
HETATM   10  N   UNL     1     -11.065  10.566  68.854  1.00  0.00    -0.245 NA 
HETATM   11  C   UNL     1     -10.765  11.879  64.956  1.00  0.00    -0.341 A  
HETATM   12  C   UNL     1     -10.868  10.803  67.508  1.00  0.00    -0.288 A  
HETATM   13  C   UNL     1     -10.314  10.031  66.477  1.00  0.00    -0.268 A  
HETATM   14  C   UNL     1     -11.360  12.088  67.287  1.00  0.00    -0.394 A  
HETATM   15  C   UNL     1     -11.311  12.640  65.995  1.00  0.00    -0.369 A  
HETATM   16  C   UNL     1     -10.273  10.596  65.196  1.00  0.00    -0.368 A  
BRANCH  10  17
HETATM   17  C   UNL     1     -10.783   9.334  69.582  1.00  0.00    -0.230 C  
BRANCH  17  18
HETATM   18  C   UNL     1      -9.327   8.940  69.509  1.00  0.00    -0.155 A  
HETATM   19  C   UNL     1      -8.942   7.690  68.998  1.00  0.00    -0.137 A  
HETATM   20  C   UNL     1      -6.616   8.216  69.380  1.00  0.00    -0.035 A  
HETATM   21  C   UNL     1      -6.982   9.471  69.865  1.00  0.00    -0.078 A  
HETATM   22  C   UNL     1      -7.595   7.329  68.941  1.00  0.00    -0.103 A  
HETATM   23  C   UNL     1      -8.329   9.833  69.926  1.00  0.00    -0.198 A  
ENDBRANCH  17  18
ENDBRANCH  10  17
ENDBRANCH   7   8
ENDBRANCH   6   7
ENDBRANCH   5   6
ENDBRANCH   4   5
ENDBRANCH   2   4
TORSDOF 7
ENDMDL
MODEL      155
REMARK 921   NORMALIZED FREE ENERGY PREDICTED BY IDOCK:   -4.55 KCAL/MOL
REMARK 922        TOTAL FREE ENERGY PREDICTED BY IDOCK:   -6.80 KCAL/MOL
REMARK 923 INTER-LIGAND FREE ENERGY PREDICTED BY IDOCK:   -5.88 KCAL/MOL
REMARK 924 INTRA-LIGAND FREE ENERGY PREDICTED BY IDOCK:   -0.92 KCAL/MOL
REMARK 927      BINDING AFFINITY PREDICTED BY RF-SCORE:    0.00 PKD
ROOT
HETATM    1  C   UNL     1      -9.893  13.760  66.756  1.00  0.00    -0.275 C  
HETATM    2  N   UNL     1     -10.998  12.946  66.240  1.00  0.00    -0.277 NA 
HETATM    3  C   UNL     1     -12.199  13.776  66.117  1.00  0.00    -0.459 C  
ENDROOT
BRANCH   2   4
HETATM    4  C   UNL     1     -10.604  12.334  64.958  1.00  0.00    -0.287 C  
BRANCH   4   5
HETATM    5  C   UNL     1      -9.821  11.028  65.112  1.00  0.00    -0.319 C  
BRANCH   5   6
HETATM    6  C   UNL     1     -10.513  10.087  66.093  1.00  0.00    -0.086 C  
BRANCH   6   7
HETATM    7  O   UNL     1      -9.620   9.002  66.349  1.00  0.00    -0.201 OA 
BRANCH   7   8
HETATM    8  C   UNL     1      -9.573   8.638  67.648  1.00  0.00    -0.155 A  
HETATM    9  N   UNL     1     -10.479   7.799  68.147  1.00  0.00    -0.199 NA 
HETATM   10  N   UNL     1     -10.122   7.703  69.450  1.00  0.00    -0.191 NA 
HETATM   11  C   UNL     1      -6.747  10.054  69.754  1.00  0.00    -0.086 A  
HETATM   12  C   UNL     1      -8.992   8.430  69.772  1.00  0.00    -0.146 A  
HETATM   13  C   UNL     1      -8.283   8.607  70.969  1.00  0.00    -0.179 A  
HETATM   14  C   UNL     1      -8.605   9.047  68.584  1.00  0.00    -0.129 A  
HETATM   15  C   UNL     1      -7.466   9.873  68.568  1.00  0.00    -0.082 A  
HETATM   16  C   UNL     1      -7.152   9.432  70.934  1.00  0.00    -0.098 A  
BRANCH  10  17
HETATM   17  C   UNL     1     -10.879   6.818  70.328  1.00  0.00    -0.270 C  
BRANCH  17  18
HETATM   18  C   UNL     1     -12.049   7.514  70.981  1.00  0.00    -0.305 A  
HETATM   19  C   UNL     1     -13.285   6.864  71.129  1.00  0.00    -0.157 A  
HETATM   20  C   UNL     1     -14.220   8.820  72.194  1.00  0.00    -0.504 A  
HETATM   21  C   UNL     1     -12.991   9.468  72.077  1.00  0.00    -0.514 A  
HETATM   22  C   UNL     1     -14.365   7.516  71.726  1.00  0.00    -0.588 A  
HETATM   23  C   UNL     1     -11.911   8.819  71.478  1.00  0.00    -0.377 A  
ENDBRANCH  17  18
ENDBRANCH  10  17
ENDBRANCH   7   8
ENDBRANCH   6   7
ENDBRANCH   5   6
ENDBRANCH   4   5
ENDBRANCH   2   4
TORSDOF 7
ENDMDL
MODEL      156
REMARK 921   NORMALIZED FREE ENERGY PREDICTED BY IDOCK:   -4.55 KCAL/MOL
REMARK 922        TOTAL FREE ENERGY PREDICTED BY IDOCK:   -6.79 KCAL/MOL
REMARK 923 INTER-LIGAND FREE ENERGY PREDICTED BY IDOCK:   -6.73 KCAL/MOL
REMARK 924 INTRA-LIGAND FREE ENERGY PREDICTED BY IDOCK:   -0.07 KCAL/MOL
REMARK 927      BINDING AFFINITY PREDICTED BY RF-SCORE:    0.00 PKD
ROOT
HETATM    1  C   UNL     1      -5.644  16.689  70.228  1.00  0.00    -0.193 C  
HETATM    2  N   UNL     1      -6.319  17.149  69.010  1.00  0.00    -0.192 NA 
HETATM    3  C   UNL     1      -5.317  17.493  67.999  1.00  0.00    -0.134 C  
ENDROOT
BRANCH   2   4
HETATM    4  C   UNL     1      -7.255  16.110  68.542  1.00  0.00    -0.144 C  
BRANCH   4   5
HETATM    5  C   UNL     1      -7.828  15.243  69.665  1.00  0.00    -0.144 C  
BRANCH   5   6
HETATM    6  C   UNL     1      -9.129  14.576  69.232  1.00  0.00     0.120 C  
BRANCH   6   7
HETATM    7  O   UNL     1     -10.161  15.562  69.309  1.00  0.00    -0.220 OA 
BRANCH   7   8
HETATM    8  C   UNL     1     -10.408  16.176  68.132  1.00  0.00    -0.269 A  
HETATM    9  N   UNL     1     -10.775  15.469  67.065  1.00  0.00    -0.319 NA 
HETATM   10  N   UNL     1     -10.900  16.413  66.101  1.00  0.00    -0.151 NA 
HETATM   11  C   UNL     1     -10.065  19.957  68.036  1.00  0.00    -0.572 A  
HETATM   12  C   UNL     1     -10.658  17.697  66.546  1.00  0.00    -0.207 A  
HETATM   13  C   UNL     1     -10.681  18.946  65.908  1.00  0.00    -0.366 A  
HETATM   14  C   UNL     1     -10.343  17.562  67.897  1.00  0.00    -0.371 A  
HETATM   15  C   UNL     1     -10.041  18.705  68.659  1.00  0.00    -0.412 A  
HETATM   16  C   UNL     1     -10.378  20.073  66.682  1.00  0.00    -0.565 A  
BRANCH  10  17
HETATM   17  C   UNL     1     -11.337  16.010  64.769  1.00  0.00    -0.280 C  
BRANCH  17  18
HETATM   18  C   UNL     1     -11.334  14.511  64.588  1.00  0.00    -0.372 A  
HETATM   19  C   UNL     1     -10.171  13.759  64.816  1.00  0.00    -0.362 A  
HETATM   20  C   UNL     1     -11.340  11.723  64.245  1.00  0.00    -0.400 A  
HETATM   21  C   UNL     1     -12.509  12.455  64.041  1.00  0.00    -0.554 A  
HETATM   22  C   UNL     1     -10.173  12.374  64.638  1.00  0.00    -0.312 A  
HETATM   23  C   UNL     1     -12.508  13.839  64.215  1.00  0.00    -0.308 A  
ENDBRANCH  17  18
ENDBRANCH  10  17
ENDBRANCH   7   8
ENDBRANCH   6   7
ENDBRANCH   5   6
ENDBRANCH   4   5
ENDBRANCH   2   4
TORSDOF 7
ENDMDL
MODEL      157
REMARK 921   NORMALIZED FREE ENERGY PREDICTED BY IDOCK:   -4.52 KCAL/MOL
REMARK 922        TOTAL FREE ENERGY PREDICTED BY IDOCK:   -6.76 KCAL/MOL
REMARK 923 INTER-LIGAND FREE ENERGY PREDICTED BY IDOCK:   -5.74 KCAL/MOL
REMARK 924 INTRA-LIGAND FREE ENERGY PREDICTED BY IDOCK:   -1.02 KCAL/MOL
REMARK 927      BINDING AFFINITY PREDICTED BY RF-SCORE:    0.00 PKD
ROOT
HETATM    1  C   UNL     1      -9.960   6.175  71.069  1.00  0.00    -0.184 C  
HETATM    2  N   UNL     1     -11.236   6.011  71.774  1.00  0.00    -0.277 NA 
HETATM    3  C   UNL     1     -10.981   5.803  73.201  1.00  0.00    -0.271 C  
ENDROOT
BRANCH   2   4
HETATM    4  C   UNL     1     -12.093   7.183  71.522  1.00  0.00    -0.342 C  
BRANCH   4   5
HETATM    5  C   UNL     1     -11.600   8.467  72.193  1.00  0.00    -0.442 C  
BRANCH   5   6
HETATM    6  C   UNL     1     -11.389   9.574  71.166  1.00  0.00    -0.370 C  
BRANCH   6   7
HETATM    7  O   UNL     1      -9.981   9.708  70.963  1.00  0.00    -0.247 OA 
BRANCH   7   8
HETATM    8  C   UNL     1      -9.634   9.847  69.666  1.00  0.00    -0.227 A  
HETATM    9  N   UNL     1     -10.478   9.490  68.699  1.00  0.00    -0.206 NA 
HETATM   10  N   UNL     1      -9.777   9.749  67.570  1.00  0.00    -0.152 NA 
HETATM   11  C   UNL     1      -6.220  11.336  68.925  1.00  0.00    -0.052 A  
HETATM   12  C   UNL     1      -8.530  10.297  67.803  1.00  0.00    -0.114 A  
HETATM   13  C   UNL     1      -7.501  10.717  66.949  1.00  0.00    -0.115 A  
HETATM   14  C   UNL     1      -8.422  10.382  69.189  1.00  0.00    -0.168 A  
HETATM   15  C   UNL     1      -7.252  10.909  69.766  1.00  0.00    -0.061 A  
HETATM   16  C   UNL     1      -6.343  11.238  67.539  1.00  0.00    -0.068 A  
BRANCH  10  17
HETATM   17  C   UNL     1     -10.407   9.515  66.276  1.00  0.00    -0.156 C  
BRANCH  17  18
HETATM   18  C   UNL     1     -10.753  10.799  65.560  1.00  0.00    -0.145 A  
HETATM   19  C   UNL     1     -11.416  11.842  66.226  1.00  0.00    -0.367 A  
HETATM   20  C   UNL     1     -11.391  13.182  64.217  1.00  0.00    -0.427 A  
HETATM   21  C   UNL     1     -10.709  12.166  63.550  1.00  0.00    -0.509 A  
HETATM   22  C   UNL     1     -11.739  13.023  65.556  1.00  0.00    -0.408 A  
HETATM   23  C   UNL     1     -10.387  10.983  64.218  1.00  0.00    -0.430 A  
ENDBRANCH  17  18
ENDBRANCH  10  17
ENDBRANCH   7   8
ENDBRANCH   6   7
ENDBRANCH   5   6
ENDBRANCH   4   5
ENDBRANCH   2   4
TORSDOF 7
ENDMDL
MODEL      158
REMARK 921   NORMALIZED FREE ENERGY PREDICTED BY IDOCK:   -4.50 KCAL/MOL
REMARK 922        TOTAL FREE ENERGY PREDICTED BY IDOCK:   -6.73 KCAL/MOL
REMARK 923 INTER-LIGAND FREE ENERGY PREDICTED BY IDOCK:   -6.01 KCAL/MOL
REMARK 924 INTRA-LIGAND FREE ENERGY PREDICTED BY IDOCK:   -0.73 KCAL/MOL
REMARK 927      BINDING AFFINITY PREDICTED BY RF-SCORE:    0.00 PKD
ROOT
HETATM    1  C   UNL     1     -12.118  14.683  64.481  1.00  0.00    -0.475 C  
HETATM    2  N   UNL     1     -11.570  13.795  65.512  1.00  0.00    -0.318 NA 
HETATM    3  C   UNL     1     -12.154  14.136  66.810  1.00  0.00    -0.442 C  
ENDROOT
BRANCH   2   4
HETATM    4  C   UNL     1     -11.816  12.391  65.136  1.00  0.00    -0.388 C  
BRANCH   4   5
HETATM    5  C   UNL     1     -10.848  11.856  64.078  1.00  0.00    -0.438 C  
BRANCH   5   6
HETATM    6  C   UNL     1     -10.183  10.566  64.548  1.00  0.00    -0.285 C  
BRANCH   6   7
HETATM    7  O   UNL     1      -9.935  10.699  65.949  1.00  0.00    -0.232 OA 
BRANCH   7   8
HETATM    8  C   UNL     1      -9.716   9.521  66.571  1.00  0.00    -0.222 A  
HETATM    9  N   UNL     1     -10.704   8.904  67.217  1.00  0.00    -0.228 NA 
HETATM   10  N   UNL     1     -10.100   7.798  67.715  1.00  0.00    -0.177 NA 
HETATM   11  C   UNL     1      -6.221   8.051  66.338  1.00  0.00    -0.046 A  
HETATM   12  C   UNL     1      -8.769   7.687  67.366  1.00  0.00    -0.124 A  
HETATM   13  C   UNL     1      -7.788   6.725  67.648  1.00  0.00    -0.112 A  
HETATM   14  C   UNL     1      -8.498   8.814  66.594  1.00  0.00    -0.111 A  
HETATM   15  C   UNL     1      -7.207   9.006  66.069  1.00  0.00    -0.093 A  
HETATM   16  C   UNL     1      -6.509   6.931  67.118  1.00  0.00    -0.049 A  
BRANCH  10  17
HETATM   17  C   UNL     1     -10.897   6.836  68.468  1.00  0.00    -0.222 C  
BRANCH  17  18
HETATM   18  C   UNL     1     -10.959   7.163  69.941  1.00  0.00    -0.278 A  
HETATM   19  C   UNL     1     -10.598   8.435  70.414  1.00  0.00    -0.236 A  
HETATM   20  C   UNL     1     -11.076   7.758  72.683  1.00  0.00    -0.433 A  
HETATM   21  C   UNL     1     -11.462   6.500  72.224  1.00  0.00    -0.326 A  
HETATM   22  C   UNL     1     -10.650   8.727  71.778  1.00  0.00    -0.417 A  
HETATM   23  C   UNL     1     -11.408   6.204  70.862  1.00  0.00    -0.355 A  
ENDBRANCH  17  18
ENDBRANCH  10  17
ENDBRANCH   7   8
ENDBRANCH   6   7
ENDBRANCH   5   6
ENDBRANCH   4   5
ENDBRANCH   2   4
TORSDOF 7
ENDMDL
MODEL      159
REMARK 921   NORMALIZED FREE ENERGY PREDICTED BY IDOCK:   -4.49 KCAL/MOL
REMARK 922        TOTAL FREE ENERGY PREDICTED BY IDOCK:   -6.72 KCAL/MOL
REMARK 923 INTER-LIGAND FREE ENERGY PREDICTED BY IDOCK:   -5.88 KCAL/MOL
REMARK 924 INTRA-LIGAND FREE ENERGY PREDICTED BY IDOCK:   -0.84 KCAL/MOL
REMARK 927      BINDING AFFINITY PREDICTED BY RF-SCORE:    0.00 PKD
ROOT
HETATM    1  C   UNL     1      -6.889   3.680  69.436  1.00  0.00    -0.041 C  
HETATM    2  N   UNL     1      -8.216   3.147  69.762  1.00  0.00    -0.047 NA 
HETATM    3  C   UNL     1      -8.154   1.686  69.824  1.00  0.00    -0.041 C  
ENDROOT
BRANCH   2   4
HETATM    4  C   UNL     1      -8.691   3.743  71.024  1.00  0.00    -0.078 C  
BRANCH   4   5
HETATM    5  C   UNL     1      -9.858   4.717  70.848  1.00  0.00    -0.272 C  
BRANCH   5   6
HETATM    6  C   UNL     1      -9.800   5.400  69.485  1.00  0.00    -0.196 C  
BRANCH   6   7
HETATM    7  O   UNL     1     -11.047   6.069  69.288  1.00  0.00    -0.364 OA 
BRANCH   7   8
HETATM    8  C   UNL     1     -11.009   7.381  69.602  1.00  0.00    -0.172 A  
HETATM    9  N   UNL     1     -10.139   8.194  69.005  1.00  0.00    -0.200 NA 
HETATM   10  N   UNL     1     -10.386   9.390  69.591  1.00  0.00    -0.205 NA 
HETATM   11  C   UNL     1     -13.503   8.627  72.181  1.00  0.00    -0.434 A  
HETATM   12  C   UNL     1     -11.415   9.356  70.511  1.00  0.00    -0.262 A  
HETATM   13  C   UNL     1     -11.997  10.339  71.325  1.00  0.00    -0.457 A  
HETATM   14  C   UNL     1     -11.851   8.033  70.523  1.00  0.00    -0.017 A  
HETATM   15  C   UNL     1     -12.911   7.656  71.368  1.00  0.00    -0.354 A  
HETATM   16  C   UNL     1     -13.051   9.946  72.160  1.00  0.00    -0.497 A  
BRANCH  10  17
HETATM   17  C   UNL     1      -9.634  10.561  69.154  1.00  0.00    -0.199 C  
BRANCH  17  18
HETATM   18  C   UNL     1     -10.421  11.432  68.205  1.00  0.00    -0.212 A  
HETATM   19  C   UNL     1     -10.993  12.640  68.638  1.00  0.00    -0.292 A  
HETATM   20  C   UNL     1     -11.885  13.044  66.429  1.00  0.00    -0.465 A  
HETATM   21  C   UNL     1     -11.300  11.861  65.979  1.00  0.00    -0.375 A  
HETATM   22  C   UNL     1     -11.726  13.436  67.756  1.00  0.00    -0.394 A  
HETATM   23  C   UNL     1     -10.569  11.061  66.859  1.00  0.00    -0.307 A  
ENDBRANCH  17  18
ENDBRANCH  10  17
ENDBRANCH   7   8
ENDBRANCH   6   7
ENDBRANCH   5   6
ENDBRANCH   4   5
ENDBRANCH   2   4
TORSDOF 7
ENDMDL
MODEL      160
REMARK 921   NORMALIZED FREE ENERGY PREDICTED BY IDOCK:   -4.49 KCAL/MOL
REMARK 922        TOTAL FREE ENERGY PREDICTED BY IDOCK:   -6.71 KCAL/MOL
REMARK 923 INTER-LIGAND FREE ENERGY PREDICTED BY IDOCK:   -5.77 KCAL/MOL
REMARK 924 INTRA-LIGAND FREE ENERGY PREDICTED BY IDOCK:   -0.94 KCAL/MOL
REMARK 927      BINDING AFFINITY PREDICTED BY RF-SCORE:    0.00 PKD
ROOT
HETATM    1  C   UNL     1     -11.749  15.507  70.857  1.00  0.00    -0.375 C  
HETATM    2  N   UNL     1     -11.289  15.561  69.465  1.00  0.00    -0.288 NA 
HETATM    3  C   UNL     1      -9.831  15.433  69.427  1.00  0.00    -0.273 C  
ENDROOT
BRANCH   2   4
HETATM    4  C   UNL     1     -11.966  14.513  68.680  1.00  0.00    -0.285 C  
BRANCH   4   5
HETATM    5  C   UNL     1     -11.860  14.708  67.166  1.00  0.00    -0.367 C  
BRANCH   5   6
HETATM    6  C   UNL     1     -11.117  13.545  66.516  1.00  0.00    -0.300 C  
BRANCH   6   7
HETATM    7  O   UNL     1     -11.975  12.404  66.572  1.00  0.00    -0.564 OA 
BRANCH   7   8
HETATM    8  C   UNL     1     -11.312  11.240  66.745  1.00  0.00    -0.111 A  
HETATM    9  N   UNL     1     -11.418  10.565  67.889  1.00  0.00    -0.434 NA 
HETATM   10  N   UNL     1     -10.609   9.498  67.690  1.00  0.00    -0.264 NA 
HETATM   11  C   UNL     1      -9.219   9.980  63.837  1.00  0.00    -0.317 A  
HETATM   12  C   UNL     1     -10.029   9.465  66.436  1.00  0.00    -0.276 A  
HETATM   13  C   UNL     1      -9.154   8.563  65.816  1.00  0.00    -0.222 A  
HETATM   14  C   UNL     1     -10.496  10.607  65.789  1.00  0.00    -0.235 A  
HETATM   15  C   UNL     1     -10.089  10.875  64.469  1.00  0.00    -0.404 A  
HETATM   16  C   UNL     1      -8.759   8.844  64.502  1.00  0.00    -0.120 A  
BRANCH  10  17
HETATM   17  C   UNL     1     -10.498   8.490  68.738  1.00  0.00    -0.184 C  
BRANCH  17  18
HETATM   18  C   UNL     1      -9.111   8.425  69.333  1.00  0.00    -0.154 A  
HETATM   19  C   UNL     1      -8.347   7.250  69.260  1.00  0.00    -0.132 A  
HETATM   20  C   UNL     1      -6.535   8.318  70.447  1.00  0.00    -0.036 A  
HETATM   21  C   UNL     1      -7.272   9.500  70.503  1.00  0.00    -0.141 A  
HETATM   22  C   UNL     1      -7.070   7.195  69.819  1.00  0.00    -0.073 A  
HETATM   23  C   UNL     1      -8.550   9.556  69.947  1.00  0.00    -0.217 A  
ENDBRANCH  17  18
ENDBRANCH  10  17
ENDBRANCH   7   8
ENDBRANCH   6   7
ENDBRANCH   5   6
ENDBRANCH   4   5
ENDBRANCH   2   4
TORSDOF 7
ENDMDL
MODEL      161
REMARK 921   NORMALIZED FREE ENERGY PREDICTED BY IDOCK:   -4.49 KCAL/MOL
REMARK 922        TOTAL FREE ENERGY PREDICTED BY IDOCK:   -6.71 KCAL/MOL
REMARK 923 INTER-LIGAND FREE ENERGY PREDICTED BY IDOCK:   -6.59 KCAL/MOL
REMARK 924 INTRA-LIGAND FREE ENERGY PREDICTED BY IDOCK:   -0.12 KCAL/MOL
REMARK 927      BINDING AFFINITY PREDICTED BY RF-SCORE:    0.00 PKD
ROOT
HETATM    1  C   UNL     1      -7.983  14.369  68.285  1.00  0.00    -0.140 C  
HETATM    2  N   UNL     1      -8.868  15.449  67.836  1.00  0.00    -0.167 NA 
HETATM    3  C   UNL     1      -8.913  15.466  66.372  1.00  0.00    -0.316 C  
ENDROOT
BRANCH   2   4
HETATM    4  C   UNL     1     -10.203  15.274  68.437  1.00  0.00    -0.223 C  
BRANCH   4   5
HETATM    5  C   UNL     1     -10.635  13.812  68.569  1.00  0.00    -0.261 C  
BRANCH   5   6
HETATM    6  C   UNL     1     -11.983  13.577  67.894  1.00  0.00    -0.337 C  
BRANCH   6   7
HETATM    7  O   UNL     1     -12.277  12.183  67.999  1.00  0.00    -0.419 OA 
BRANCH   7   8
HETATM    8  C   UNL     1     -11.489  11.407  67.225  1.00  0.00    -0.224 A  
HETATM    9  N   UNL     1     -11.032  10.242  67.681  1.00  0.00    -0.303 NA 
HETATM   10  N   UNL     1     -10.279   9.785  66.651  1.00  0.00    -0.233 NA 
HETATM   11  C   UNL     1     -10.709  12.659  63.725  1.00  0.00    -0.454 A  
HETATM   12  C   UNL     1     -10.285  10.615  65.547  1.00  0.00    -0.262 A  
HETATM   13  C   UNL     1      -9.668  10.532  64.291  1.00  0.00    -0.391 A  
HETATM   14  C   UNL     1     -11.095  11.691  65.904  1.00  0.00    -0.320 A  
HETATM   15  C   UNL     1     -11.315  12.732  64.984  1.00  0.00    -0.344 A  
HETATM   16  C   UNL     1      -9.898  11.577  63.387  1.00  0.00    -0.422 A  
BRANCH  10  17
HETATM   17  C   UNL     1      -9.633   8.483  66.771  1.00  0.00    -0.210 C  
BRANCH  17  18
HETATM   18  C   UNL     1     -10.011   7.764  68.044  1.00  0.00    -0.210 A  
HETATM   19  C   UNL     1     -10.931   6.704  68.028  1.00  0.00    -0.332 A  
HETATM   20  C   UNL     1     -10.709   6.437  70.419  1.00  0.00    -0.317 A  
HETATM   21  C   UNL     1      -9.774   7.470  70.445  1.00  0.00    -0.179 A  
HETATM   22  C   UNL     1     -11.282   6.049  69.210  1.00  0.00    -0.367 A  
HETATM   23  C   UNL     1      -9.424   8.128  69.265  1.00  0.00    -0.159 A  
ENDBRANCH  17  18
ENDBRANCH  10  17
ENDBRANCH   7   8
ENDBRANCH   6   7
ENDBRANCH   5   6
ENDBRANCH   4   5
ENDBRANCH   2   4
TORSDOF 7
ENDMDL
MODEL      162
REMARK 921   NORMALIZED FREE ENERGY PREDICTED BY IDOCK:   -4.49 KCAL/MOL
REMARK 922        TOTAL FREE ENERGY PREDICTED BY IDOCK:   -6.71 KCAL/MOL
REMARK 923 INTER-LIGAND FREE ENERGY PREDICTED BY IDOCK:   -6.06 KCAL/MOL
REMARK 924 INTRA-LIGAND FREE ENERGY PREDICTED BY IDOCK:   -0.65 KCAL/MOL
REMARK 927      BINDING AFFINITY PREDICTED BY RF-SCORE:    0.00 PKD
ROOT
HETATM    1  C   UNL     1     -12.341  16.913  74.173  1.00  0.00    -0.039 C  
HETATM    2  N   UNL     1     -12.402  15.817  73.200  1.00  0.00    -0.431 NA 
HETATM    3  C   UNL     1     -11.980  14.571  73.843  1.00  0.00     0.271 C  
ENDROOT
BRANCH   2   4
HETATM    4  C   UNL     1     -13.764  15.728  72.643  1.00  0.00    -0.542 C  
BRANCH   4   5
HETATM    5  C   UNL     1     -13.800  15.433  71.142  1.00  0.00    -0.452 C  
BRANCH   5   6
HETATM    6  C   UNL     1     -12.406  15.533  70.532  1.00  0.00    -0.418 C  
BRANCH   6   7
HETATM    7  O   UNL     1     -12.512  15.161  69.156  1.00  0.00    -0.102 OA 
BRANCH   7   8
HETATM    8  C   UNL     1     -11.318  15.044  68.536  1.00  0.00    -0.303 A  
HETATM    9  N   UNL     1     -10.750  13.849  68.384  1.00  0.00    -0.249 NA 
HETATM   10  N   UNL     1      -9.585  14.143  67.758  1.00  0.00    -0.214 NA 
HETATM   11  C   UNL     1      -9.722  18.229  67.220  1.00  0.00    -0.301 A  
HETATM   12  C   UNL     1      -9.427  15.486  67.479  1.00  0.00    -0.208 A  
HETATM   13  C   UNL     1      -8.406  16.214  66.851  1.00  0.00    -0.271 A  
HETATM   14  C   UNL     1     -10.574  16.100  67.976  1.00  0.00    -0.304 A  
HETATM   15  C   UNL     1     -10.731  17.492  67.848  1.00  0.00    -0.340 A  
HETATM   16  C   UNL     1      -8.578  17.599  66.732  1.00  0.00    -0.276 A  
BRANCH  10  17
HETATM   17  C   UNL     1      -8.690  13.054  67.381  1.00  0.00    -0.205 C  
BRANCH  17  18
HETATM   18  C   UNL     1      -9.239  12.220  66.249  1.00  0.00    -0.171 A  
HETATM   19  C   UNL     1     -10.078  12.786  65.275  1.00  0.00    -0.263 A  
HETATM   20  C   UNL     1     -10.256  10.658  64.147  1.00  0.00    -0.365 A  
HETATM   21  C   UNL     1      -9.403  10.089  65.092  1.00  0.00    -0.302 A  
HETATM   22  C   UNL     1     -10.588  12.007  64.235  1.00  0.00    -0.377 A  
HETATM   23  C   UNL     1      -8.894  10.865  66.134  1.00  0.00    -0.195 A  
ENDBRANCH  17  18
ENDBRANCH  10  17
ENDBRANCH   7   8
ENDBRANCH   6   7
ENDBRANCH   5   6
ENDBRANCH   4   5
ENDBRANCH   2   4
TORSDOF 7
ENDMDL
MODEL      163
REMARK 921   NORMALIZED FREE ENERGY PREDICTED BY IDOCK:   -4.48 KCAL/MOL
REMARK 922        TOTAL FREE ENERGY PREDICTED BY IDOCK:   -6.70 KCAL/MOL
REMARK 923 INTER-LIGAND FREE ENERGY PREDICTED BY IDOCK:   -6.14 KCAL/MOL
REMARK 924 INTRA-LIGAND FREE ENERGY PREDICTED BY IDOCK:   -0.56 KCAL/MOL
REMARK 927      BINDING AFFINITY PREDICTED BY RF-SCORE:    0.00 PKD
ROOT
HETATM    1  C   UNL     1      -8.731  18.781  67.899  1.00  0.00    -0.296 C  
HETATM    2  N   UNL     1     -10.181  18.774  67.678  1.00  0.00    -0.376 NA 
HETATM    3  C   UNL     1     -10.479  19.386  66.382  1.00  0.00    -0.488 C  
ENDROOT
BRANCH   2   4
HETATM    4  C   UNL     1     -10.688  17.393  67.777  1.00  0.00    -0.332 C  
BRANCH   4   5
HETATM    5  C   UNL     1     -10.342  16.700  69.097  1.00  0.00    -0.326 C  
BRANCH   5   6
HETATM    6  C   UNL     1      -9.142  15.774  68.930  1.00  0.00    -0.225 C  
BRANCH   6   7
HETATM    7  O   UNL     1      -8.903  15.632  67.528  1.00  0.00    -0.175 OA 
BRANCH   7   8
HETATM    8  C   UNL     1      -9.059  14.368  67.081  1.00  0.00    -0.227 A  
HETATM    9  N   UNL     1      -8.182  13.421  67.412  1.00  0.00    -0.181 NA 
HETATM   10  N   UNL     1      -8.655  12.328  66.766  1.00  0.00    -0.180 NA 
HETATM   11  C   UNL     1     -12.099  13.648  64.920  1.00  0.00    -0.426 A  
HETATM   12  C   UNL     1      -9.826  12.556  66.071  1.00  0.00    -0.257 A  
HETATM   13  C   UNL     1     -10.646  11.729  65.289  1.00  0.00    -0.327 A  
HETATM   14  C   UNL     1     -10.118  13.902  66.279  1.00  0.00    -0.306 A  
HETATM   15  C   UNL     1     -11.270  14.463  65.698  1.00  0.00    -0.323 A  
HETATM   16  C   UNL     1     -11.788  12.303  64.719  1.00  0.00    -0.428 A  
BRANCH  10  17
HETATM   17  C   UNL     1      -7.960  11.056  66.927  1.00  0.00    -0.143 C  
BRANCH  17  18
HETATM   18  C   UNL     1      -8.676  10.122  67.874  1.00  0.00    -0.122 A  
HETATM   19  C   UNL     1      -9.171   8.885  67.431  1.00  0.00    -0.157 A  
HETATM   20  C   UNL     1     -10.007   8.395  69.644  1.00  0.00    -0.193 A  
HETATM   21  C   UNL     1      -9.496   9.608  70.103  1.00  0.00    -0.298 A  
HETATM   22  C   UNL     1      -9.839   8.031  68.310  1.00  0.00    -0.190 A  
HETATM   23  C   UNL     1      -8.831  10.465  69.225  1.00  0.00    -0.166 A  
ENDBRANCH  17  18
ENDBRANCH  10  17
ENDBRANCH   7   8
ENDBRANCH   6   7
ENDBRANCH   5   6
ENDBRANCH   4   5
ENDBRANCH   2   4
TORSDOF 7
ENDMDL
MODEL      164
REMARK 921   NORMALIZED FREE ENERGY PREDICTED BY IDOCK:   -4.48 KCAL/MOL
REMARK 922        TOTAL FREE ENERGY PREDICTED BY IDOCK:   -6.70 KCAL/MOL
REMARK 923 INTER-LIGAND FREE ENERGY PREDICTED BY IDOCK:   -6.33 KCAL/MOL
REMARK 924 INTRA-LIGAND FREE ENERGY PREDICTED BY IDOCK:   -0.37 KCAL/MOL
REMARK 927      BINDING AFFINITY PREDICTED BY RF-SCORE:    0.00 PKD
ROOT
HETATM    1  C   UNL     1      -6.996   9.158  68.256  1.00  0.00    -0.076 C  
HETATM    2  N   UNL     1      -7.073   9.355  66.804  1.00  0.00    -0.082 NA 
HETATM    3  C   UNL     1      -7.631   8.155  66.178  1.00  0.00    -0.089 C  
ENDROOT
BRANCH   2   4
HETATM    4  C   UNL     1      -7.868  10.562  66.512  1.00  0.00    -0.134 C  
BRANCH   4   5
HETATM    5  C   UNL     1      -9.370  10.297  66.383  1.00  0.00    -0.201 C  
BRANCH   5   6
HETATM    6  C   UNL     1     -10.179  11.374  67.099  1.00  0.00    -0.202 C  
BRANCH   6   7
HETATM    7  O   UNL     1     -11.472  10.830  67.367  1.00  0.00    -0.467 OA 
BRANCH   7   8
HETATM    8  C   UNL     1     -11.772  10.777  68.683  1.00  0.00    -0.219 A  
HETATM    9  N   UNL     1     -12.534  11.716  69.241  1.00  0.00    -0.122 NA 
HETATM   10  N   UNL     1     -12.583  11.338  70.540  1.00  0.00    -0.274 NA 
HETATM   11  C   UNL     1     -10.405   7.838  70.662  1.00  0.00    -0.202 A  
HETATM   12  C   UNL     1     -11.903  10.165  70.804  1.00  0.00    -0.351 A  
HETATM   13  C   UNL     1     -11.703   9.424  71.977  1.00  0.00    -0.269 A  
HETATM   14  C   UNL     1     -11.369   9.770  69.579  1.00  0.00    -0.127 A  
HETATM   15  C   UNL     1     -10.608   8.589  69.500  1.00  0.00    -0.215 A  
HETATM   16  C   UNL     1     -10.943   8.251  71.880  1.00  0.00    -0.354 A  
BRANCH  10  17
HETATM   17  C   UNL     1     -13.379  12.123  71.476  1.00  0.00    -0.032 C  
BRANCH  17  18
HETATM   18  C   UNL     1     -12.848  13.526  71.653  1.00  0.00    -0.419 A  
HETATM   19  C   UNL     1     -12.211  14.195  70.596  1.00  0.00    -0.432 A  
HETATM   20  C   UNL     1     -11.862  16.133  71.994  1.00  0.00    -0.615 A  
HETATM   21  C   UNL     1     -12.516  15.491  73.044  1.00  0.00    -0.553 A  
HETATM   22  C   UNL     1     -11.715  15.488  70.768  1.00  0.00    -0.397 A  
HETATM   23  C   UNL     1     -13.010  14.197  72.874  1.00  0.00    -0.498 A  
ENDBRANCH  17  18
ENDBRANCH  10  17
ENDBRANCH   7   8
ENDBRANCH   6   7
ENDBRANCH   5   6
ENDBRANCH   4   5
ENDBRANCH   2   4
TORSDOF 7
ENDMDL
MODEL      165
REMARK 921   NORMALIZED FREE ENERGY PREDICTED BY IDOCK:   -4.46 KCAL/MOL
REMARK 922        TOTAL FREE ENERGY PREDICTED BY IDOCK:   -6.68 KCAL/MOL
REMARK 923 INTER-LIGAND FREE ENERGY PREDICTED BY IDOCK:   -5.82 KCAL/MOL
REMARK 924 INTRA-LIGAND FREE ENERGY PREDICTED BY IDOCK:   -0.86 KCAL/MOL
REMARK 927      BINDING AFFINITY PREDICTED BY RF-SCORE:    0.00 PKD
ROOT
HETATM    1  C   UNL     1     -10.807  14.719  68.517  1.00  0.00    -0.252 C  
HETATM    2  N   UNL     1     -11.666  13.547  68.317  1.00  0.00    -0.339 NA 
HETATM    3  C   UNL     1     -11.793  13.275  66.884  1.00  0.00    -0.392 C  
ENDROOT
BRANCH   2   4
HETATM    4  C   UNL     1     -11.115  12.399  69.060  1.00  0.00    -0.235 C  
BRANCH   4   5
HETATM    5  C   UNL     1     -12.152  11.325  69.396  1.00  0.00    -0.384 C  
BRANCH   5   6
HETATM    6  C   UNL     1     -12.020  10.873  70.847  1.00  0.00    -0.311 C  
BRANCH   6   7
HETATM    7  O   UNL     1     -12.100   9.446  70.859  1.00  0.00    -0.289 OA 
BRANCH   7   8
HETATM    8  C   UNL     1     -11.111   8.858  71.567  1.00  0.00    -0.326 A  
HETATM    9  N   UNL     1     -11.388   8.178  72.678  1.00  0.00    -0.393 NA 
HETATM   10  N   UNL     1     -10.166   7.774  73.101  1.00  0.00    -0.327 NA 
HETATM   11  C   UNL     1      -7.575   9.184  70.218  1.00  0.00    -0.108 A  
HETATM   12  C   UNL     1      -9.135   8.150  72.262  1.00  0.00    -0.199 A  
HETATM   13  C   UNL     1      -7.749   7.943  72.307  1.00  0.00    -0.125 A  
HETATM   14  C   UNL     1      -9.744   8.859  71.229  1.00  0.00    -0.359 A  
HETATM   15  C   UNL     1      -8.959   9.387  70.189  1.00  0.00    -0.256 A  
HETATM   16  C   UNL     1      -6.982   8.475  71.263  1.00  0.00    -0.075 A  
BRANCH  10  17
HETATM   17  C   UNL     1     -10.070   6.949  74.300  1.00  0.00    -0.252 C  
BRANCH  17  18
HETATM   18  C   UNL     1      -9.886   5.485  73.981  1.00  0.00    -0.191 A  
HETATM   19  C   UNL     1     -10.984   4.673  73.654  1.00  0.00    -0.392 A  
HETATM   20  C   UNL     1      -9.531   2.761  73.392  1.00  0.00    -0.116 A  
HETATM   21  C   UNL     1      -8.429   3.561  73.689  1.00  0.00    -0.082 A  
HETATM   22  C   UNL     1     -10.808   3.319  73.368  1.00  0.00    -0.307 A  
HETATM   23  C   UNL     1      -8.603   4.915  73.978  1.00  0.00    -0.105 A  
ENDBRANCH  17  18
ENDBRANCH  10  17
ENDBRANCH   7   8
ENDBRANCH   6   7
ENDBRANCH   5   6
ENDBRANCH   4   5
ENDBRANCH   2   4
TORSDOF 7
ENDMDL
MODEL      166
REMARK 921   NORMALIZED FREE ENERGY PREDICTED BY IDOCK:   -4.46 KCAL/MOL
REMARK 922        TOTAL FREE ENERGY PREDICTED BY IDOCK:   -6.68 KCAL/MOL
REMARK 923 INTER-LIGAND FREE ENERGY PREDICTED BY IDOCK:   -5.56 KCAL/MOL
REMARK 924 INTRA-LIGAND FREE ENERGY PREDICTED BY IDOCK:   -1.11 KCAL/MOL
REMARK 927      BINDING AFFINITY PREDICTED BY RF-SCORE:    0.00 PKD
ROOT
HETATM    1  C   UNL     1      -9.633  11.552  66.028  1.00  0.00    -0.228 C  
HETATM    2  N   UNL     1     -10.403  12.723  66.458  1.00  0.00    -0.248 NA 
HETATM    3  C   UNL     1     -11.756  12.648  65.903  1.00  0.00    -0.420 C  
ENDROOT
BRANCH   2   4
HETATM    4  C   UNL     1     -10.404  12.800  67.931  1.00  0.00    -0.226 C  
BRANCH   4   5
HETATM    5  C   UNL     1     -11.802  12.762  68.551  1.00  0.00    -0.345 C  
BRANCH   5   6
HETATM    6  C   UNL     1     -11.964  11.547  69.459  1.00  0.00    -0.335 C  
BRANCH   6   7
HETATM    7  O   UNL     1     -10.702  10.878  69.509  1.00  0.00    -0.234 OA 
BRANCH   7   8
HETATM    8  C   UNL     1     -10.805   9.532  69.493  1.00  0.00    -0.222 A  
HETATM    9  N   UNL     1     -10.708   8.860  68.347  1.00  0.00    -0.133 NA 
HETATM   10  N   UNL     1     -10.885   7.574  68.731  1.00  0.00    -0.085 NA 
HETATM   11  C   UNL     1     -11.314   7.786  72.827  1.00  0.00    -0.446 A  
HETATM   12  C   UNL     1     -11.051   7.418  70.093  1.00  0.00    -0.246 A  
HETATM   13  C   UNL     1     -11.251   6.292  70.905  1.00  0.00    -0.386 A  
HETATM   14  C   UNL     1     -10.987   8.706  70.619  1.00  0.00    -0.274 A  
HETATM   15  C   UNL     1     -11.120   8.901  72.005  1.00  0.00    -0.421 A  
HETATM   16  C   UNL     1     -11.381   6.503  72.283  1.00  0.00    -0.318 A  
BRANCH  10  17
HETATM   17  C   UNL     1     -10.804   6.518  67.727  1.00  0.00    -0.314 C  
BRANCH  17  18
HETATM   18  C   UNL     1      -9.558   5.678  67.871  1.00  0.00    -0.133 A  
HETATM   19  C   UNL     1      -9.635   4.333  68.265  1.00  0.00    -0.197 A  
HETATM   20  C   UNL     1      -7.232   4.127  68.138  1.00  0.00    -0.060 A  
HETATM   21  C   UNL     1      -7.142   5.453  67.720  1.00  0.00    -0.067 A  
HETATM   22  C   UNL     1      -8.478   3.565  68.404  1.00  0.00    -0.107 A  
HETATM   23  C   UNL     1      -8.298   6.224  67.583  1.00  0.00    -0.117 A  
ENDBRANCH  17  18
ENDBRANCH  10  17
ENDBRANCH   7   8
ENDBRANCH   6   7
ENDBRANCH   5   6
ENDBRANCH   4   5
ENDBRANCH   2   4
TORSDOF 7
ENDMDL
MODEL      167
REMARK 921   NORMALIZED FREE ENERGY PREDICTED BY IDOCK:   -4.43 KCAL/MOL
REMARK 922        TOTAL FREE ENERGY PREDICTED BY IDOCK:   -6.63 KCAL/MOL
REMARK 923 INTER-LIGAND FREE ENERGY PREDICTED BY IDOCK:   -5.79 KCAL/MOL
REMARK 924 INTRA-LIGAND FREE ENERGY PREDICTED BY IDOCK:   -0.83 KCAL/MOL
REMARK 927      BINDING AFFINITY PREDICTED BY RF-SCORE:    0.00 PKD
ROOT
HETATM    1  C   UNL     1      -8.634   6.644  71.737  1.00  0.00    -0.126 C  
HETATM    2  N   UNL     1      -9.920   6.006  71.440  1.00  0.00    -0.183 NA 
HETATM    3  C   UNL     1     -10.126   4.877  72.349  1.00  0.00    -0.187 C  
ENDROOT
BRANCH   2   4
HETATM    4  C   UNL     1     -11.000   7.006  71.531  1.00  0.00    -0.234 C  
BRANCH   4   5
HETATM    5  C   UNL     1     -10.550   8.351  72.105  1.00  0.00    -0.400 C  
BRANCH   5   6
HETATM    6  C   UNL     1     -11.093   9.509  71.274  1.00  0.00    -0.379 C  
BRANCH   6   7
HETATM    7  O   UNL     1     -11.411   8.995  69.980  1.00  0.00    -0.184 OA 
BRANCH   7   8
HETATM    8  C   UNL     1     -10.804   9.659  68.973  1.00  0.00    -0.183 A  
HETATM    9  N   UNL     1     -10.862  10.988  68.908  1.00  0.00    -0.202 NA 
HETATM   10  N   UNL     1     -10.175  11.270  67.776  1.00  0.00    -0.177 NA 
HETATM   11  C   UNL     1      -8.904   7.589  66.417  1.00  0.00    -0.178 A  
HETATM   12  C   UNL     1      -9.653  10.154  67.150  1.00  0.00    -0.169 A  
HETATM   13  C   UNL     1      -8.888   9.986  65.987  1.00  0.00    -0.164 A  
HETATM   14  C   UNL     1     -10.048   9.076  67.938  1.00  0.00    -0.246 A  
HETATM   15  C   UNL     1      -9.672   7.771  67.572  1.00  0.00    -0.201 A  
HETATM   16  C   UNL     1      -8.521   8.681  65.638  1.00  0.00    -0.171 A  
BRANCH  10  17
HETATM   17  C   UNL     1      -9.989  12.664  67.389  1.00  0.00    -0.204 C  
BRANCH  17  18
HETATM   18  C   UNL     1     -10.837  13.052  66.201  1.00  0.00    -0.296 A  
HETATM   19  C   UNL     1     -12.079  13.684  66.376  1.00  0.00    -0.478 A  
HETATM   20  C   UNL     1     -12.407  13.767  63.984  1.00  0.00    -0.370 A  
HETATM   21  C   UNL     1     -11.164  13.164  63.795  1.00  0.00    -0.316 A  
HETATM   22  C   UNL     1     -12.861  14.033  65.274  1.00  0.00    -0.418 A  
HETATM   23  C   UNL     1     -10.382  12.812  64.896  1.00  0.00    -0.330 A  
ENDBRANCH  17  18
ENDBRANCH  10  17
ENDBRANCH   7   8
ENDBRANCH   6   7
ENDBRANCH   5   6
ENDBRANCH   4   5
ENDBRANCH   2   4
TORSDOF 7
ENDMDL
MODEL      168
REMARK 921   NORMALIZED FREE ENERGY PREDICTED BY IDOCK:   -4.42 KCAL/MOL
REMARK 922        TOTAL FREE ENERGY PREDICTED BY IDOCK:   -6.62 KCAL/MOL
REMARK 923 INTER-LIGAND FREE ENERGY PREDICTED BY IDOCK:   -5.93 KCAL/MOL
REMARK 924 INTRA-LIGAND FREE ENERGY PREDICTED BY IDOCK:   -0.69 KCAL/MOL
REMARK 927      BINDING AFFINITY PREDICTED BY RF-SCORE:    0.00 PKD
ROOT
HETATM    1  C   UNL     1      -7.519  16.515  66.789  1.00  0.00    -0.246 C  
HETATM    2  N   UNL     1      -7.303  16.234  68.212  1.00  0.00    -0.141 NA 
HETATM    3  C   UNL     1      -6.958  17.475  68.908  1.00  0.00    -0.252 C  
ENDROOT
BRANCH   2   4
HETATM    4  C   UNL     1      -8.503  15.588  68.775  1.00  0.00    -0.190 C  
BRANCH   4   5
HETATM    5  C   UNL     1      -9.639  15.408  67.766  1.00  0.00    -0.210 C  
BRANCH   5   6
HETATM    6  C   UNL     1     -10.774  14.583  68.363  1.00  0.00    -0.243 C  
BRANCH   6   7
HETATM    7  O   UNL     1     -11.203  13.658  67.362  1.00  0.00    -0.284 OA 
BRANCH   7   8
HETATM    8  C   UNL     1     -11.240  12.378  67.792  1.00  0.00    -0.275 A  
HETATM    9  N   UNL     1     -11.805  12.074  68.960  1.00  0.00    -0.320 NA 
HETATM   10  N   UNL     1     -11.624  10.734  69.047  1.00  0.00    -0.297 NA 
HETATM   11  C   UNL     1      -9.739   9.732  65.519  1.00  0.00    -0.382 A  
HETATM   12  C   UNL     1     -10.997  10.185  67.946  1.00  0.00    -0.277 A  
HETATM   13  C   UNL     1     -10.628   8.873  67.617  1.00  0.00    -0.292 A  
HETATM   14  C   UNL     1     -10.746  11.260  67.095  1.00  0.00    -0.297 A  
HETATM   15  C   UNL     1     -10.108  11.037  65.861  1.00  0.00    -0.301 A  
HETATM   16  C   UNL     1      -9.993   8.669  66.385  1.00  0.00    -0.331 A  
BRANCH  10  17
HETATM   17  C   UNL     1     -12.159  10.022  70.202  1.00  0.00    -0.091 C  
BRANCH  17  18
HETATM   18  C   UNL     1     -11.157   9.067  70.806  1.00  0.00    -0.328 A  
HETATM   19  C   UNL     1     -11.468   7.708  70.978  1.00  0.00    -0.294 A  
HETATM   20  C   UNL     1      -9.287   7.300  71.933  1.00  0.00    -0.152 A  
HETATM   21  C   UNL     1      -8.956   8.641  71.743  1.00  0.00    -0.307 A  
HETATM   22  C   UNL     1     -10.540   6.833  71.545  1.00  0.00    -0.245 A  
HETATM   23  C   UNL     1      -9.882   9.519  71.180  1.00  0.00    -0.177 A  
ENDBRANCH  17  18
ENDBRANCH  10  17
ENDBRANCH   7   8
ENDBRANCH   6   7
ENDBRANCH   5   6
ENDBRANCH   4   5
ENDBRANCH   2   4
TORSDOF 7
ENDMDL
MODEL      169
REMARK 921   NORMALIZED FREE ENERGY PREDICTED BY IDOCK:   -4.42 KCAL/MOL
REMARK 922        TOTAL FREE ENERGY PREDICTED BY IDOCK:   -6.62 KCAL/MOL
REMARK 923 INTER-LIGAND FREE ENERGY PREDICTED BY IDOCK:   -5.53 KCAL/MOL
REMARK 924 INTRA-LIGAND FREE ENERGY PREDICTED BY IDOCK:   -1.09 KCAL/MOL
REMARK 927      BINDING AFFINITY PREDICTED BY RF-SCORE:    0.00 PKD
ROOT
HETATM    1  C   UNL     1     -11.662   6.489  72.249  1.00  0.00    -0.281 C  
HETATM    2  N   UNL     1     -11.034   5.799  71.117  1.00  0.00    -0.253 NA 
HETATM    3  C   UNL     1     -11.451   6.435  69.866  1.00  0.00    -0.415 C  
ENDROOT
BRANCH   2   4
HETATM    4  C   UNL     1      -9.569   5.803  71.288  1.00  0.00    -0.166 C  
BRANCH   4   5
HETATM    5  C   UNL     1      -9.043   6.999  72.085  1.00  0.00    -0.141 C  
BRANCH   5   6
HETATM    6  C   UNL     1      -7.937   7.720  71.321  1.00  0.00    -0.094 C  
BRANCH   6   7
HETATM    7  O   UNL     1      -8.245   9.115  71.337  1.00  0.00    -0.316 OA 
BRANCH   7   8
HETATM    8  C   UNL     1      -8.657   9.589  70.141  1.00  0.00    -0.224 A  
HETATM    9  N   UNL     1      -9.957   9.691  69.867  1.00  0.00    -0.225 NA 
HETATM   10  N   UNL     1      -9.965  10.167  68.599  1.00  0.00    -0.163 NA 
HETATM   11  C   UNL     1      -5.976  10.654  67.671  1.00  0.00    -0.044 A  
HETATM   12  C   UNL     1      -8.704  10.404  68.086  1.00  0.00    -0.125 A  
HETATM   13  C   UNL     1      -8.256  10.893  66.850  1.00  0.00    -0.135 A  
HETATM   14  C   UNL     1      -7.823  10.039  69.101  1.00  0.00    -0.112 A  
HETATM   15  C   UNL     1      -6.436  10.164  68.898  1.00  0.00    -0.048 A  
HETATM   16  C   UNL     1      -6.873  11.010  66.665  1.00  0.00    -0.137 A  
BRANCH  10  17
HETATM   17  C   UNL     1     -11.244  10.450  67.957  1.00  0.00    -0.272 C  
BRANCH  17  18
HETATM   18  C   UNL     1     -11.466  11.927  67.738  1.00  0.00    -0.389 A  
HETATM   19  C   UNL     1     -11.694  12.440  66.451  1.00  0.00    -0.453 A  
HETATM   20  C   UNL     1     -11.877  14.678  67.343  1.00  0.00    -0.374 A  
HETATM   21  C   UNL     1     -11.679  14.179  68.629  1.00  0.00    -0.385 A  
HETATM   22  C   UNL     1     -11.891  13.808  66.255  1.00  0.00    -0.426 A  
HETATM   23  C   UNL     1     -11.479  12.812  68.827  1.00  0.00    -0.347 A  
ENDBRANCH  17  18
ENDBRANCH  10  17
ENDBRANCH   7   8
ENDBRANCH   6   7
ENDBRANCH   5   6
ENDBRANCH   4   5
ENDBRANCH   2   4
TORSDOF 7
ENDMDL
MODEL      170
REMARK 921   NORMALIZED FREE ENERGY PREDICTED BY IDOCK:   -4.42 KCAL/MOL
REMARK 922        TOTAL FREE ENERGY PREDICTED BY IDOCK:   -6.61 KCAL/MOL
REMARK 923 INTER-LIGAND FREE ENERGY PREDICTED BY IDOCK:   -5.80 KCAL/MOL
REMARK 924 INTRA-LIGAND FREE ENERGY PREDICTED BY IDOCK:   -0.82 KCAL/MOL
REMARK 927      BINDING AFFINITY PREDICTED BY RF-SCORE:    0.00 PKD
ROOT
HETATM    1  C   UNL     1      -9.329   6.279  73.857  1.00  0.00    -0.140 C  
HETATM    2  N   UNL     1     -10.151   6.555  72.674  1.00  0.00    -0.172 NA 
HETATM    3  C   UNL     1     -11.351   5.716  72.707  1.00  0.00    -0.299 C  
ENDROOT
BRANCH   2   4
HETATM    4  C   UNL     1     -10.472   7.993  72.620  1.00  0.00    -0.339 C  
BRANCH   4   5
HETATM    5  C   UNL     1     -11.960   8.302  72.805  1.00  0.00    -0.243 C  
BRANCH   5   6
HETATM    6  C   UNL     1     -12.501   9.107  71.628  1.00  0.00    -0.359 C  
BRANCH   6   7
HETATM    7  O   UNL     1     -11.609  10.201  71.411  1.00  0.00    -0.348 OA 
BRANCH   7   8
HETATM    8  C   UNL     1     -11.481  10.542  70.111  1.00  0.00    -0.325 A  
HETATM    9  N   UNL     1     -11.120   9.633  69.207  1.00  0.00    -0.170 NA 
HETATM   10  N   UNL     1     -11.077  10.347  68.056  1.00  0.00    -0.298 NA 
HETATM   11  C   UNL     1     -12.248  14.141  69.170  1.00  0.00    -0.290 A  
HETATM   12  C   UNL     1     -11.440  11.670  68.209  1.00  0.00    -0.303 A  
HETATM   13  C   UNL     1     -11.543  12.739  67.307  1.00  0.00    -0.420 A  
HETATM   14  C   UNL     1     -11.726  11.816  69.565  1.00  0.00    -0.408 A  
HETATM   15  C   UNL     1     -12.137  13.067  70.060  1.00  0.00    -0.367 A  
HETATM   16  C   UNL     1     -11.953  13.978  67.817  1.00  0.00    -0.392 A  
BRANCH  10  17
HETATM   17  C   UNL     1     -10.747   9.663  66.811  1.00  0.00    -0.078 C  
BRANCH  17  18
HETATM   18  C   UNL     1      -9.286   9.785  66.453  1.00  0.00    -0.200 A  
HETATM   19  C   UNL     1      -8.339  10.188  67.409  1.00  0.00    -0.118 A  
HETATM   20  C   UNL     1      -6.569  10.012  65.774  1.00  0.00    -0.101 A  
HETATM   21  C   UNL     1      -7.494   9.585  64.823  1.00  0.00    -0.112 A  
HETATM   22  C   UNL     1      -6.991  10.307  67.069  1.00  0.00    -0.089 A  
HETATM   23  C   UNL     1      -8.843   9.469  65.160  1.00  0.00    -0.223 A  
ENDBRANCH  17  18
ENDBRANCH  10  17
ENDBRANCH   7   8
ENDBRANCH   6   7
ENDBRANCH   5   6
ENDBRANCH   4   5
ENDBRANCH   2   4
TORSDOF 7
ENDMDL
MODEL      171
REMARK 921   NORMALIZED FREE ENERGY PREDICTED BY IDOCK:   -4.41 KCAL/MOL
REMARK 922        TOTAL FREE ENERGY PREDICTED BY IDOCK:   -6.60 KCAL/MOL
REMARK 923 INTER-LIGAND FREE ENERGY PREDICTED BY IDOCK:   -5.69 KCAL/MOL
REMARK 924 INTRA-LIGAND FREE ENERGY PREDICTED BY IDOCK:   -0.92 KCAL/MOL
REMARK 927      BINDING AFFINITY PREDICTED BY RF-SCORE:    0.00 PKD
ROOT
HETATM    1  C   UNL     1     -10.854  15.909  67.979  1.00  0.00    -0.317 C  
HETATM    2  N   UNL     1     -11.140  15.091  66.796  1.00  0.00    -0.328 NA 
HETATM    3  C   UNL     1     -10.651  15.777  65.599  1.00  0.00    -0.377 C  
ENDROOT
BRANCH   2   4
HETATM    4  C   UNL     1     -10.538  13.755  66.963  1.00  0.00    -0.278 C  
BRANCH   4   5
HETATM    5  C   UNL     1     -11.528  12.603  66.778  1.00  0.00    -0.410 C  
BRANCH   5   6
HETATM    6  C   UNL     1     -11.899  11.980  68.120  1.00  0.00    -0.286 C  
BRANCH   6   7
HETATM    7  O   UNL     1     -11.597  10.586  68.043  1.00  0.00    -0.442 OA 
BRANCH   7   8
HETATM    8  C   UNL     1     -10.703  10.177  68.968  1.00  0.00    -0.221 A  
HETATM    9  N   UNL     1     -11.114   9.602  70.098  1.00  0.00    -0.256 NA 
HETATM   10  N   UNL     1      -9.956   9.365  70.759  1.00  0.00    -0.284 NA 
HETATM   11  C   UNL     1      -7.023  10.680  68.176  1.00  0.00    -0.073 A  
HETATM   12  C   UNL     1      -8.828   9.740  70.057  1.00  0.00    -0.215 A  
HETATM   13  C   UNL     1      -7.458   9.671  70.349  1.00  0.00    -0.168 A  
HETATM   14  C   UNL     1      -9.303  10.268  68.858  1.00  0.00    -0.180 A  
HETATM   15  C   UNL     1      -8.392  10.748  67.899  1.00  0.00    -0.117 A  
HETATM   16  C   UNL     1      -6.566  10.152  69.384  1.00  0.00    -0.054 A  
BRANCH  10  17
HETATM   17  C   UNL     1     -10.006   8.693  72.052  1.00  0.00    -0.329 C  
BRANCH  17  18
HETATM   18  C   UNL     1     -10.050   7.189  71.921  1.00  0.00    -0.197 A  
HETATM   19  C   UNL     1      -9.273   6.525  70.958  1.00  0.00    -0.161 A  
HETATM   20  C   UNL     1     -10.144   4.392  71.684  1.00  0.00    -0.230 A  
HETATM   21  C   UNL     1     -10.901   5.036  72.662  1.00  0.00    -0.286 A  
HETATM   22  C   UNL     1      -9.326   5.135  70.837  1.00  0.00    -0.199 A  
HETATM   23  C   UNL     1     -10.852   6.425  72.783  1.00  0.00    -0.278 A  
ENDBRANCH  17  18
ENDBRANCH  10  17
ENDBRANCH   7   8
ENDBRANCH   6   7
ENDBRANCH   5   6
ENDBRANCH   4   5
ENDBRANCH   2   4
TORSDOF 7
ENDMDL
MODEL      172
REMARK 921   NORMALIZED FREE ENERGY PREDICTED BY IDOCK:   -4.41 KCAL/MOL
REMARK 922        TOTAL FREE ENERGY PREDICTED BY IDOCK:   -6.60 KCAL/MOL
REMARK 923 INTER-LIGAND FREE ENERGY PREDICTED BY IDOCK:   -5.92 KCAL/MOL
REMARK 924 INTRA-LIGAND FREE ENERGY PREDICTED BY IDOCK:   -0.68 KCAL/MOL
REMARK 927      BINDING AFFINITY PREDICTED BY RF-SCORE:    0.00 PKD
ROOT
HETATM    1  C   UNL     1      -8.675  14.500  66.975  1.00  0.00    -0.234 C  
HETATM    2  N   UNL     1      -9.502  15.706  66.853  1.00  0.00    -0.222 NA 
HETATM    3  C   UNL     1     -10.189  15.697  65.560  1.00  0.00    -0.385 C  
ENDROOT
BRANCH   2   4
HETATM    4  C   UNL     1     -10.441  15.777  67.987  1.00  0.00    -0.270 C  
BRANCH   4   5
HETATM    5  C   UNL     1     -10.733  14.420  68.634  1.00  0.00    -0.258 C  
BRANCH   5   6
HETATM    6  C   UNL     1     -12.112  13.908  68.232  1.00  0.00    -0.287 C  
BRANCH   6   7
HETATM    7  O   UNL     1     -12.069  12.481  68.282  1.00  0.00    -0.284 OA 
BRANCH   7   8
HETATM    8  C   UNL     1     -11.339  11.929  67.289  1.00  0.00    -0.329 A  
HETATM    9  N   UNL     1     -10.316  11.123  67.569  1.00  0.00    -0.189 NA 
HETATM   10  N   UNL     1      -9.834  10.804  66.344  1.00  0.00    -0.201 NA 
HETATM   11  C   UNL     1     -12.368  12.728  63.721  1.00  0.00    -0.533 A  
HETATM   12  C   UNL     1     -10.552  11.357  65.302  1.00  0.00    -0.277 A  
HETATM   13  C   UNL     1     -10.416  11.285  63.909  1.00  0.00    -0.452 A  
HETATM   14  C   UNL     1     -11.565  12.097  65.909  1.00  0.00    -0.425 A  
HETATM   15  C   UNL     1     -12.491  12.795  65.113  1.00  0.00    -0.565 A  
HETATM   16  C   UNL     1     -11.345  11.986  63.131  1.00  0.00    -0.255 A  
BRANCH  10  17
HETATM   17  C   UNL     1      -8.707   9.883  66.246  1.00  0.00    -0.139 C  
BRANCH  17  18
HETATM   18  C   UNL     1      -8.341   9.273  67.578  1.00  0.00    -0.119 A  
HETATM   19  C   UNL     1      -7.497   9.948  68.474  1.00  0.00    -0.082 A  
HETATM   20  C   UNL     1      -7.665   8.127  70.052  1.00  0.00    -0.086 A  
HETATM   21  C   UNL     1      -8.526   7.458  69.184  1.00  0.00    -0.133 A  
HETATM   22  C   UNL     1      -7.156   9.374  69.700  1.00  0.00    -0.064 A  
HETATM   23  C   UNL     1      -8.866   8.028  67.956  1.00  0.00    -0.128 A  
ENDBRANCH  17  18
ENDBRANCH  10  17
ENDBRANCH   7   8
ENDBRANCH   6   7
ENDBRANCH   5   6
ENDBRANCH   4   5
ENDBRANCH   2   4
TORSDOF 7
ENDMDL
MODEL      173
REMARK 921   NORMALIZED FREE ENERGY PREDICTED BY IDOCK:   -4.40 KCAL/MOL
REMARK 922        TOTAL FREE ENERGY PREDICTED BY IDOCK:   -6.59 KCAL/MOL
REMARK 923 INTER-LIGAND FREE ENERGY PREDICTED BY IDOCK:   -5.59 KCAL/MOL
REMARK 924 INTRA-LIGAND FREE ENERGY PREDICTED BY IDOCK:   -1.00 KCAL/MOL
REMARK 927      BINDING AFFINITY PREDICTED BY RF-SCORE:    0.00 PKD
ROOT
HETATM    1  C   UNL     1      -5.538  12.660  67.749  1.00  0.00    -0.122 C  
HETATM    2  N   UNL     1      -6.378  11.460  67.660  1.00  0.00    -0.058 NA 
HETATM    3  C   UNL     1      -5.642  10.310  68.189  1.00  0.00    -0.037 C  
ENDROOT
BRANCH   2   4
HETATM    4  C   UNL     1      -7.647  11.692  68.373  1.00  0.00    -0.126 C  
BRANCH   4   5
HETATM    5  C   UNL     1      -8.702  10.612  68.124  1.00  0.00    -0.130 C  
BRANCH   5   6
HETATM    6  C   UNL     1      -9.702  10.550  69.274  1.00  0.00    -0.196 C  
BRANCH   6   7
HETATM    7  O   UNL     1     -11.007  10.721  68.716  1.00  0.00    -0.211 OA 
BRANCH   7   8
HETATM    8  C   UNL     1     -11.239  11.971  68.263  1.00  0.00    -0.261 A  
HETATM    9  N   UNL     1     -11.392  12.982  69.116  1.00  0.00    -0.273 NA 
HETATM   10  N   UNL     1     -11.627  14.038  68.301  1.00  0.00    -0.309 NA 
HETATM   11  C   UNL     1     -11.366  12.462  64.499  1.00  0.00    -0.381 A  
HETATM   12  C   UNL     1     -11.584  13.722  66.957  1.00  0.00    -0.365 A  
HETATM   13  C   UNL     1     -11.756  14.487  65.794  1.00  0.00    -0.344 A  
HETATM   14  C   UNL     1     -11.314  12.356  66.911  1.00  0.00    -0.392 A  
HETATM   15  C   UNL     1     -11.201  11.710  65.666  1.00  0.00    -0.275 A  
HETATM   16  C   UNL     1     -11.641  13.828  64.564  1.00  0.00    -0.413 A  
BRANCH  10  17
HETATM   17  C   UNL     1     -11.810  15.359  68.890  1.00  0.00    -0.329 C  
BRANCH  17  18
HETATM   18  C   UNL     1     -10.613  16.256  68.681  1.00  0.00    -0.297 A  
HETATM   19  C   UNL     1     -10.648  17.301  67.745  1.00  0.00    -0.367 A  
HETATM   20  C   UNL     1      -8.379  17.915  68.301  1.00  0.00    -0.286 A  
HETATM   21  C   UNL     1      -8.339  16.898  69.253  1.00  0.00     0.070 A  
HETATM   22  C   UNL     1      -9.534  18.121  67.552  1.00  0.00    -0.262 A  
HETATM   23  C   UNL     1      -9.450  16.075  69.446  1.00  0.00    -0.226 A  
ENDBRANCH  17  18
ENDBRANCH  10  17
ENDBRANCH   7   8
ENDBRANCH   6   7
ENDBRANCH   5   6
ENDBRANCH   4   5
ENDBRANCH   2   4
TORSDOF 7
ENDMDL
MODEL      174
REMARK 921   NORMALIZED FREE ENERGY PREDICTED BY IDOCK:   -4.39 KCAL/MOL
REMARK 922        TOTAL FREE ENERGY PREDICTED BY IDOCK:   -6.57 KCAL/MOL
REMARK 923 INTER-LIGAND FREE ENERGY PREDICTED BY IDOCK:   -5.58 KCAL/MOL
REMARK 924 INTRA-LIGAND FREE ENERGY PREDICTED BY IDOCK:   -0.99 KCAL/MOL
REMARK 927      BINDING AFFINITY PREDICTED BY RF-SCORE:    0.00 PKD
ROOT
HETATM    1  C   UNL     1     -12.750  15.327  70.501  1.00  0.00    -0.390 C  
HETATM    2  N   UNL     1     -11.868  15.571  69.355  1.00  0.00    -0.364 NA 
HETATM    3  C   UNL     1     -10.526  15.908  69.835  1.00  0.00    -0.310 C  
ENDROOT
BRANCH   2   4
HETATM    4  C   UNL     1     -11.868  14.390  68.471  1.00  0.00    -0.334 C  
BRANCH   4   5
HETATM    5  C   UNL     1     -10.851  13.318  68.871  1.00  0.00    -0.245 C  
BRANCH   5   6
HETATM    6  C   UNL     1     -11.502  11.940  68.924  1.00  0.00    -0.301 C  
BRANCH   6   7
HETATM    7  O   UNL     1     -11.037  11.292  70.110  1.00  0.00    -0.159 OA 
BRANCH   7   8
HETATM    8  C   UNL     1     -10.559  10.049  69.892  1.00  0.00    -0.282 A  
HETATM    9  N   UNL     1     -11.382   9.002  69.871  1.00  0.00    -0.082 NA 
HETATM   10  N   UNL     1     -10.545   7.959  69.657  1.00  0.00    -0.237 NA 
HETATM   11  C   UNL     1      -6.825   9.700  69.289  1.00  0.00    -0.050 A  
HETATM   12  C   UNL     1      -9.224   8.329  69.503  1.00  0.00    -0.158 A  
HETATM   13  C   UNL     1      -8.052   7.597  69.261  1.00  0.00    -0.128 A  
HETATM   14  C   UNL     1      -9.214   9.715  69.642  1.00  0.00    -0.225 A  
HETATM   15  C   UNL     1      -8.000  10.418  69.534  1.00  0.00    -0.152 A  
HETATM   16  C   UNL     1      -6.853   8.312  69.157  1.00  0.00    -0.051 A  
BRANCH  10  17
HETATM   17  C   UNL     1     -11.104   6.618  69.532  1.00  0.00    -0.322 C  
BRANCH  17  18
HETATM   18  C   UNL     1     -10.866   5.775  70.762  1.00  0.00    -0.330 A  
HETATM   19  C   UNL     1      -9.954   4.708  70.742  1.00  0.00    -0.284 A  
HETATM   20  C   UNL     1     -10.435   4.214  73.057  1.00  0.00    -0.247 A  
HETATM   21  C   UNL     1     -11.324   5.287  73.099  1.00  0.00    -0.358 A  
HETATM   22  C   UNL     1      -9.746   3.929  71.881  1.00  0.00    -0.239 A  
HETATM   23  C   UNL     1     -11.536   6.066  71.961  1.00  0.00    -0.333 A  
ENDBRANCH  17  18
ENDBRANCH  10  17
ENDBRANCH   7   8
ENDBRANCH   6   7
ENDBRANCH   5   6
ENDBRANCH   4   5
ENDBRANCH   2   4
TORSDOF 7
ENDMDL
MODEL      175
REMARK 921   NORMALIZED FREE ENERGY PREDICTED BY IDOCK:   -4.37 KCAL/MOL
REMARK 922        TOTAL FREE ENERGY PREDICTED BY IDOCK:   -6.55 KCAL/MOL
REMARK 923 INTER-LIGAND FREE ENERGY PREDICTED BY IDOCK:   -5.51 KCAL/MOL
REMARK 924 INTRA-LIGAND FREE ENERGY PREDICTED BY IDOCK:   -1.03 KCAL/MOL
REMARK 927      BINDING AFFINITY PREDICTED BY RF-SCORE:    0.00 PKD
ROOT
HETATM    1  C   UNL     1     -10.665   5.335  72.770  1.00  0.00    -0.243 C  
HETATM    2  N   UNL     1     -11.304   6.652  72.871  1.00  0.00    -0.189 NA 
HETATM    3  C   UNL     1     -10.321   7.636  73.328  1.00  0.00    -0.345 C  
ENDROOT
BRANCH   2   4
HETATM    4  C   UNL     1     -11.899   7.013  71.572  1.00  0.00    -0.314 C  
BRANCH   4   5
HETATM    5  C   UNL     1     -11.348   6.206  70.394  1.00  0.00    -0.399 C  
BRANCH   5   6
HETATM    6  C   UNL     1     -10.677   7.119  69.373  1.00  0.00    -0.231 C  
BRANCH   6   7
HETATM    7  O   UNL     1     -10.686   8.443  69.910  1.00  0.00    -0.232 OA 
BRANCH   7   8
HETATM    8  C   UNL     1     -10.508   9.403  68.979  1.00  0.00    -0.217 A  
HETATM    9  N   UNL     1     -11.539  10.128  68.549  1.00  0.00    -0.103 NA 
HETATM   10  N   UNL     1     -10.977  10.944  67.626  1.00  0.00    -0.272 NA 
HETATM   11  C   UNL     1      -6.971   9.966  67.712  1.00  0.00    -0.085 A  
HETATM   12  C   UNL     1      -9.612  10.776  67.493  1.00  0.00    -0.158 A  
HETATM   13  C   UNL     1      -8.651  11.398  66.684  1.00  0.00    -0.170 A  
HETATM   14  C   UNL     1      -9.279   9.767  68.394  1.00  0.00    -0.130 A  
HETATM   15  C   UNL     1      -7.941   9.351  68.511  1.00  0.00    -0.093 A  
HETATM   16  C   UNL     1      -7.323  10.972  66.812  1.00  0.00    -0.139 A  
BRANCH  10  17
HETATM   17  C   UNL     1     -11.812  11.931  66.951  1.00  0.00    -0.096 C  
BRANCH  17  18
HETATM   18  C   UNL     1     -11.605  13.327  67.489  1.00  0.00    -0.388 A  
HETATM   19  C   UNL     1     -11.014  14.325  66.697  1.00  0.00    -0.310 A  
HETATM   20  C   UNL     1     -11.222  15.919  68.500  1.00  0.00    -0.362 A  
HETATM   21  C   UNL     1     -11.835  14.946  69.287  1.00  0.00    -0.350 A  
HETATM   22  C   UNL     1     -10.818  15.611  67.203  1.00  0.00    -0.297 A  
HETATM   23  C   UNL     1     -12.029  13.658  68.785  1.00  0.00    -0.394 A  
ENDBRANCH  17  18
ENDBRANCH  10  17
ENDBRANCH   7   8
ENDBRANCH   6   7
ENDBRANCH   5   6
ENDBRANCH   4   5
ENDBRANCH   2   4
TORSDOF 7
ENDMDL
MODEL      176
REMARK 921   NORMALIZED FREE ENERGY PREDICTED BY IDOCK:   -4.36 KCAL/MOL
REMARK 922        TOTAL FREE ENERGY PREDICTED BY IDOCK:   -6.54 KCAL/MOL
REMARK 923 INTER-LIGAND FREE ENERGY PREDICTED BY IDOCK:   -5.70 KCAL/MOL
REMARK 924 INTRA-LIGAND FREE ENERGY PREDICTED BY IDOCK:   -0.84 KCAL/MOL
REMARK 927      BINDING AFFINITY PREDICTED BY RF-SCORE:    0.00 PKD
ROOT
HETATM    1  C   UNL     1     -10.525  17.207  67.317  1.00  0.00    -0.313 C  
HETATM    2  N   UNL     1     -10.474  16.006  66.476  1.00  0.00    -0.302 NA 
HETATM    3  C   UNL     1      -9.079  15.681  66.173  1.00  0.00    -0.342 C  
ENDROOT
BRANCH   2   4
HETATM    4  C   UNL     1     -11.174  14.899  67.155  1.00  0.00    -0.343 C  
BRANCH   4   5
HETATM    5  C   UNL     1     -12.115  14.110  66.241  1.00  0.00    -0.463 C  
BRANCH   5   6
HETATM    6  C   UNL     1     -11.904  12.608  66.405  1.00  0.00    -0.402 C  
BRANCH   6   7
HETATM    7  O   UNL     1     -10.576  12.312  65.971  1.00  0.00    -0.243 OA 
BRANCH   7   8
HETATM    8  C   UNL     1     -10.230  11.018  66.140  1.00  0.00    -0.247 A  
HETATM    9  N   UNL     1     -10.721  10.315  67.160  1.00  0.00    -0.257 NA 
HETATM   10  N   UNL     1     -10.135   9.104  67.006  1.00  0.00    -0.227 NA 
HETATM   11  C   UNL     1      -7.881   9.493  63.575  1.00  0.00    -0.134 A  
HETATM   12  C   UNL     1      -9.321   9.017  65.894  1.00  0.00    -0.242 A  
HETATM   13  C   UNL     1      -8.547   7.977  65.360  1.00  0.00    -0.138 A  
HETATM   14  C   UNL     1      -9.382  10.275  65.298  1.00  0.00    -0.267 A  
HETATM   15  C   UNL     1      -8.654  10.524  64.120  1.00  0.00    -0.153 A  
HETATM   16  C   UNL     1      -7.828   8.242  64.188  1.00  0.00    -0.145 A  
BRANCH  10  17
HETATM   17  C   UNL     1     -10.470   8.033  67.938  1.00  0.00    -0.197 C  
BRANCH  17  18
HETATM   18  C   UNL     1      -9.802   8.205  69.281  1.00  0.00    -0.182 A  
HETATM   19  C   UNL     1     -10.462   8.850  70.339  1.00  0.00    -0.245 A  
HETATM   20  C   UNL     1      -8.547   8.523  71.774  1.00  0.00    -0.254 A  
HETATM   21  C   UNL     1      -7.890   7.857  70.740  1.00  0.00    -0.091 A  
HETATM   22  C   UNL     1      -9.835   9.013  71.575  1.00  0.00    -0.381 A  
HETATM   23  C   UNL     1      -8.513   7.695  69.502  1.00  0.00    -0.132 A  
ENDBRANCH  17  18
ENDBRANCH  10  17
ENDBRANCH   7   8
ENDBRANCH   6   7
ENDBRANCH   5   6
ENDBRANCH   4   5
ENDBRANCH   2   4
TORSDOF 7
ENDMDL
MODEL      177
REMARK 921   NORMALIZED FREE ENERGY PREDICTED BY IDOCK:   -4.36 KCAL/MOL
REMARK 922        TOTAL FREE ENERGY PREDICTED BY IDOCK:   -6.53 KCAL/MOL
REMARK 923 INTER-LIGAND FREE ENERGY PREDICTED BY IDOCK:   -5.37 KCAL/MOL
REMARK 924 INTRA-LIGAND FREE ENERGY PREDICTED BY IDOCK:   -1.17 KCAL/MOL
REMARK 927      BINDING AFFINITY PREDICTED BY RF-SCORE:    0.00 PKD
ROOT
HETATM    1  C   UNL     1      -8.515  14.484  67.805  1.00  0.00    -0.174 C  
HETATM    2  N   UNL     1      -9.354  15.527  67.206  1.00  0.00    -0.209 NA 
HETATM    3  C   UNL     1      -9.667  15.166  65.822  1.00  0.00    -0.344 C  
ENDROOT
BRANCH   2   4
HETATM    4  C   UNL     1     -10.565  15.718  68.025  1.00  0.00    -0.279 C  
BRANCH   4   5
HETATM    5  C   UNL     1     -11.143  14.416  68.585  1.00  0.00    -0.269 C  
BRANCH   5   6
HETATM    6  C   UNL     1     -12.250  13.878  67.684  1.00  0.00    -0.197 C  
BRANCH   6   7
HETATM    7  O   UNL     1     -12.245  12.454  67.803  1.00  0.00    -0.395 OA 
BRANCH   7   8
HETATM    8  C   UNL     1     -11.247  11.861  67.113  1.00  0.00    -0.319 A  
HETATM    9  N   UNL     1     -10.285  11.198  67.753  1.00  0.00    -0.176 NA 
HETATM   10  N   UNL     1      -9.480  10.781  66.747  1.00  0.00    -0.171 NA 
HETATM   11  C   UNL     1     -11.355  12.118  63.325  1.00  0.00    -0.410 A  
HETATM   12  C   UNL     1      -9.934  11.131  65.490  1.00  0.00    -0.249 A  
HETATM   13  C   UNL     1      -9.433  10.905  64.200  1.00  0.00    -0.295 A  
HETATM   14  C   UNL     1     -11.114  11.837  65.712  1.00  0.00    -0.351 A  
HETATM   15  C   UNL     1     -11.841  12.341  64.618  1.00  0.00    -0.435 A  
HETATM   16  C   UNL     1     -10.168  11.413  63.122  1.00  0.00    -0.380 A  
BRANCH  10  17
HETATM   17  C   UNL     1      -8.311   9.969  67.066  1.00  0.00    -0.121 C  
BRANCH  17  18
HETATM   18  C   UNL     1      -7.199  10.778  67.691  1.00  0.00    -0.092 A  
HETATM   19  C   UNL     1      -6.986  10.760  69.079  1.00  0.00    -0.085 A  
HETATM   20  C   UNL     1      -5.129  12.288  68.842  1.00  0.00    -0.055 A  
HETATM   21  C   UNL     1      -5.313  12.293  67.461  1.00  0.00    -0.113 A  
HETATM   22  C   UNL     1      -5.961  11.516  69.650  1.00  0.00    -0.102 A  
HETATM   23  C   UNL     1      -6.339  11.541  66.887  1.00  0.00    -0.146 A  
ENDBRANCH  17  18
ENDBRANCH  10  17
ENDBRANCH   7   8
ENDBRANCH   6   7
ENDBRANCH   5   6
ENDBRANCH   4   5
ENDBRANCH   2   4
TORSDOF 7
ENDMDL
MODEL      178
REMARK 921   NORMALIZED FREE ENERGY PREDICTED BY IDOCK:   -4.35 KCAL/MOL
REMARK 922        TOTAL FREE ENERGY PREDICTED BY IDOCK:   -6.52 KCAL/MOL
REMARK 923 INTER-LIGAND FREE ENERGY PREDICTED BY IDOCK:   -5.55 KCAL/MOL
REMARK 924 INTRA-LIGAND FREE ENERGY PREDICTED BY IDOCK:   -0.97 KCAL/MOL
REMARK 927      BINDING AFFINITY PREDICTED BY RF-SCORE:    0.00 PKD
ROOT
HETATM    1  C   UNL     1     -10.524  12.973  64.681  1.00  0.00    -0.380 C  
HETATM    2  N   UNL     1     -10.914  14.387  64.708  1.00  0.00    -0.401 NA 
HETATM    3  C   UNL     1     -12.256  14.533  64.140  1.00  0.00    -0.342 C  
ENDROOT
BRANCH   2   4
HETATM    4  C   UNL     1     -10.830  14.896  66.089  1.00  0.00    -0.327 C  
BRANCH   4   5
HETATM    5  C   UNL     1     -11.834  14.252  67.048  1.00  0.00    -0.455 C  
BRANCH   5   6
HETATM    6  C   UNL     1     -11.140  13.746  68.308  1.00  0.00    -0.255 C  
BRANCH   6   7
HETATM    7  O   UNL     1      -9.799  13.406  67.950  1.00  0.00    -0.222 OA 
BRANCH   7   8
HETATM    8  C   UNL     1      -9.482  12.119  68.209  1.00  0.00    -0.204 A  
HETATM    9  N   UNL     1     -10.403  11.162  68.101  1.00  0.00    -0.181 NA 
HETATM   10  N   UNL     1      -9.725  10.045  68.458  1.00  0.00    -0.152 NA 
HETATM   11  C   UNL     1      -5.887  11.372  69.179  1.00  0.00    -0.047 A  
HETATM   12  C   UNL     1      -8.393  10.271  68.747  1.00  0.00    -0.125 A  
HETATM   13  C   UNL     1      -7.348   9.423  69.140  1.00  0.00    -0.071 A  
HETATM   14  C   UNL     1      -8.209  11.641  68.574  1.00  0.00    -0.144 A  
HETATM   15  C   UNL     1      -6.940  12.207  68.791  1.00  0.00    -0.101 A  
HETATM   16  C   UNL     1      -6.091  10.003  69.353  1.00  0.00    -0.041 A  
BRANCH  10  17
HETATM   17  C   UNL     1     -10.412   8.759  68.422  1.00  0.00    -0.176 C  
BRANCH  17  18
HETATM   18  C   UNL     1     -10.719   8.230  69.803  1.00  0.00    -0.221 A  
HETATM   19  C   UNL     1     -11.041   9.101  70.856  1.00  0.00    -0.356 A  
HETATM   20  C   UNL     1     -11.285   7.233  72.367  1.00  0.00    -0.321 A  
HETATM   21  C   UNL     1     -10.994   6.354  71.325  1.00  0.00    -0.321 A  
HETATM   22  C   UNL     1     -11.316   8.605  72.131  1.00  0.00    -0.434 A  
HETATM   23  C   UNL     1     -10.716   6.848  70.049  1.00  0.00    -0.276 A  
ENDBRANCH  17  18
ENDBRANCH  10  17
ENDBRANCH   7   8
ENDBRANCH   6   7
ENDBRANCH   5   6
ENDBRANCH   4   5
ENDBRANCH   2   4
TORSDOF 7
ENDMDL
MODEL      179
REMARK 921   NORMALIZED FREE ENERGY PREDICTED BY IDOCK:   -4.34 KCAL/MOL
REMARK 922        TOTAL FREE ENERGY PREDICTED BY IDOCK:   -6.50 KCAL/MOL
REMARK 923 INTER-LIGAND FREE ENERGY PREDICTED BY IDOCK:   -5.33 KCAL/MOL
REMARK 924 INTRA-LIGAND FREE ENERGY PREDICTED BY IDOCK:   -1.17 KCAL/MOL
REMARK 927      BINDING AFFINITY PREDICTED BY RF-SCORE:    0.00 PKD
ROOT
HETATM    1  C   UNL     1      -7.023   4.622  65.983  1.00  0.00    -0.066 C  
HETATM    2  N   UNL     1      -7.508   4.929  64.634  1.00  0.00    -0.070 NA 
HETATM    3  C   UNL     1      -8.839   4.347  64.450  1.00  0.00    -0.149 C  
ENDROOT
BRANCH   2   4
HETATM    4  C   UNL     1      -7.500   6.389  64.427  1.00  0.00    -0.090 C  
BRANCH   4   5
HETATM    5  C   UNL     1      -7.383   7.196  65.722  1.00  0.00    -0.075 C  
BRANCH   5   6
HETATM    6  C   UNL     1      -8.691   7.913  66.040  1.00  0.00    -0.158 C  
BRANCH   6   7
HETATM    7  O   UNL     1      -9.560   6.962  66.659  1.00  0.00    -0.169 OA 
BRANCH   7   8
HETATM    8  C   UNL     1      -9.552   7.024  68.008  1.00  0.00    -0.128 A  
HETATM    9  N   UNL     1      -9.535   8.201  68.630  1.00  0.00    -0.147 NA 
HETATM   10  N   UNL     1      -9.506   7.855  69.940  1.00  0.00    -0.160 NA 
HETATM   11  C   UNL     1      -9.643   3.733  69.902  1.00  0.00    -0.255 A  
HETATM   12  C   UNL     1      -9.545   6.491  70.154  1.00  0.00    -0.160 A  
HETATM   13  C   UNL     1      -9.542   5.711  71.320  1.00  0.00    -0.198 A  
HETATM   14  C   UNL     1      -9.590   5.922  68.883  1.00  0.00    -0.158 A  
HETATM   15  C   UNL     1      -9.640   4.523  68.748  1.00  0.00    -0.227 A  
HETATM   16  C   UNL     1      -9.592   4.320  71.167  1.00  0.00    -0.249 A  
BRANCH  10  17
HETATM   17  C   UNL     1      -9.520   8.906  70.950  1.00  0.00    -0.236 C  
BRANCH  17  18
HETATM   18  C   UNL     1     -10.919   9.356  71.297  1.00  0.00    -0.440 A  
HETATM   19  C   UNL     1     -11.503  10.460  70.654  1.00  0.00    -0.438 A  
HETATM   20  C   UNL     1     -13.522  10.185  71.951  1.00  0.00    -0.426 A  
HETATM   21  C   UNL     1     -12.965   9.072  72.578  1.00  0.00    -0.429 A  
HETATM   22  C   UNL     1     -12.794  10.875  70.985  1.00  0.00    -0.472 A  
HETATM   23  C   UNL     1     -11.673   8.656  72.251  1.00  0.00    -0.428 A  
ENDBRANCH  17  18
ENDBRANCH  10  17
ENDBRANCH   7   8
ENDBRANCH   6   7
ENDBRANCH   5   6
ENDBRANCH   4   5
ENDBRANCH   2   4
TORSDOF 7
ENDMDL
MODEL      180
REMARK 921   NORMALIZED FREE ENERGY PREDICTED BY IDOCK:   -4.32 KCAL/MOL
REMARK 922        TOTAL FREE ENERGY PREDICTED BY IDOCK:   -6.47 KCAL/MOL
REMARK 923 INTER-LIGAND FREE ENERGY PREDICTED BY IDOCK:   -5.76 KCAL/MOL
REMARK 924 INTRA-LIGAND FREE ENERGY PREDICTED BY IDOCK:   -0.71 KCAL/MOL
REMARK 927      BINDING AFFINITY PREDICTED BY RF-SCORE:    0.00 PKD
ROOT
HETATM    1  C   UNL     1      -7.481   5.680  68.539  1.00  0.00    -0.080 C  
HETATM    2  N   UNL     1      -8.486   5.879  67.489  1.00  0.00    -0.105 NA 
HETATM    3  C   UNL     1      -9.579   4.922  67.672  1.00  0.00    -0.151 C  
ENDROOT
BRANCH   2   4
HETATM    4  C   UNL     1      -8.953   7.277  67.511  1.00  0.00    -0.122 C  
BRANCH   4   5
HETATM    5  C   UNL     1     -10.105   7.560  66.544  1.00  0.00    -0.194 C  
BRANCH   5   6
HETATM    6  C   UNL     1     -10.395   9.055  66.461  1.00  0.00    -0.193 C  
BRANCH   6   7
HETATM    7  O   UNL     1     -10.958   9.451  67.713  1.00  0.00    -0.219 OA 
BRANCH   7   8
HETATM    8  C   UNL     1     -10.794  10.763  67.986  1.00  0.00    -0.255 A  
HETATM    9  N   UNL     1     -11.850  11.563  68.119  1.00  0.00    -0.573 NA 
HETATM   10  N   UNL     1     -11.290  12.774  68.355  1.00  0.00    -0.272 NA 
HETATM   11  C   UNL     1      -7.235  12.022  68.408  1.00  0.00    -0.092 A  
HETATM   12  C   UNL     1      -9.910  12.745  68.413  1.00  0.00    -0.196 A  
HETATM   13  C   UNL     1      -8.946  13.739  68.638  1.00  0.00    -0.050 A  
HETATM   14  C   UNL     1      -9.562  11.416  68.184  1.00  0.00    -0.190 A  
HETATM   15  C   UNL     1      -8.206  11.041  68.180  1.00  0.00    -0.124 A  
HETATM   16  C   UNL     1      -7.601  13.349  68.631  1.00  0.00    -0.101 A  
BRANCH  10  17
HETATM   17  C   UNL     1     -12.157  13.920  68.597  1.00  0.00    -0.302 C  
BRANCH  17  18
HETATM   18  C   UNL     1     -12.463  14.115  70.063  1.00  0.00    -0.352 A  
HETATM   19  C   UNL     1     -12.840  13.032  70.873  1.00  0.00    -0.222 A  
HETATM   20  C   UNL     1     -13.030  14.492  72.788  1.00  0.00    -0.563 A  
HETATM   21  C   UNL     1     -12.631  15.571  72.002  1.00  0.00    -0.481 A  
HETATM   22  C   UNL     1     -13.128  13.221  72.225  1.00  0.00    -0.474 A  
HETATM   23  C   UNL     1     -12.345  15.385  70.649  1.00  0.00    -0.451 A  
ENDBRANCH  17  18
ENDBRANCH  10  17
ENDBRANCH   7   8
ENDBRANCH   6   7
ENDBRANCH   5   6
ENDBRANCH   4   5
ENDBRANCH   2   4
TORSDOF 7
ENDMDL
MODEL      181
REMARK 921   NORMALIZED FREE ENERGY PREDICTED BY IDOCK:   -4.31 KCAL/MOL
REMARK 922        TOTAL FREE ENERGY PREDICTED BY IDOCK:   -6.47 KCAL/MOL
REMARK 923 INTER-LIGAND FREE ENERGY PREDICTED BY IDOCK:   -5.38 KCAL/MOL
REMARK 924 INTRA-LIGAND FREE ENERGY PREDICTED BY IDOCK:   -1.09 KCAL/MOL
REMARK 927      BINDING AFFINITY PREDICTED BY RF-SCORE:    0.00 PKD
ROOT
HETATM    1  C   UNL     1     -10.627  13.722  64.358  1.00  0.00    -0.295 C  
HETATM    2  N   UNL     1     -12.025  13.355  64.107  1.00  0.00    -0.430 NA 
HETATM    3  C   UNL     1     -12.075  12.057  63.431  1.00  0.00    -0.493 C  
ENDROOT
BRANCH   2   4
HETATM    4  C   UNL     1     -12.771  13.354  65.379  1.00  0.00    -0.426 C  
BRANCH   4   5
HETATM    5  C   UNL     1     -11.930  13.769  66.589  1.00  0.00    -0.469 C  
BRANCH   5   6
HETATM    6  C   UNL     1     -12.093  12.775  67.735  1.00  0.00    -0.133 C  
BRANCH   6   7
HETATM    7  O   UNL     1     -11.568  11.522  67.292  1.00  0.00    -0.506 OA 
BRANCH   7   8
HETATM    8  C   UNL     1     -10.225  11.433  67.401  1.00  0.00    -0.193 A  
HETATM    9  N   UNL     1      -9.579  12.098  68.358  1.00  0.00    -0.207 NA 
HETATM   10  N   UNL     1      -8.282  11.783  68.127  1.00  0.00    -0.146 NA 
HETATM   11  C   UNL     1      -8.422   9.185  64.927  1.00  0.00    -0.191 A  
HETATM   12  C   UNL     1      -8.102  10.906  67.075  1.00  0.00    -0.131 A  
HETATM   13  C   UNL     1      -6.960  10.321  66.509  1.00  0.00    -0.107 A  
HETATM   14  C   UNL     1      -9.382  10.651  66.589  1.00  0.00    -0.189 A  
HETATM   15  C   UNL     1      -9.553   9.778  65.499  1.00  0.00    -0.348 A  
HETATM   16  C   UNL     1      -7.148   9.455  65.424  1.00  0.00    -0.091 A  
BRANCH  10  17
HETATM   17  C   UNL     1      -7.256  12.308  69.021  1.00  0.00    -0.023 C  
BRANCH  17  18
HETATM   18  C   UNL     1      -7.019  13.786  68.823  1.00  0.00    -0.109 A  
HETATM   19  C   UNL     1      -7.154  14.376  67.556  1.00  0.00    -0.197 A  
HETATM   20  C   UNL     1      -6.572  16.536  68.467  1.00  0.00    -0.139 A  
HETATM   21  C   UNL     1      -6.462  15.969  69.736  1.00  0.00    -0.164 A  
HETATM   22  C   UNL     1      -6.925  15.741  67.379  1.00  0.00    -0.235 A  
HETATM   23  C   UNL     1      -6.687  14.603  69.915  1.00  0.00    -0.157 A  
ENDBRANCH  17  18
ENDBRANCH  10  17
ENDBRANCH   7   8
ENDBRANCH   6   7
ENDBRANCH   5   6
ENDBRANCH   4   5
ENDBRANCH   2   4
TORSDOF 7
ENDMDL
MODEL      182
REMARK 921   NORMALIZED FREE ENERGY PREDICTED BY IDOCK:   -4.31 KCAL/MOL
REMARK 922        TOTAL FREE ENERGY PREDICTED BY IDOCK:   -6.46 KCAL/MOL
REMARK 923 INTER-LIGAND FREE ENERGY PREDICTED BY IDOCK:   -5.67 KCAL/MOL
REMARK 924 INTRA-LIGAND FREE ENERGY PREDICTED BY IDOCK:   -0.79 KCAL/MOL
REMARK 927      BINDING AFFINITY PREDICTED BY RF-SCORE:    0.00 PKD
ROOT
HETATM    1  C   UNL     1      -9.295   7.224  71.196  1.00  0.00    -0.156 C  
HETATM    2  N   UNL     1     -10.750   7.369  71.308  1.00  0.00    -0.221 NA 
HETATM    3  C   UNL     1     -11.131   7.397  72.722  1.00  0.00    -0.346 C  
ENDROOT
BRANCH   2   4
HETATM    4  C   UNL     1     -11.183   8.580  70.586  1.00  0.00    -0.252 C  
BRANCH   4   5
HETATM    5  C   UNL     1     -10.065   9.602  70.369  1.00  0.00    -0.336 C  
BRANCH   5   6
HETATM    6  C   UNL     1     -10.075  10.128  68.938  1.00  0.00    -0.200 C  
BRANCH   6   7
HETATM    7  O   UNL     1      -9.441   9.146  68.116  1.00  0.00    -0.141 OA 
BRANCH   7   8
HETATM    8  C   UNL     1      -9.359   9.503  66.817  1.00  0.00    -0.153 A  
HETATM    9  N   UNL     1     -10.340  10.198  66.243  1.00  0.00    -0.207 NA 
HETATM   10  N   UNL     1      -9.911  10.334  64.966  1.00  0.00    -0.325 NA 
HETATM   11  C   UNL     1      -6.219   8.498  64.931  1.00  0.00    -0.060 A  
HETATM   12  C   UNL     1      -8.669   9.778  64.733  1.00  0.00    -0.192 A  
HETATM   13  C   UNL     1      -7.861   9.697  63.590  1.00  0.00    -0.138 A  
HETATM   14  C   UNL     1      -8.279   9.232  65.955  1.00  0.00    -0.116 A  
HETATM   15  C   UNL     1      -7.036   8.582  66.063  1.00  0.00    -0.076 A  
HETATM   16  C   UNL     1      -6.627   9.046  63.715  1.00  0.00    -0.089 A  
BRANCH  10  17
HETATM   17  C   UNL     1     -10.726  11.093  64.024  1.00  0.00    -0.339 C  
BRANCH  17  18
HETATM   18  C   UNL     1     -11.135  12.441  64.567  1.00  0.00    -0.360 A  
HETATM   19  C   UNL     1     -12.444  12.671  65.019  1.00  0.00    -0.556 A  
HETATM   20  C   UNL     1     -11.883  14.954  65.574  1.00  0.00    -0.155 A  
HETATM   21  C   UNL     1     -10.573  14.732  65.154  1.00  0.00    -0.439 A  
HETATM   22  C   UNL     1     -12.816  13.923  65.513  1.00  0.00    -0.471 A  
HETATM   23  C   UNL     1     -10.198  13.482  64.657  1.00  0.00    -0.341 A  
ENDBRANCH  17  18
ENDBRANCH  10  17
ENDBRANCH   7   8
ENDBRANCH   6   7
ENDBRANCH   5   6
ENDBRANCH   4   5
ENDBRANCH   2   4
TORSDOF 7
ENDMDL
MODEL      183
REMARK 921   NORMALIZED FREE ENERGY PREDICTED BY IDOCK:   -4.31 KCAL/MOL
REMARK 922        TOTAL FREE ENERGY PREDICTED BY IDOCK:   -6.46 KCAL/MOL
REMARK 923 INTER-LIGAND FREE ENERGY PREDICTED BY IDOCK:   -5.43 KCAL/MOL
REMARK 924 INTRA-LIGAND FREE ENERGY PREDICTED BY IDOCK:   -1.03 KCAL/MOL
REMARK 927      BINDING AFFINITY PREDICTED BY RF-SCORE:    0.00 PKD
ROOT
HETATM    1  C   UNL     1      -7.687  12.871  67.333  1.00  0.00    -0.159 C  
HETATM    2  N   UNL     1      -7.668  11.523  66.756  1.00  0.00    -0.152 NA 
HETATM    3  C   UNL     1      -7.149  10.576  67.745  1.00  0.00    -0.083 C  
ENDROOT
BRANCH   2   4
HETATM    4  C   UNL     1      -9.020  11.166  66.291  1.00  0.00    -0.193 C  
BRANCH   4   5
HETATM    5  C   UNL     1     -10.111  12.132  66.761  1.00  0.00    -0.218 C  
BRANCH   5   6
HETATM    6  C   UNL     1     -11.041  11.459  67.766  1.00  0.00    -0.265 C  
BRANCH   6   7
HETATM    7  O   UNL     1     -10.258  11.115  68.910  1.00  0.00    -0.198 OA 
BRANCH   7   8
HETATM    8  C   UNL     1     -10.679   9.993  69.533  1.00  0.00    -0.244 A  
HETATM    9  N   UNL     1     -10.091   8.823  69.289  1.00  0.00    -0.198 NA 
HETATM   10  N   UNL     1     -10.793   7.960  70.061  1.00  0.00    -0.248 NA 
HETATM   11  C   UNL     1     -13.533  10.345  72.015  1.00  0.00    -0.360 A  
HETATM   12  C   UNL     1     -11.781   8.565  70.813  1.00  0.00    -0.205 A  
HETATM   13  C   UNL     1     -12.716   8.068  71.732  1.00  0.00    -0.352 A  
HETATM   14  C   UNL     1     -11.712   9.918  70.487  1.00  0.00    -0.373 A  
HETATM   15  C   UNL     1     -12.598  10.827  71.093  1.00  0.00    -0.532 A  
HETATM   16  C   UNL     1     -13.591   8.987  72.326  1.00  0.00    -0.540 A  
BRANCH  10  17
HETATM   17  C   UNL     1     -10.403   6.555  70.087  1.00  0.00    -0.201 C  
BRANCH  17  18
HETATM   18  C   UNL     1      -9.685   6.178  71.360  1.00  0.00    -0.187 A  
HETATM   19  C   UNL     1      -9.916   4.939  71.980  1.00  0.00    -0.245 A  
HETATM   20  C   UNL     1      -8.345   5.488  73.731  1.00  0.00    -0.111 A  
HETATM   21  C   UNL     1      -8.086   6.710  73.112  1.00  0.00    -0.108 A  
HETATM   22  C   UNL     1      -9.255   4.600  73.161  1.00  0.00    -0.128 A  
HETATM   23  C   UNL     1      -8.748   7.052  71.932  1.00  0.00    -0.127 A  
ENDBRANCH  17  18
ENDBRANCH  10  17
ENDBRANCH   7   8
ENDBRANCH   6   7
ENDBRANCH   5   6
ENDBRANCH   4   5
ENDBRANCH   2   4
TORSDOF 7
ENDMDL
MODEL      184
REMARK 921   NORMALIZED FREE ENERGY PREDICTED BY IDOCK:   -4.30 KCAL/MOL
REMARK 922        TOTAL FREE ENERGY PREDICTED BY IDOCK:   -6.44 KCAL/MOL
REMARK 923 INTER-LIGAND FREE ENERGY PREDICTED BY IDOCK:   -5.60 KCAL/MOL
REMARK 924 INTRA-LIGAND FREE ENERGY PREDICTED BY IDOCK:   -0.84 KCAL/MOL
REMARK 927      BINDING AFFINITY PREDICTED BY RF-SCORE:    0.00 PKD
ROOT
HETATM    1  C   UNL     1      -7.352   5.809  68.399  1.00  0.00    -0.080 C  
HETATM    2  N   UNL     1      -8.623   5.486  69.057  1.00  0.00    -0.103 NA 
HETATM    3  C   UNL     1      -8.380   4.548  70.154  1.00  0.00    -0.070 C  
ENDROOT
BRANCH   2   4
HETATM    4  C   UNL     1      -9.272   6.729  69.512  1.00  0.00    -0.147 C  
BRANCH   4   5
HETATM    5  C   UNL     1      -9.911   7.543  68.384  1.00  0.00    -0.173 C  
BRANCH   5   6
HETATM    6  C   UNL     1      -9.808   9.039  68.663  1.00  0.00    -0.165 C  
BRANCH   6   7
HETATM    7  O   UNL     1     -11.071   9.467  69.175  1.00  0.00    -0.146 OA 
BRANCH   7   8
HETATM    8  C   UNL     1     -11.336  10.769  68.936  1.00  0.00    -0.284 A  
HETATM    9  N   UNL     1     -11.032  11.315  67.760  1.00  0.00    -0.232 NA 
HETATM   10  N   UNL     1     -11.415  12.605  67.914  1.00  0.00    -0.288 NA 
HETATM   11  C   UNL     1     -13.015  12.743  71.712  1.00  0.00    -0.416 A  
HETATM   12  C   UNL     1     -11.988  12.872  69.142  1.00  0.00    -0.259 A  
HETATM   13  C   UNL     1     -12.521  14.038  69.710  1.00  0.00    -0.255 A  
HETATM   14  C   UNL     1     -11.957  11.661  69.830  1.00  0.00    -0.414 A  
HETATM   15  C   UNL     1     -12.477  11.588  71.135  1.00  0.00    -0.442 A  
HETATM   16  C   UNL     1     -13.034  13.948  71.010  1.00  0.00    -0.357 A  
BRANCH  10  17
HETATM   17  C   UNL     1     -11.270  13.525  66.791  1.00  0.00    -0.310 C  
BRANCH  17  18
HETATM   18  C   UNL     1     -10.171  14.537  67.012  1.00  0.00    -0.262 A  
HETATM   19  C   UNL     1      -8.822  14.149  67.013  1.00  0.00    -0.237 A  
HETATM   20  C   UNL     1      -8.136  16.429  67.426  1.00  0.00    -0.175 A  
HETATM   21  C   UNL     1      -9.470  16.832  67.400  1.00  0.00    -0.236 A  
HETATM   22  C   UNL     1      -7.812  15.089  67.226  1.00  0.00    -0.241 A  
HETATM   23  C   UNL     1     -10.482  15.893  67.191  1.00  0.00    -0.313 A  
ENDBRANCH  17  18
ENDBRANCH  10  17
ENDBRANCH   7   8
ENDBRANCH   6   7
ENDBRANCH   5   6
ENDBRANCH   4   5
ENDBRANCH   2   4
TORSDOF 7
ENDMDL
MODEL      185
REMARK 921   NORMALIZED FREE ENERGY PREDICTED BY IDOCK:   -4.28 KCAL/MOL
REMARK 922        TOTAL FREE ENERGY PREDICTED BY IDOCK:   -6.42 KCAL/MOL
REMARK 923 INTER-LIGAND FREE ENERGY PREDICTED BY IDOCK:   -5.94 KCAL/MOL
REMARK 924 INTRA-LIGAND FREE ENERGY PREDICTED BY IDOCK:   -0.48 KCAL/MOL
REMARK 927      BINDING AFFINITY PREDICTED BY RF-SCORE:    0.00 PKD
ROOT
HETATM    1  C   UNL     1      -7.932   4.141  64.091  1.00  0.00    -0.089 C  
HETATM    2  N   UNL     1      -9.198   4.775  64.475  1.00  0.00    -0.108 NA 
HETATM    3  C   UNL     1     -10.270   3.779  64.450  1.00  0.00    -0.222 C  
ENDROOT
BRANCH   2   4
HETATM    4  C   UNL     1      -9.051   5.410  65.798  1.00  0.00    -0.154 C  
BRANCH   4   5
HETATM    5  C   UNL     1     -10.050   4.903  66.841  1.00  0.00    -0.257 C  
BRANCH   5   6
HETATM    6  C   UNL     1     -10.540   6.044  67.727  1.00  0.00    -0.267 C  
BRANCH   6   7
HETATM    7  O   UNL     1     -10.989   5.468  68.955  1.00  0.00    -0.186 OA 
BRANCH   7   8
HETATM    8  C   UNL     1     -10.957   6.328  69.996  1.00  0.00    -0.358 A  
HETATM    9  N   UNL     1     -11.159   7.631  69.802  1.00  0.00    -0.167 NA 
HETATM   10  N   UNL     1     -11.026   8.149  71.047  1.00  0.00    -0.239 NA 
HETATM   11  C   UNL     1     -10.336   4.866  73.446  1.00  0.00    -0.236 A  
HETATM   12  C   UNL     1     -10.785   7.200  72.021  1.00  0.00    -0.214 A  
HETATM   13  C   UNL     1     -10.595   7.287  73.408  1.00  0.00    -0.435 A  
HETATM   14  C   UNL     1     -10.750   5.982  71.345  1.00  0.00    -0.314 A  
HETATM   15  C   UNL     1     -10.523   4.793  72.061  1.00  0.00    -0.225 A  
HETATM   16  C   UNL     1     -10.370   6.094  74.106  1.00  0.00    -0.308 A  
BRANCH  10  17
HETATM   17  C   UNL     1     -11.223   9.580  71.242  1.00  0.00    -0.382 C  
BRANCH  17  18
HETATM   18  C   UNL     1     -10.940  10.378  69.991  1.00  0.00    -0.370 A  
HETATM   19  C   UNL     1      -9.651  10.421  69.437  1.00  0.00    -0.213 A  
HETATM   20  C   UNL     1     -10.427  11.868  67.666  1.00  0.00    -0.232 A  
HETATM   21  C   UNL     1     -11.718  11.813  68.190  1.00  0.00    -0.377 A  
HETATM   22  C   UNL     1      -9.396  11.167  68.286  1.00  0.00    -0.176 A  
HETATM   23  C   UNL     1     -11.975  11.070  69.343  1.00  0.00    -0.408 A  
ENDBRANCH  17  18
ENDBRANCH  10  17
ENDBRANCH   7   8
ENDBRANCH   6   7
ENDBRANCH   5   6
ENDBRANCH   4   5
ENDBRANCH   2   4
TORSDOF 7
ENDMDL
MODEL      186
REMARK 921   NORMALIZED FREE ENERGY PREDICTED BY IDOCK:   -4.28 KCAL/MOL
REMARK 922        TOTAL FREE ENERGY PREDICTED BY IDOCK:   -6.41 KCAL/MOL
REMARK 923 INTER-LIGAND FREE ENERGY PREDICTED BY IDOCK:   -5.48 KCAL/MOL
REMARK 924 INTRA-LIGAND FREE ENERGY PREDICTED BY IDOCK:   -0.94 KCAL/MOL
REMARK 927      BINDING AFFINITY PREDICTED BY RF-SCORE:    0.00 PKD
ROOT
HETATM    1  C   UNL     1      -9.481   3.823  70.311  1.00  0.00    -0.187 C  
HETATM    2  N   UNL     1     -10.058   4.563  71.438  1.00  0.00    -0.184 NA 
HETATM    3  C   UNL     1      -9.111   4.566  72.555  1.00  0.00    -0.123 C  
ENDROOT
BRANCH   2   4
HETATM    4  C   UNL     1     -10.417   5.925  71.002  1.00  0.00    -0.237 C  
BRANCH   4   5
HETATM    5  C   UNL     1     -11.137   5.972  69.652  1.00  0.00    -0.474 C  
BRANCH   5   6
HETATM    6  C   UNL     1     -10.947   7.327  68.979  1.00  0.00    -0.047 C  
BRANCH   6   7
HETATM    7  O   UNL     1      -9.542   7.538  68.829  1.00  0.00    -0.148 OA 
BRANCH   7   8
HETATM    8  C   UNL     1      -9.215   8.202  67.700  1.00  0.00    -0.137 A  
HETATM    9  N   UNL     1      -9.288   9.531  67.652  1.00  0.00    -0.124 NA 
HETATM   10  N   UNL     1      -8.916   9.812  66.380  1.00  0.00    -0.148 NA 
HETATM   11  C   UNL     1      -8.038   6.130  64.742  1.00  0.00    -0.132 A  
HETATM   12  C   UNL     1      -8.573   8.696  65.641  1.00  0.00    -0.168 A  
HETATM   13  C   UNL     1      -8.133   8.527  64.321  1.00  0.00    -0.155 A  
HETATM   14  C   UNL     1      -8.752   7.617  66.505  1.00  0.00    -0.161 A  
HETATM   15  C   UNL     1      -8.482   6.312  66.055  1.00  0.00    -0.143 A  
HETATM   16  C   UNL     1      -7.869   7.221  63.889  1.00  0.00    -0.111 A  
BRANCH  10  17
HETATM   17  C   UNL     1      -8.836  11.205  65.957  1.00  0.00    -0.189 C  
BRANCH  17  18
HETATM   18  C   UNL     1     -10.153  11.727  65.434  1.00  0.00    -0.291 A  
HETATM   19  C   UNL     1     -10.599  11.397  64.144  1.00  0.00    -0.430 A  
HETATM   20  C   UNL     1     -12.604  12.705  64.471  1.00  0.00    -0.491 A  
HETATM   21  C   UNL     1     -12.186  13.018  65.763  1.00  0.00    -0.511 A  
HETATM   22  C   UNL     1     -11.814  11.889  63.664  1.00  0.00    -0.573 A  
HETATM   23  C   UNL     1     -10.970  12.530  66.244  1.00  0.00    -0.311 A  
ENDBRANCH  17  18
ENDBRANCH  10  17
ENDBRANCH   7   8
ENDBRANCH   6   7
ENDBRANCH   5   6
ENDBRANCH   4   5
ENDBRANCH   2   4
TORSDOF 7
ENDMDL
MODEL      187
REMARK 921   NORMALIZED FREE ENERGY PREDICTED BY IDOCK:   -4.27 KCAL/MOL
REMARK 922        TOTAL FREE ENERGY PREDICTED BY IDOCK:   -6.40 KCAL/MOL
REMARK 923 INTER-LIGAND FREE ENERGY PREDICTED BY IDOCK:   -6.01 KCAL/MOL
REMARK 924 INTRA-LIGAND FREE ENERGY PREDICTED BY IDOCK:   -0.40 KCAL/MOL
REMARK 927      BINDING AFFINITY PREDICTED BY RF-SCORE:    0.00 PKD
ROOT
HETATM    1  C   UNL     1      -8.060   7.052  66.842  1.00  0.00    -0.116 C  
HETATM    2  N   UNL     1      -9.143   6.391  66.105  1.00  0.00    -0.153 NA 
HETATM    3  C   UNL     1      -8.719   5.043  65.720  1.00  0.00    -0.135 C  
ENDROOT
BRANCH   2   4
HETATM    4  C   UNL     1     -10.366   6.382  66.928  1.00  0.00    -0.241 C  
BRANCH   4   5
HETATM    5  C   UNL     1     -10.585   7.671  67.724  1.00  0.00    -0.265 C  
BRANCH   5   6
HETATM    6  C   UNL     1     -10.542   7.400  69.225  1.00  0.00    -0.213 C  
BRANCH   6   7
HETATM    7  O   UNL     1     -11.058   8.558  69.884  1.00  0.00    -0.218 OA 
BRANCH   7   8
HETATM    8  C   UNL     1     -10.689   9.719  69.300  1.00  0.00    -0.224 A  
HETATM    9  N   UNL     1     -11.587  10.476  68.673  1.00  0.00    -0.267 NA 
HETATM   10  N   UNL     1     -10.846  11.511  68.210  1.00  0.00    -0.202 NA 
HETATM   11  C   UNL     1      -7.038  10.727  69.586  1.00  0.00    -0.136 A  
HETATM   12  C   UNL     1      -9.513  11.442  68.566  1.00  0.00    -0.183 A  
HETATM   13  C   UNL     1      -8.418  12.281  68.317  1.00  0.00    -0.173 A  
HETATM   14  C   UNL     1      -9.391  10.266  69.302  1.00  0.00    -0.221 A  
HETATM   15  C   UNL     1      -8.138   9.896  69.823  1.00  0.00    -0.185 A  
HETATM   16  C   UNL     1      -7.177  11.899  68.843  1.00  0.00    -0.098 A  
BRANCH  10  17
HETATM   17  C   UNL     1     -11.510  12.589  67.488  1.00  0.00    -0.336 C  
BRANCH  17  18
HETATM   18  C   UNL     1     -11.512  12.368  65.994  1.00  0.00    -0.431 A  
HETATM   19  C   UNL     1     -10.661  11.421  65.402  1.00  0.00    -0.333 A  
HETATM   20  C   UNL     1     -11.524  11.968  63.214  1.00  0.00    -0.398 A  
HETATM   21  C   UNL     1     -12.393  12.892  63.790  1.00  0.00    -0.500 A  
HETATM   22  C   UNL     1     -10.663  11.228  64.020  1.00  0.00    -0.444 A  
HETATM   23  C   UNL     1     -12.391  13.089  65.172  1.00  0.00    -0.536 A  
ENDBRANCH  17  18
ENDBRANCH  10  17
ENDBRANCH   7   8
ENDBRANCH   6   7
ENDBRANCH   5   6
ENDBRANCH   4   5
ENDBRANCH   2   4
TORSDOF 7
ENDMDL
MODEL      188
REMARK 921   NORMALIZED FREE ENERGY PREDICTED BY IDOCK:   -4.27 KCAL/MOL
REMARK 922        TOTAL FREE ENERGY PREDICTED BY IDOCK:   -6.40 KCAL/MOL
REMARK 923 INTER-LIGAND FREE ENERGY PREDICTED BY IDOCK:   -5.74 KCAL/MOL
REMARK 924 INTRA-LIGAND FREE ENERGY PREDICTED BY IDOCK:   -0.66 KCAL/MOL
REMARK 927      BINDING AFFINITY PREDICTED BY RF-SCORE:    0.00 PKD
ROOT
HETATM    1  C   UNL     1     -12.618  17.068  73.940  1.00  0.00     0.422 C  
HETATM    2  N   UNL     1     -12.269  15.841  73.216  1.00  0.00    -0.465 NA 
HETATM    3  C   UNL     1     -12.102  14.742  74.169  1.00  0.00    -0.062 C  
ENDROOT
BRANCH   2   4
HETATM    4  C   UNL     1     -13.302  15.556  72.203  1.00  0.00    -0.467 C  
BRANCH   4   5
HETATM    5  C   UNL     1     -12.748  15.375  70.788  1.00  0.00    -0.516 C  
BRANCH   5   6
HETATM    6  C   UNL     1     -11.437  16.135  70.613  1.00  0.00    -0.361 C  
BRANCH   6   7
HETATM    7  O   UNL     1     -11.037  15.989  69.250  1.00  0.00    -0.285 OA 
BRANCH   7   8
HETATM    8  C   UNL     1      -9.868  16.602  68.964  1.00  0.00    -0.267 A  
HETATM    9  N   UNL     1      -8.708  16.017  69.261  1.00  0.00    -0.248 NA 
HETATM   10  N   UNL     1      -7.793  16.929  68.855  1.00  0.00    -0.248 NA 
HETATM   11  C   UNL     1     -10.048  19.984  67.245  1.00  0.00    -0.577 A  
HETATM   12  C   UNL     1      -8.348  18.053  68.275  1.00  0.00    -0.290 A  
HETATM   13  C   UNL     1      -7.787  19.214  67.722  1.00  0.00    -0.295 A  
HETATM   14  C   UNL     1      -9.725  17.848  68.325  1.00  0.00    -0.327 A  
HETATM   15  C   UNL     1     -10.594  18.824  67.804  1.00  0.00    -0.452 A  
HETATM   16  C   UNL     1      -8.667  20.175  67.208  1.00  0.00    -0.429 A  
BRANCH  10  17
HETATM   17  C   UNL     1      -6.375  16.616  68.988  1.00  0.00    -0.183 C  
BRANCH  17  18
HETATM   18  C   UNL     1      -6.104  15.131  68.937  1.00  0.00    -0.093 A  
HETATM   19  C   UNL     1      -6.181  14.423  67.727  1.00  0.00    -0.151 A  
HETATM   20  C   UNL     1      -5.601  12.369  68.857  1.00  0.00    -0.062 A  
HETATM   21  C   UNL     1      -5.494  13.063  70.060  1.00  0.00    -0.112 A  
HETATM   22  C   UNL     1      -5.938  13.049  67.689  1.00  0.00    -0.145 A  
HETATM   23  C   UNL     1      -5.741  14.437  70.101  1.00  0.00    -0.129 A  
ENDBRANCH  17  18
ENDBRANCH  10  17
ENDBRANCH   7   8
ENDBRANCH   6   7
ENDBRANCH   5   6
ENDBRANCH   4   5
ENDBRANCH   2   4
TORSDOF 7
ENDMDL
MODEL      189
REMARK 921   NORMALIZED FREE ENERGY PREDICTED BY IDOCK:   -4.26 KCAL/MOL
REMARK 922        TOTAL FREE ENERGY PREDICTED BY IDOCK:   -6.39 KCAL/MOL
REMARK 923 INTER-LIGAND FREE ENERGY PREDICTED BY IDOCK:   -6.10 KCAL/MOL
REMARK 924 INTRA-LIGAND FREE ENERGY PREDICTED BY IDOCK:   -0.29 KCAL/MOL
REMARK 927      BINDING AFFINITY PREDICTED BY RF-SCORE:    0.00 PKD
ROOT
HETATM    1  C   UNL     1      -6.072  13.120  69.390  1.00  0.00    -0.107 C  
HETATM    2  N   UNL     1      -6.700  13.200  68.066  1.00  0.00    -0.102 NA 
HETATM    3  C   UNL     1      -6.351  12.009  67.288  1.00  0.00    -0.151 C  
ENDROOT
BRANCH   2   4
HETATM    4  C   UNL     1      -8.157  13.364  68.221  1.00  0.00    -0.152 C  
BRANCH   4   5
HETATM    5  C   UNL     1      -8.556  14.296  69.367  1.00  0.00     0.385 C  
BRANCH   5   6
HETATM    6  C   UNL     1     -10.056  14.570  69.351  1.00  0.00     0.005 C  
BRANCH   6   7
HETATM    7  O   UNL     1     -10.232  15.988  69.367  1.00  0.00    -0.236 OA 
BRANCH   7   8
HETATM    8  C   UNL     1     -10.445  16.518  68.144  1.00  0.00    -0.313 A  
HETATM    9  N   UNL     1     -10.824  15.743  67.129  1.00  0.00    -0.315 NA 
HETATM   10  N   UNL     1     -10.906  16.614  66.094  1.00  0.00    -0.109 NA 
HETATM   11  C   UNL     1      -9.975  20.268  67.764  1.00  0.00    -0.529 A  
HETATM   12  C   UNL     1     -10.626  17.920  66.443  1.00  0.00    -0.235 A  
HETATM   13  C   UNL     1     -10.600  19.116  65.711  1.00  0.00    -0.417 A  
HETATM   14  C   UNL     1     -10.331  17.880  67.804  1.00  0.00    -0.393 A  
HETATM   15  C   UNL     1      -9.999  19.067  68.481  1.00  0.00    -0.486 A  
HETATM   16  C   UNL     1     -10.268  20.289  66.401  1.00  0.00    -0.463 A  
BRANCH  10  17
HETATM   17  C   UNL     1     -11.342  16.125  64.791  1.00  0.00    -0.249 C  
BRANCH  17  18
HETATM   18  C   UNL     1     -11.339  14.617  64.709  1.00  0.00    -0.398 A  
HETATM   19  C   UNL     1     -12.430  13.921  64.164  1.00  0.00    -0.286 A  
HETATM   20  C   UNL     1     -11.323  11.812  64.564  1.00  0.00    -0.349 A  
HETATM   21  C   UNL     1     -10.222  12.491  65.083  1.00  0.00    -0.299 A  
HETATM   22  C   UNL     1     -12.424  12.527  64.098  1.00  0.00    -0.518 A  
HETATM   23  C   UNL     1     -10.227  13.885  65.152  1.00  0.00    -0.382 A  
ENDBRANCH  17  18
ENDBRANCH  10  17
ENDBRANCH   7   8
ENDBRANCH   6   7
ENDBRANCH   5   6
ENDBRANCH   4   5
ENDBRANCH   2   4
TORSDOF 7
ENDMDL
MODEL      190
REMARK 921   NORMALIZED FREE ENERGY PREDICTED BY IDOCK:   -4.25 KCAL/MOL
REMARK 922        TOTAL FREE ENERGY PREDICTED BY IDOCK:   -6.37 KCAL/MOL
REMARK 923 INTER-LIGAND FREE ENERGY PREDICTED BY IDOCK:   -5.98 KCAL/MOL
REMARK 924 INTRA-LIGAND FREE ENERGY PREDICTED BY IDOCK:   -0.39 KCAL/MOL
REMARK 927      BINDING AFFINITY PREDICTED BY RF-SCORE:    0.00 PKD
ROOT
HETATM    1  C   UNL     1      -5.471  12.920  67.696  1.00  0.00    -0.109 C  
HETATM    2  N   UNL     1      -6.818  12.381  67.477  1.00  0.00    -0.129 NA 
HETATM    3  C   UNL     1      -6.851  10.973  67.878  1.00  0.00    -0.068 C  
ENDROOT
BRANCH   2   4
HETATM    4  C   UNL     1      -7.801  13.197  68.212  1.00  0.00    -0.143 C  
BRANCH   4   5
HETATM    5  C   UNL     1      -9.237  12.678  68.108  1.00  0.00    -0.209 C  
BRANCH   5   6
HETATM    6  C   UNL     1     -10.133  13.334  69.154  1.00  0.00     0.276 C  
BRANCH   6   7
HETATM    7  O   UNL     1     -11.420  13.516  68.562  1.00  0.00    -0.266 OA 
BRANCH   7   8
HETATM    8  C   UNL     1     -11.380  14.146  67.368  1.00  0.00    -0.327 A  
HETATM    9  N   UNL     1     -10.992  15.418  67.289  1.00  0.00    -0.320 NA 
HETATM   10  N   UNL     1     -11.108  15.691  65.967  1.00  0.00    -0.206 NA 
HETATM   11  C   UNL     1     -12.350  12.129  64.300  1.00  0.00    -0.466 A  
HETATM   12  C   UNL     1     -11.521  14.611  65.211  1.00  0.00    -0.361 A  
HETATM   13  C   UNL     1     -11.759  14.446  63.839  1.00  0.00     0.004 A  
HETATM   14  C   UNL     1     -11.693  13.571  66.122  1.00  0.00    -0.397 A  
HETATM   15  C   UNL     1     -12.114  12.309  65.667  1.00  0.00    -0.306 A  
HETATM   16  C   UNL     1     -12.177  13.183  63.402  1.00  0.00    -0.521 A  
BRANCH  10  17
HETATM   17  C   UNL     1     -10.725  17.011  65.481  1.00  0.00    -0.138 C  
BRANCH  17  18
HETATM   18  C   UNL     1      -9.956  17.805  66.510  1.00  0.00    -0.346 A  
HETATM   19  C   UNL     1     -10.536  18.912  67.149  1.00  0.00    -0.531 A  
HETATM   20  C   UNL     1      -8.515  19.276  68.421  1.00  0.00    -0.386 A  
HETATM   21  C   UNL     1      -7.936  18.162  67.814  1.00  0.00    -0.238 A  
HETATM   22  C   UNL     1      -9.817  19.647  68.093  1.00  0.00    -0.524 A  
HETATM   23  C   UNL     1      -8.652  17.428  66.867  1.00  0.00    -0.270 A  
ENDBRANCH  17  18
ENDBRANCH  10  17
ENDBRANCH   7   8
ENDBRANCH   6   7
ENDBRANCH   5   6
ENDBRANCH   4   5
ENDBRANCH   2   4
TORSDOF 7
ENDMDL
MODEL      191
REMARK 921   NORMALIZED FREE ENERGY PREDICTED BY IDOCK:   -4.23 KCAL/MOL
REMARK 922        TOTAL FREE ENERGY PREDICTED BY IDOCK:   -6.34 KCAL/MOL
REMARK 923 INTER-LIGAND FREE ENERGY PREDICTED BY IDOCK:   -5.65 KCAL/MOL
REMARK 924 INTRA-LIGAND FREE ENERGY PREDICTED BY IDOCK:   -0.70 KCAL/MOL
REMARK 927      BINDING AFFINITY PREDICTED BY RF-SCORE:    0.00 PKD
ROOT
HETATM    1  C   UNL     1      -7.290   4.966  64.031  1.00  0.00    -0.055 C  
HETATM    2  N   UNL     1      -8.412   5.634  64.699  1.00  0.00    -0.120 NA 
HETATM    3  C   UNL     1      -8.764   4.897  65.914  1.00  0.00    -0.127 C  
ENDROOT
BRANCH   2   4
HETATM    4  C   UNL     1      -8.056   7.037  64.977  1.00  0.00    -0.119 C  
BRANCH   4   5
HETATM    5  C   UNL     1      -7.375   7.246  66.332  1.00  0.00    -0.080 C  
BRANCH   5   6
HETATM    6  C   UNL     1      -7.658   8.643  66.876  1.00  0.00    -0.084 C  
BRANCH   6   7
HETATM    7  O   UNL     1      -9.013   8.961  66.553  1.00  0.00    -0.141 OA 
BRANCH   7   8
HETATM    8  C   UNL     1      -9.579   9.836  67.411  1.00  0.00    -0.155 A  
HETATM    9  N   UNL     1      -9.580  11.141  67.144  1.00  0.00    -0.172 NA 
HETATM   10  N   UNL     1     -10.199  11.675  68.224  1.00  0.00    -0.193 NA 
HETATM   11  C   UNL     1     -11.195   8.410  70.539  1.00  0.00    -0.252 A  
HETATM   12  C   UNL     1     -10.622  10.734  69.143  1.00  0.00    -0.222 A  
HETATM   13  C   UNL     1     -11.295  10.837  70.369  1.00  0.00    -0.342 A  
HETATM   14  C   UNL     1     -10.232   9.506  68.614  1.00  0.00    -0.215 A  
HETATM   15  C   UNL     1     -10.520   8.322  69.317  1.00  0.00    -0.218 A  
HETATM   16  C   UNL     1     -11.574   9.649  71.055  1.00  0.00    -0.436 A  
BRANCH  10  17
HETATM   17  C   UNL     1     -10.424  13.115  68.271  1.00  0.00    -0.250 C  
BRANCH  17  18
HETATM   18  C   UNL     1     -10.927  13.665  66.958  1.00  0.00    -0.298 A  
HETATM   19  C   UNL     1     -10.306  14.768  66.352  1.00  0.00    -0.297 A  
HETATM   20  C   UNL     1     -11.875  14.680  64.517  1.00  0.00    -0.442 A  
HETATM   21  C   UNL     1     -12.484  13.568  65.094  1.00  0.00    -0.495 A  
HETATM   22  C   UNL     1     -10.782  15.276  65.142  1.00  0.00    -0.455 A  
HETATM   23  C   UNL     1     -12.012  13.060  66.306  1.00  0.00    -0.477 A  
ENDBRANCH  17  18
ENDBRANCH  10  17
ENDBRANCH   7   8
ENDBRANCH   6   7
ENDBRANCH   5   6
ENDBRANCH   4   5
ENDBRANCH   2   4
TORSDOF 7
ENDMDL
MODEL      192
REMARK 921   NORMALIZED FREE ENERGY PREDICTED BY IDOCK:   -4.23 KCAL/MOL
REMARK 922        TOTAL FREE ENERGY PREDICTED BY IDOCK:   -6.34 KCAL/MOL
REMARK 923 INTER-LIGAND FREE ENERGY PREDICTED BY IDOCK:   -5.97 KCAL/MOL
REMARK 924 INTRA-LIGAND FREE ENERGY PREDICTED BY IDOCK:   -0.37 KCAL/MOL
REMARK 927      BINDING AFFINITY PREDICTED BY RF-SCORE:    0.00 PKD
ROOT
HETATM    1  C   UNL     1      -8.498   3.920  69.185  1.00  0.00    -0.076 C  
HETATM    2  N   UNL     1      -9.091   5.152  68.652  1.00  0.00    -0.108 NA 
HETATM    3  C   UNL     1     -10.450   5.305  69.175  1.00  0.00    -0.157 C  
ENDROOT
BRANCH   2   4
HETATM    4  C   UNL     1      -8.227   6.300  68.987  1.00  0.00    -0.114 C  
BRANCH   4   5
HETATM    5  C   UNL     1      -8.991   7.509  69.533  1.00  0.00    -0.143 C  
BRANCH   5   6
HETATM    6  C   UNL     1      -9.185   8.566  68.451  1.00  0.00    -0.135 C  
BRANCH   6   7
HETATM    7  O   UNL     1     -10.550   8.984  68.501  1.00  0.00    -0.209 OA 
BRANCH   7   8
HETATM    8  C   UNL     1     -10.821  10.034  67.696  1.00  0.00    -0.278 A  
HETATM    9  N   UNL     1     -11.545  11.059  68.143  1.00  0.00    -0.496 NA 
HETATM   10  N   UNL     1     -11.619  11.874  67.064  1.00  0.00    -0.532 NA 
HETATM   11  C   UNL     1      -9.391   9.946  64.178  1.00  0.00    -0.295 A  
HETATM   12  C   UNL     1     -10.926  11.406  65.965  1.00  0.00    -0.226 A  
HETATM   13  C   UNL     1     -10.731  11.918  64.674  1.00  0.00    -0.356 A  
HETATM   14  C   UNL     1     -10.378  10.191  66.369  1.00  0.00    -0.258 A  
HETATM   15  C   UNL     1      -9.597   9.444  65.468  1.00  0.00    -0.328 A  
HETATM   16  C   UNL     1      -9.952  11.163  63.789  1.00  0.00    -0.401 A  
BRANCH  10  17
HETATM   17  C   UNL     1     -12.319  13.148  67.187  1.00  0.00    -0.031 C  
BRANCH  17  18
HETATM   18  C   UNL     1     -11.732  14.028  68.264  1.00  0.00    -0.392 A  
HETATM   19  C   UNL     1     -10.599  14.819  68.014  1.00  0.00    -0.244 A  
HETATM   20  C   UNL     1     -10.649  15.660  70.277  1.00  0.00    -0.329 A  
HETATM   21  C   UNL     1     -11.790  14.901  70.532  1.00  0.00    -0.358 A  
HETATM   22  C   UNL     1     -10.058  15.625  69.017  1.00  0.00    -0.227 A  
HETATM   23  C   UNL     1     -12.331  14.093  69.531  1.00  0.00    -0.275 A  
ENDBRANCH  17  18
ENDBRANCH  10  17
ENDBRANCH   7   8
ENDBRANCH   6   7
ENDBRANCH   5   6
ENDBRANCH   4   5
ENDBRANCH   2   4
TORSDOF 7
ENDMDL
MODEL      193
REMARK 921   NORMALIZED FREE ENERGY PREDICTED BY IDOCK:   -4.22 KCAL/MOL
REMARK 922        TOTAL FREE ENERGY PREDICTED BY IDOCK:   -6.33 KCAL/MOL
REMARK 923 INTER-LIGAND FREE ENERGY PREDICTED BY IDOCK:   -5.32 KCAL/MOL
REMARK 924 INTRA-LIGAND FREE ENERGY PREDICTED BY IDOCK:   -1.01 KCAL/MOL
REMARK 927      BINDING AFFINITY PREDICTED BY RF-SCORE:    0.00 PKD
ROOT
HETATM    1  C   UNL     1     -12.935  13.959  73.045  1.00  0.00    -0.106 C  
HETATM    2  N   UNL     1     -13.217  13.340  71.746  1.00  0.00    -0.414 NA 
HETATM    3  C   UNL     1     -12.460  14.032  70.701  1.00  0.00    -0.365 C  
ENDROOT
BRANCH   2   4
HETATM    4  C   UNL     1     -12.903  11.901  71.807  1.00  0.00    -0.284 C  
BRANCH   4   5
HETATM    5  C   UNL     1     -12.924  11.205  70.444  1.00  0.00    -0.063 C  
BRANCH   5   6
HETATM    6  C   UNL     1     -11.599  10.502  70.169  1.00  0.00    -0.326 C  
BRANCH   6   7
HETATM    7  O   UNL     1     -11.512  10.288  68.759  1.00  0.00    -0.207 OA 
BRANCH   7   8
HETATM    8  C   UNL     1     -10.726  11.184  68.126  1.00  0.00    -0.204 A  
HETATM    9  N   UNL     1     -11.253  12.063  67.275  1.00  0.00    -0.291 NA 
HETATM   10  N   UNL     1     -10.172  12.752  66.838  1.00  0.00    -0.234 NA 
HETATM   11  C   UNL     1      -7.014  11.118  68.927  1.00  0.00    -0.095 A  
HETATM   12  C   UNL     1      -8.986  12.355  67.424  1.00  0.00    -0.185 A  
HETATM   13  C   UNL     1      -7.661  12.789  67.278  1.00  0.00    -0.116 A  
HETATM   14  C   UNL     1      -9.335  11.324  68.293  1.00  0.00    -0.180 A  
HETATM   15  C   UNL     1      -8.339  10.691  69.059  1.00  0.00    -0.153 A  
HETATM   16  C   UNL     1      -6.682  12.149  68.048  1.00  0.00    -0.073 A  
BRANCH  10  17
HETATM   17  C   UNL     1     -10.365  13.851  65.899  1.00  0.00    -0.311 C  
BRANCH  17  18
HETATM   18  C   UNL     1     -10.003  15.191  66.494  1.00  0.00    -0.279 A  
HETATM   19  C   UNL     1      -9.025  16.004  65.900  1.00  0.00    -0.256 A  
HETATM   20  C   UNL     1      -9.335  17.680  67.612  1.00  0.00    -0.246 A  
HETATM   21  C   UNL     1     -10.327  16.895  68.197  1.00  0.00    -0.336 A  
HETATM   22  C   UNL     1      -8.689  17.237  66.460  1.00  0.00    -0.293 A  
HETATM   23  C   UNL     1     -10.663  15.659  67.640  1.00  0.00    -0.302 A  
ENDBRANCH  17  18
ENDBRANCH  10  17
ENDBRANCH   7   8
ENDBRANCH   6   7
ENDBRANCH   5   6
ENDBRANCH   4   5
ENDBRANCH   2   4
TORSDOF 7
ENDMDL
MODEL      194
REMARK 921   NORMALIZED FREE ENERGY PREDICTED BY IDOCK:   -4.20 KCAL/MOL
REMARK 922        TOTAL FREE ENERGY PREDICTED BY IDOCK:   -6.31 KCAL/MOL
REMARK 923 INTER-LIGAND FREE ENERGY PREDICTED BY IDOCK:   -5.41 KCAL/MOL
REMARK 924 INTRA-LIGAND FREE ENERGY PREDICTED BY IDOCK:   -0.90 KCAL/MOL
REMARK 927      BINDING AFFINITY PREDICTED BY RF-SCORE:    0.00 PKD
ROOT
HETATM    1  C   UNL     1     -12.118  15.575  70.228  1.00  0.00    -0.386 C  
HETATM    2  N   UNL     1     -11.214  15.539  69.074  1.00  0.00    -0.281 NA 
HETATM    3  C   UNL     1     -10.494  16.811  68.977  1.00  0.00    -0.336 C  
ENDROOT
BRANCH   2   4
HETATM    4  C   UNL     1     -10.303  14.386  69.197  1.00  0.00    -0.154 C  
BRANCH   4   5
HETATM    5  C   UNL     1      -9.729  13.906  67.861  1.00  0.00    -0.231 C  
BRANCH   5   6
HETATM    6  C   UNL     1      -9.483  12.401  67.881  1.00  0.00    -0.198 C  
BRANCH   6   7
HETATM    7  O   UNL     1     -10.730  11.767  68.170  1.00  0.00    -0.197 OA 
BRANCH   7   8
HETATM    8  C   UNL     1     -10.616  10.707  68.998  1.00  0.00    -0.219 A  
HETATM    9  N   UNL     1      -9.632   9.825  68.835  1.00  0.00    -0.161 NA 
HETATM   10  N   UNL     1      -9.866   8.921  69.817  1.00  0.00    -0.176 NA 
HETATM   11  C   UNL     1     -13.160  10.409  71.803  1.00  0.00    -0.567 A  
HETATM   12  C   UNL     1     -10.949   9.235  70.615  1.00  0.00    -0.276 A  
HETATM   13  C   UNL     1     -11.529   8.602  71.724  1.00  0.00    -0.394 A  
HETATM   14  C   UNL     1     -11.452  10.426  70.096  1.00  0.00    -0.396 A  
HETATM   15  C   UNL     1     -12.574  11.028  70.694  1.00  0.00    -0.427 A  
HETATM   16  C   UNL     1     -12.646   9.214  72.307  1.00  0.00    -0.425 A  
BRANCH  10  17
HETATM   17  C   UNL     1      -8.948   7.800  69.980  1.00  0.00    -0.142 C  
BRANCH  17  18
HETATM   18  C   UNL     1      -7.670   8.198  70.680  1.00  0.00    -0.085 A  
HETATM   19  C   UNL     1      -6.555   8.640  69.951  1.00  0.00    -0.041 A  
HETATM   20  C   UNL     1      -5.297   8.932  71.992  1.00  0.00    -0.053 A  
HETATM   21  C   UNL     1      -6.405   8.520  72.731  1.00  0.00    -0.095 A  
HETATM   22  C   UNL     1      -5.374   8.998  70.603  1.00  0.00    -0.027 A  
HETATM   23  C   UNL     1      -7.586   8.158  72.080  1.00  0.00    -0.142 A  
ENDBRANCH  17  18
ENDBRANCH  10  17
ENDBRANCH   7   8
ENDBRANCH   6   7
ENDBRANCH   5   6
ENDBRANCH   4   5
ENDBRANCH   2   4
TORSDOF 7
ENDMDL
MODEL      195
REMARK 921   NORMALIZED FREE ENERGY PREDICTED BY IDOCK:   -4.19 KCAL/MOL
REMARK 922        TOTAL FREE ENERGY PREDICTED BY IDOCK:   -6.30 KCAL/MOL
REMARK 923 INTER-LIGAND FREE ENERGY PREDICTED BY IDOCK:   -6.02 KCAL/MOL
REMARK 924 INTRA-LIGAND FREE ENERGY PREDICTED BY IDOCK:   -0.28 KCAL/MOL
REMARK 927      BINDING AFFINITY PREDICTED BY RF-SCORE:    0.00 PKD
ROOT
HETATM    1  C   UNL     1      -7.507   8.430  69.414  1.00  0.00    -0.089 C  
HETATM    2  N   UNL     1      -8.284   7.980  70.574  1.00  0.00    -0.115 NA 
HETATM    3  C   UNL     1      -7.397   7.309  71.525  1.00  0.00    -0.080 C  
ENDROOT
BRANCH   2   4
HETATM    4  C   UNL     1      -8.984   9.131  71.174  1.00  0.00    -0.179 C  
BRANCH   4   5
HETATM    5  C   UNL     1     -10.385   8.799  71.694  1.00  0.00    -0.391 C  
BRANCH   5   6
HETATM    6  C   UNL     1     -11.385   9.880  71.298  1.00  0.00    -0.333 C  
BRANCH   6   7
HETATM    7  O   UNL     1     -12.019   9.456  70.090  1.00  0.00    -0.046 OA 
BRANCH   7   8
HETATM    8  C   UNL     1     -11.857  10.319  69.065  1.00  0.00     0.075 A  
HETATM    9  N   UNL     1     -12.355  11.553  69.136  1.00  0.00    -0.304 NA 
HETATM   10  N   UNL     1     -12.018  12.088  67.938  1.00  0.00    -0.547 NA 
HETATM   11  C   UNL     1      -9.894   9.098  66.052  1.00  0.00    -0.342 A  
HETATM   12  C   UNL     1     -11.287  11.235  67.134  1.00  0.00    -0.220 A  
HETATM   13  C   UNL     1     -10.737  11.374  65.852  1.00  0.00    -0.311 A  
HETATM   14  C   UNL     1     -11.158  10.059  67.871  1.00  0.00    -0.260 A  
HETATM   15  C   UNL     1     -10.452   8.971  67.328  1.00  0.00    -0.343 A  
HETATM   16  C   UNL     1     -10.037  10.280  65.326  1.00  0.00    -0.359 A  
BRANCH  10  17
HETATM   17  C   UNL     1     -12.370  13.475  67.658  1.00  0.00    -0.003 C  
BRANCH  17  18
HETATM   18  C   UNL     1     -12.000  14.405  68.789  1.00  0.00    -0.331 A  
HETATM   19  C   UNL     1     -12.415  14.143  70.104  1.00  0.00    -0.391 A  
HETATM   20  C   UNL     1     -11.307  16.143  70.884  1.00  0.00    -0.394 A  
HETATM   21  C   UNL     1     -10.866  16.400  69.587  1.00  0.00    -0.346 A  
HETATM   22  C   UNL     1     -12.076  15.011  71.143  1.00  0.00    -0.375 A  
HETATM   23  C   UNL     1     -11.206  15.536  68.546  1.00  0.00    -0.334 A  
ENDBRANCH  17  18
ENDBRANCH  10  17
ENDBRANCH   7   8
ENDBRANCH   6   7
ENDBRANCH   5   6
ENDBRANCH   4   5
ENDBRANCH   2   4
TORSDOF 7
ENDMDL
MODEL      196
REMARK 921   NORMALIZED FREE ENERGY PREDICTED BY IDOCK:   -4.19 KCAL/MOL
REMARK 922        TOTAL FREE ENERGY PREDICTED BY IDOCK:   -6.30 KCAL/MOL
REMARK 923 INTER-LIGAND FREE ENERGY PREDICTED BY IDOCK:   -5.25 KCAL/MOL
REMARK 924 INTRA-LIGAND FREE ENERGY PREDICTED BY IDOCK:   -1.04 KCAL/MOL
REMARK 927      BINDING AFFINITY PREDICTED BY RF-SCORE:    0.00 PKD
ROOT
HETATM    1  C   UNL     1      -9.601   6.628  68.292  1.00  0.00    -0.125 C  
HETATM    2  N   UNL     1      -8.512   6.366  69.238  1.00  0.00    -0.125 NA 
HETATM    3  C   UNL     1      -8.055   4.983  69.084  1.00  0.00    -0.083 C  
ENDROOT
BRANCH   2   4
HETATM    4  C   UNL     1      -7.428   7.342  69.025  1.00  0.00    -0.100 C  
BRANCH   4   5
HETATM    5  C   UNL     1      -7.128   8.209  70.251  1.00  0.00    -0.047 C  
BRANCH   5   6
HETATM    6  C   UNL     1      -7.341   9.687  69.940  1.00  0.00    -0.120 C  
BRANCH   6   7
HETATM    7  O   UNL     1      -8.033   9.767  68.693  1.00  0.00    -0.086 OA 
BRANCH   7   8
HETATM    8  C   UNL     1      -8.922  10.782  68.635  1.00  0.00    -0.162 A  
HETATM    9  N   UNL     1      -8.673  11.855  67.886  1.00  0.00    -0.159 NA 
HETATM   10  N   UNL     1      -9.757  12.638  68.105  1.00  0.00    -0.216 NA 
HETATM   11  C   UNL     1     -12.133  10.402  70.627  1.00  0.00    -0.443 A  
HETATM   12  C   UNL     1     -10.696  12.066  68.940  1.00  0.00    -0.185 A  
HETATM   13  C   UNL     1     -11.939  12.507  69.418  1.00  0.00    -0.315 A  
HETATM   14  C   UNL     1     -10.166  10.827  69.292  1.00  0.00    -0.217 A  
HETATM   15  C   UNL     1     -10.890   9.976  70.147  1.00  0.00    -0.365 A  
HETATM   16  C   UNL     1     -12.646  11.648  70.269  1.00  0.00    -0.159 A  
BRANCH  10  17
HETATM   17  C   UNL     1      -9.861  13.913  67.405  1.00  0.00    -0.237 C  
BRANCH  17  18
HETATM   18  C   UNL     1     -10.689  13.816  66.146  1.00  0.00    -0.283 A  
HETATM   19  C   UNL     1     -10.301  12.977  65.090  1.00  0.00    -0.321 A  
HETATM   20  C   UNL     1     -12.237  13.646  63.808  1.00  0.00    -0.413 A  
HETATM   21  C   UNL     1     -12.648  14.462  64.861  1.00  0.00    -0.298 A  
HETATM   22  C   UNL     1     -11.068  12.898  63.926  1.00  0.00    -0.454 A  
HETATM   23  C   UNL     1     -11.882  14.545  66.024  1.00  0.00    -0.339 A  
ENDBRANCH  17  18
ENDBRANCH  10  17
ENDBRANCH   7   8
ENDBRANCH   6   7
ENDBRANCH   5   6
ENDBRANCH   4   5
ENDBRANCH   2   4
TORSDOF 7
ENDMDL
MODEL      197
REMARK 921   NORMALIZED FREE ENERGY PREDICTED BY IDOCK:   -4.19 KCAL/MOL
REMARK 922        TOTAL FREE ENERGY PREDICTED BY IDOCK:   -6.30 KCAL/MOL
REMARK 923 INTER-LIGAND FREE ENERGY PREDICTED BY IDOCK:   -5.42 KCAL/MOL
REMARK 924 INTRA-LIGAND FREE ENERGY PREDICTED BY IDOCK:   -0.88 KCAL/MOL
REMARK 927      BINDING AFFINITY PREDICTED BY RF-SCORE:    0.00 PKD
ROOT
HETATM    1  C   UNL     1     -11.648  15.096  68.005  1.00  0.00    -0.328 C  
HETATM    2  N   UNL     1     -10.537  14.859  67.076  1.00  0.00    -0.283 NA 
HETATM    3  C   UNL     1     -10.204  16.106  66.385  1.00  0.00    -0.306 C  
ENDROOT
BRANCH   2   4
HETATM    4  C   UNL     1      -9.389  14.300  67.813  1.00  0.00    -0.198 C  
BRANCH   4   5
HETATM    5  C   UNL     1      -9.383  12.771  67.881  1.00  0.00    -0.208 C  
BRANCH   5   6
HETATM    6  C   UNL     1      -9.417  12.161  66.483  1.00  0.00    -0.231 C  
BRANCH   6   7
HETATM    7  O   UNL     1     -10.571  11.321  66.410  1.00  0.00    -0.249 OA 
BRANCH   7   8
HETATM    8  C   UNL     1     -10.311  10.026  66.688  1.00  0.00    -0.213 A  
HETATM    9  N   UNL     1     -10.861   9.439  67.750  1.00  0.00    -0.222 NA 
HETATM   10  N   UNL     1     -10.352   8.185  67.705  1.00  0.00    -0.236 NA 
HETATM   11  C   UNL     1      -8.026   8.156  64.299  1.00  0.00    -0.144 A  
HETATM   12  C   UNL     1      -9.528   7.958  66.619  1.00  0.00    -0.211 A  
HETATM   13  C   UNL     1      -8.814   6.832  66.186  1.00  0.00    -0.161 A  
HETATM   14  C   UNL     1      -9.500   9.165  65.924  1.00  0.00    -0.326 A  
HETATM   15  C   UNL     1      -8.739   9.273  64.746  1.00  0.00    -0.220 A  
HETATM   16  C   UNL     1      -8.062   6.957  65.011  1.00  0.00    -0.117 A  
BRANCH  10  17
HETATM   17  C   UNL     1     -10.768   7.215  68.711  1.00  0.00    -0.169 C  
BRANCH  17  18
HETATM   18  C   UNL     1     -10.360   7.621  70.108  1.00  0.00    -0.217 A  
HETATM   19  C   UNL     1     -11.319   7.795  71.118  1.00  0.00    -0.290 A  
HETATM   20  C   UNL     1      -9.589   8.377  72.701  1.00  0.00    -0.337 A  
HETATM   21  C   UNL     1      -8.624   8.181  71.714  1.00  0.00    -0.191 A  
HETATM   22  C   UNL     1     -10.935   8.178  72.405  1.00  0.00    -0.414 A  
HETATM   23  C   UNL     1      -9.006   7.802  70.426  1.00  0.00    -0.147 A  
ENDBRANCH  17  18
ENDBRANCH  10  17
ENDBRANCH   7   8
ENDBRANCH   6   7
ENDBRANCH   5   6
ENDBRANCH   4   5
ENDBRANCH   2   4
TORSDOF 7
ENDMDL
MODEL      198
REMARK 921   NORMALIZED FREE ENERGY PREDICTED BY IDOCK:   -4.16 KCAL/MOL
REMARK 922        TOTAL FREE ENERGY PREDICTED BY IDOCK:   -6.25 KCAL/MOL
REMARK 923 INTER-LIGAND FREE ENERGY PREDICTED BY IDOCK:   -5.42 KCAL/MOL
REMARK 924 INTRA-LIGAND FREE ENERGY PREDICTED BY IDOCK:   -0.83 KCAL/MOL
REMARK 927      BINDING AFFINITY PREDICTED BY RF-SCORE:    0.00 PKD
ROOT
HETATM    1  C   UNL     1     -13.812  14.000  72.318  1.00  0.00    -0.557 C  
HETATM    2  N   UNL     1     -13.388  12.993  71.339  1.00  0.00    -0.192 NA 
HETATM    3  C   UNL     1     -12.254  13.508  70.571  1.00  0.00    -0.361 C  
ENDROOT
BRANCH   2   4
HETATM    4  C   UNL     1     -13.071  11.733  72.034  1.00  0.00    -0.331 C  
BRANCH   4   5
HETATM    5  C   UNL     1     -12.965  10.523  71.103  1.00  0.00    -0.506 C  
BRANCH   5   6
HETATM    6  C   UNL     1     -11.564   9.920  71.148  1.00  0.00    -0.389 C  
BRANCH   6   7
HETATM    7  O   UNL     1     -11.584   8.731  70.355  1.00  0.00    -0.213 OA 
BRANCH   7   8
HETATM    8  C   UNL     1     -10.647   8.716  69.384  1.00  0.00    -0.199 A  
HETATM    9  N   UNL     1      -9.684   7.796  69.389  1.00  0.00    -0.167 NA 
HETATM   10  N   UNL     1      -8.946   8.120  68.300  1.00  0.00    -0.136 NA 
HETATM   11  C   UNL     1     -10.924  11.343  66.654  1.00  0.00    -0.341 A  
HETATM   12  C   UNL     1      -9.444   9.195  67.591  1.00  0.00    -0.140 A  
HETATM   13  C   UNL     1      -9.015   9.848  66.426  1.00  0.00    -0.169 A  
HETATM   14  C   UNL     1     -10.582   9.597  68.287  1.00  0.00    -0.268 A  
HETATM   15  C   UNL     1     -11.338  10.686  67.818  1.00  0.00    -0.320 A  
HETATM   16  C   UNL     1      -9.779  10.930  65.973  1.00  0.00    -0.268 A  
BRANCH  10  17
HETATM   17  C   UNL     1      -7.798   7.291  67.951  1.00  0.00    -0.118 C  
BRANCH  17  18
HETATM   18  C   UNL     1      -8.186   6.080  67.135  1.00  0.00    -0.105 A  
HETATM   19  C   UNL     1      -8.379   6.176  65.748  1.00  0.00    -0.143 A  
HETATM   20  C   UNL     1      -8.910   3.823  65.629  1.00  0.00    -0.123 A  
HETATM   21  C   UNL     1      -8.696   3.708  67.001  1.00  0.00    -0.124 A  
HETATM   22  C   UNL     1      -8.745   5.055  65.001  1.00  0.00    -0.151 A  
HETATM   23  C   UNL     1      -8.333   4.828  67.750  1.00  0.00    -0.103 A  
ENDBRANCH  17  18
ENDBRANCH  10  17
ENDBRANCH   7   8
ENDBRANCH   6   7
ENDBRANCH   5   6
ENDBRANCH   4   5
ENDBRANCH   2   4
TORSDOF 7
ENDMDL
MODEL      199
REMARK 921   NORMALIZED FREE ENERGY PREDICTED BY IDOCK:   -4.14 KCAL/MOL
REMARK 922        TOTAL FREE ENERGY PREDICTED BY IDOCK:   -6.22 KCAL/MOL
REMARK 923 INTER-LIGAND FREE ENERGY PREDICTED BY IDOCK:   -5.18 KCAL/MOL
REMARK 924 INTRA-LIGAND FREE ENERGY PREDICTED BY IDOCK:   -1.04 KCAL/MOL
REMARK 927      BINDING AFFINITY PREDICTED BY RF-SCORE:    0.00 PKD
ROOT
HETATM    1  C   UNL     1      -6.943   7.661  69.904  1.00  0.00    -0.054 C  
HETATM    2  N   UNL     1      -7.481   9.005  70.137  1.00  0.00    -0.063 NA 
HETATM    3  C   UNL     1      -8.796   8.901  70.773  1.00  0.00    -0.208 C  
ENDROOT
BRANCH   2   4
HETATM    4  C   UNL     1      -6.526   9.786  70.945  1.00  0.00    -0.062 C  
BRANCH   4   5
HETATM    5  C   UNL     1      -6.084  11.095  70.287  1.00  0.00    -0.144 C  
BRANCH   5   6
HETATM    6  C   UNL     1      -5.754  10.881  68.813  1.00  0.00    -0.040 C  
BRANCH   6   7
HETATM    7  O   UNL     1      -5.987  12.118  68.138  1.00  0.00    -0.050 OA 
BRANCH   7   8
HETATM    8  C   UNL     1      -7.286  12.486  68.123  1.00  0.00    -0.110 A  
HETATM    9  N   UNL     1      -8.227  11.631  67.724  1.00  0.00    -0.134 NA 
HETATM   10  N   UNL     1      -9.364  12.359  67.824  1.00  0.00    -0.189 NA 
HETATM   11  C   UNL     1      -8.115  15.996  69.315  1.00  0.00    -0.212 A  
HETATM   12  C   UNL     1      -9.166  13.636  68.313  1.00  0.00    -0.198 A  
HETATM   13  C   UNL     1     -10.041  14.699  68.580  1.00  0.00    -0.238 A  
HETATM   14  C   UNL     1      -7.794  13.734  68.532  1.00  0.00    -0.132 A  
HETATM   15  C   UNL     1      -7.253  14.929  69.040  1.00  0.00    -0.138 A  
HETATM   16  C   UNL     1      -9.486  15.881  69.086  1.00  0.00    -0.260 A  
BRANCH  10  17
HETATM   17  C   UNL     1     -10.639  11.728  67.500  1.00  0.00    -0.214 C  
BRANCH  17  18
HETATM   18  C   UNL     1     -11.139  12.108  66.127  1.00  0.00    -0.354 A  
HETATM   19  C   UNL     1     -10.661  11.458  64.978  1.00  0.00    -0.359 A  
HETATM   20  C   UNL     1     -12.076  12.825  63.578  1.00  0.00    -0.642 A  
HETATM   21  C   UNL     1     -12.580  13.461  64.712  1.00  0.00    -0.370 A  
HETATM   22  C   UNL     1     -11.122  11.820  63.712  1.00  0.00    -0.513 A  
HETATM   23  C   UNL     1     -12.118  13.103  65.979  1.00  0.00    -0.495 A  
ENDBRANCH  17  18
ENDBRANCH  10  17
ENDBRANCH   7   8
ENDBRANCH   6   7
ENDBRANCH   5   6
ENDBRANCH   4   5
ENDBRANCH   2   4
TORSDOF 7
ENDMDL
MODEL      200
REMARK 921   NORMALIZED FREE ENERGY PREDICTED BY IDOCK:   -4.11 KCAL/MOL
REMARK 922        TOTAL FREE ENERGY PREDICTED BY IDOCK:   -6.19 KCAL/MOL
REMARK 923 INTER-LIGAND FREE ENERGY PREDICTED BY IDOCK:   -5.28 KCAL/MOL
REMARK 924 INTRA-LIGAND FREE ENERGY PREDICTED BY IDOCK:   -0.91 KCAL/MOL
REMARK 927      BINDING AFFINITY PREDICTED BY RF-SCORE:    0.00 PKD
ROOT
HETATM    1  C   UNL     1     -14.269   7.920  71.675  1.00  0.00    -0.459 C  
HETATM    2  N   UNL     1     -13.261   8.821  71.106  1.00  0.00    -0.137 NA 
HETATM    3  C   UNL     1     -13.167  10.028  71.929  1.00  0.00    -0.452 C  
ENDROOT
BRANCH   2   4
HETATM    4  C   UNL     1     -11.972   8.113  70.997  1.00  0.00    -0.240 C  
BRANCH   4   5
HETATM    5  C   UNL     1     -10.779   8.918  71.517  1.00  0.00    -0.398 C  
BRANCH   5   6
HETATM    6  C   UNL     1      -9.929   9.442  70.363  1.00  0.00    -0.252 C  
BRANCH   6   7
HETATM    7  O   UNL     1     -10.367   8.781  69.175  1.00  0.00    -0.210 OA 
BRANCH   7   8
HETATM    8  C   UNL     1      -9.981   9.403  68.040  1.00  0.00    -0.176 A  
HETATM    9  N   UNL     1     -10.844  10.148  67.351  1.00  0.00    -0.280 NA 
HETATM   10  N   UNL     1     -10.109  10.569  66.294  1.00  0.00    -0.224 NA 
HETATM   11  C   UNL     1      -6.364   8.979  66.964  1.00  0.00    -0.060 A  
HETATM   12  C   UNL     1      -8.797  10.139  66.323  1.00  0.00    -0.148 A  
HETATM   13  C   UNL     1      -7.711  10.340  65.460  1.00  0.00    -0.149 A  
HETATM   14  C   UNL     1      -8.689   9.375  67.483  1.00  0.00    -0.123 A  
HETATM   15  C   UNL     1      -7.457   8.783  67.815  1.00  0.00    -0.093 A  
HETATM   16  C   UNL     1      -6.491   9.743  65.805  1.00  0.00    -0.083 A  
BRANCH  10  17
HETATM   17  C   UNL     1     -10.722  11.461  65.317  1.00  0.00    -0.265 C  
BRANCH  17  18
HETATM   18  C   UNL     1     -10.664  12.910  65.741  1.00  0.00    -0.293 A  
HETATM   19  C   UNL     1      -9.437  13.587  65.833  1.00  0.00    -0.048 A  
HETATM   20  C   UNL     1     -10.569  15.603  66.532  1.00  0.00    -0.307 A  
HETATM   21  C   UNL     1     -11.796  14.951  66.419  1.00  0.00    -0.137 A  
HETATM   22  C   UNL     1      -9.391  14.923  66.233  1.00  0.00    -0.329 A  
HETATM   23  C   UNL     1     -11.845  13.614  66.022  1.00  0.00    -0.415 A  
ENDBRANCH  17  18
ENDBRANCH  10  17
ENDBRANCH   7   8
ENDBRANCH   6   7
ENDBRANCH   5   6
ENDBRANCH   4   5
ENDBRANCH   2   4
TORSDOF 7
ENDMDL
MODEL      201
REMARK 921   NORMALIZED FREE ENERGY PREDICTED BY IDOCK:   -4.09 KCAL/MOL
REMARK 922        TOTAL FREE ENERGY PREDICTED BY IDOCK:   -6.16 KCAL/MOL
REMARK 923 INTER-LIGAND FREE ENERGY PREDICTED BY IDOCK:   -5.82 KCAL/MOL
REMARK 924 INTRA-LIGAND FREE ENERGY PREDICTED BY IDOCK:   -0.34 KCAL/MOL
REMARK 927      BINDING AFFINITY PREDICTED BY RF-SCORE:    0.00 PKD
ROOT
HETATM    1  C   UNL     1      -9.107   9.323  70.760  1.00  0.00    -0.244 C  
HETATM    2  N   UNL     1     -10.145   9.513  69.741  1.00  0.00    -0.201 NA 
HETATM    3  C   UNL     1     -11.461   9.519  70.381  1.00  0.00    -0.242 C  
ENDROOT
BRANCH   2   4
HETATM    4  C   UNL     1      -9.879  10.754  68.991  1.00  0.00    -0.194 C  
BRANCH   4   5
HETATM    5  C   UNL     1     -10.468  10.760  67.578  1.00  0.00    -0.260 C  
BRANCH   5   6
HETATM    6  C   UNL     1     -11.677  11.686  67.494  1.00  0.00    -0.214 C  
BRANCH   6   7
HETATM    7  O   UNL     1     -11.537  12.668  68.523  1.00  0.00    -0.278 OA 
BRANCH   7   8
HETATM    8  C   UNL     1     -11.143  13.875  68.065  1.00  0.00    -0.259 A  
HETATM    9  N   UNL     1     -10.520  14.734  68.870  1.00  0.00    -0.243 NA 
HETATM   10  N   UNL     1     -10.317  15.809  68.072  1.00  0.00    -0.246 NA 
HETATM   11  C   UNL     1     -11.835  14.662  64.414  1.00  0.00    -0.405 A  
HETATM   12  C   UNL     1     -10.762  15.632  66.777  1.00  0.00    -0.300 A  
HETATM   13  C   UNL     1     -10.747  16.459  65.644  1.00  0.00    -0.280 A  
HETATM   14  C   UNL     1     -11.301  14.348  66.748  1.00  0.00    -0.360 A  
HETATM   15  C   UNL     1     -11.847  13.849  65.552  1.00  0.00    -0.372 A  
HETATM   16  C   UNL     1     -11.295  15.947  64.462  1.00  0.00    -0.316 A  
BRANCH  10  17
HETATM   17  C   UNL     1      -9.608  16.965  68.610  1.00  0.00    -0.265 C  
BRANCH  17  18
HETATM   18  C   UNL     1      -8.126  16.917  68.324  1.00  0.00    -0.217 A  
HETATM   19  C   UNL     1      -7.233  16.329  69.234  1.00  0.00    -0.221 A  
HETATM   20  C   UNL     1      -5.371  16.838  67.782  1.00  0.00    -0.139 A  
HETATM   21  C   UNL     1      -6.249  17.402  66.858  1.00  0.00    -0.211 A  
HETATM   22  C   UNL     1      -5.864  16.296  68.967  1.00  0.00    -0.130 A  
HETATM   23  C   UNL     1      -7.618  17.438  67.124  1.00  0.00    -0.226 A  
ENDBRANCH  17  18
ENDBRANCH  10  17
ENDBRANCH   7   8
ENDBRANCH   6   7
ENDBRANCH   5   6
ENDBRANCH   4   5
ENDBRANCH   2   4
TORSDOF 7
ENDMDL
MODEL      202
REMARK 921   NORMALIZED FREE ENERGY PREDICTED BY IDOCK:   -4.08 KCAL/MOL
REMARK 922        TOTAL FREE ENERGY PREDICTED BY IDOCK:   -6.14 KCAL/MOL
REMARK 923 INTER-LIGAND FREE ENERGY PREDICTED BY IDOCK:   -4.78 KCAL/MOL
REMARK 924 INTRA-LIGAND FREE ENERGY PREDICTED BY IDOCK:   -1.36 KCAL/MOL
REMARK 927      BINDING AFFINITY PREDICTED BY RF-SCORE:    0.00 PKD
ROOT
HETATM    1  C   UNL     1      -7.104   8.091  69.488  1.00  0.00    -0.058 C  
HETATM    2  N   UNL     1      -7.450   9.516  69.507  1.00  0.00    -0.084 NA 
HETATM    3  C   UNL     1      -8.768   9.691  70.120  1.00  0.00    -0.231 C  
ENDROOT
BRANCH   2   4
HETATM    4  C   UNL     1      -6.397  10.270  70.213  1.00  0.00    -0.123 C  
BRANCH   4   5
HETATM    5  C   UNL     1      -6.294  11.736  69.784  1.00  0.00    -0.125 C  
BRANCH   5   6
HETATM    6  C   UNL     1      -6.109  11.853  68.275  1.00  0.00    -0.050 C  
BRANCH   6   7
HETATM    7  O   UNL     1      -6.896  12.959  67.831  1.00  0.00    -0.090 OA 
BRANCH   7   8
HETATM    8  C   UNL     1      -8.095  12.599  67.326  1.00  0.00    -0.178 A  
HETATM    9  N   UNL     1      -8.193  11.564  66.493  1.00  0.00    -0.157 NA 
HETATM   10  N   UNL     1      -9.514  11.537  66.193  1.00  0.00    -0.215 NA 
HETATM   11  C   UNL     1     -11.124  14.608  68.426  1.00  0.00    -0.270 A  
HETATM   12  C   UNL     1     -10.252  12.504  66.848  1.00  0.00    -0.226 A  
HETATM   13  C   UNL     1     -11.617  12.826  66.841  1.00  0.00    -0.428 A  
HETATM   14  C   UNL     1      -9.329  13.210  67.616  1.00  0.00    -0.205 A  
HETATM   15  C   UNL     1      -9.765  14.280  68.420  1.00  0.00    -0.225 A  
HETATM   16  C   UNL     1     -12.034  13.893  67.647  1.00  0.00    -0.403 A  
BRANCH  10  17
HETATM   17  C   UNL     1     -10.019  10.488  65.315  1.00  0.00    -0.299 C  
BRANCH  17  18
HETATM   18  C   UNL     1      -9.743   9.104  65.850  1.00  0.00    -0.336 A  
HETATM   19  C   UNL     1      -8.708   8.317  65.320  1.00  0.00    -0.121 A  
HETATM   20  C   UNL     1      -9.241   6.528  66.853  1.00  0.00    -0.153 A  
HETATM   21  C   UNL     1     -10.254   7.308  67.407  1.00  0.00    -0.304 A  
HETATM   22  C   UNL     1      -8.464   7.035  65.814  1.00  0.00    -0.154 A  
HETATM   23  C   UNL     1     -10.503   8.590  66.913  1.00  0.00    -0.345 A  
ENDBRANCH  17  18
ENDBRANCH  10  17
ENDBRANCH   7   8
ENDBRANCH   6   7
ENDBRANCH   5   6
ENDBRANCH   4   5
ENDBRANCH   2   4
TORSDOF 7
ENDMDL
MODEL      203
REMARK 921   NORMALIZED FREE ENERGY PREDICTED BY IDOCK:   -4.05 KCAL/MOL
REMARK 922        TOTAL FREE ENERGY PREDICTED BY IDOCK:   -6.09 KCAL/MOL
REMARK 923 INTER-LIGAND FREE ENERGY PREDICTED BY IDOCK:   -5.07 KCAL/MOL
REMARK 924 INTRA-LIGAND FREE ENERGY PREDICTED BY IDOCK:   -1.02 KCAL/MOL
REMARK 927      BINDING AFFINITY PREDICTED BY RF-SCORE:    0.00 PKD
ROOT
HETATM    1  C   UNL     1      -9.983  18.885  66.506  1.00  0.00    -0.384 C  
HETATM    2  N   UNL     1      -8.579  18.463  66.542  1.00  0.00    -0.275 NA 
HETATM    3  C   UNL     1      -7.721  19.593  66.180  1.00  0.00    -0.321 C  
ENDROOT
BRANCH   2   4
HETATM    4  C   UNL     1      -8.261  17.922  67.876  1.00  0.00    -0.246 C  
BRANCH   4   5
HETATM    5  C   UNL     1      -6.875  17.278  67.968  1.00  0.00    -0.178 C  
BRANCH   5   6
HETATM    6  C   UNL     1      -6.901  15.846  67.444  1.00  0.00    -0.194 C  
BRANCH   6   7
HETATM    7  O   UNL     1      -7.391  15.014  68.496  1.00  0.00    -0.108 OA 
BRANCH   7   8
HETATM    8  C   UNL     1      -8.200  14.022  68.066  1.00  0.00    -0.155 A  
HETATM    9  N   UNL     1      -7.714  12.802  67.845  1.00  0.00    -0.129 NA 
HETATM   10  N   UNL     1      -8.797  12.115  67.411  1.00  0.00    -0.174 NA 
HETATM   11  C   UNL     1     -11.874  14.855  67.587  1.00  0.00    -0.268 A  
HETATM   12  C   UNL     1      -9.958  12.863  67.392  1.00  0.00    -0.217 A  
HETATM   13  C   UNL     1     -11.279  12.560  67.031  1.00  0.00    -0.353 A  
HETATM   14  C   UNL     1      -9.585  14.129  67.837  1.00  0.00    -0.223 A  
HETATM   15  C   UNL     1     -10.552  15.145  67.939  1.00  0.00    -0.257 A  
HETATM   16  C   UNL     1     -12.229  13.584  67.138  1.00  0.00    -0.328 A  
BRANCH  10  17
HETATM   17  C   UNL     1      -8.658  10.697  67.099  1.00  0.00    -0.127 C  
BRANCH  17  18
HETATM   18  C   UNL     1      -8.353  10.453  65.641  1.00  0.00    -0.163 A  
HETATM   19  C   UNL     1      -9.353  10.579  64.663  1.00  0.00    -0.294 A  
HETATM   20  C   UNL     1      -7.775   9.993  62.931  1.00  0.00    -0.137 A  
HETATM   21  C   UNL     1      -6.767   9.891  63.888  1.00  0.00    -0.126 A  
HETATM   22  C   UNL     1      -9.066  10.344  63.317  1.00  0.00    -0.279 A  
HETATM   23  C   UNL     1      -7.052  10.122  65.234  1.00  0.00    -0.137 A  
ENDBRANCH  17  18
ENDBRANCH  10  17
ENDBRANCH   7   8
ENDBRANCH   6   7
ENDBRANCH   5   6
ENDBRANCH   4   5
ENDBRANCH   2   4
TORSDOF 7
ENDMDL
MODEL      204
REMARK 921   NORMALIZED FREE ENERGY PREDICTED BY IDOCK:   -4.05 KCAL/MOL
REMARK 922        TOTAL FREE ENERGY PREDICTED BY IDOCK:   -6.09 KCAL/MOL
REMARK 923 INTER-LIGAND FREE ENERGY PREDICTED BY IDOCK:   -5.39 KCAL/MOL
REMARK 924 INTRA-LIGAND FREE ENERGY PREDICTED BY IDOCK:   -0.70 KCAL/MOL
REMARK 927      BINDING AFFINITY PREDICTED BY RF-SCORE:    0.00 PKD
ROOT
HETATM    1  C   UNL     1      -6.108  10.136  68.419  1.00  0.00    -0.044 C  
HETATM    2  N   UNL     1      -7.342   9.508  67.933  1.00  0.00    -0.082 NA 
HETATM    3  C   UNL     1      -7.362   8.099  68.331  1.00  0.00    -0.094 C  
ENDROOT
BRANCH   2   4
HETATM    4  C   UNL     1      -8.508  10.252  68.441  1.00  0.00    -0.124 C  
BRANCH   4   5
HETATM    5  C   UNL     1      -9.788  10.022  67.635  1.00  0.00    -0.194 C  
BRANCH   5   6
HETATM    6  C   UNL     1     -10.982  10.700  68.299  1.00  0.00    -0.263 C  
BRANCH   6   7
HETATM    7  O   UNL     1     -11.396  11.769  67.446  1.00  0.00    -0.281 OA 
BRANCH   7   8
HETATM    8  C   UNL     1     -11.109  12.993  67.939  1.00  0.00    -0.255 A  
HETATM    9  N   UNL     1     -10.347  13.839  67.247  1.00  0.00    -0.252 NA 
HETATM   10  N   UNL     1     -10.269  14.918  68.063  1.00  0.00    -0.227 NA 
HETATM   11  C   UNL     1     -12.606  13.909  71.308  1.00  0.00    -0.450 A  
HETATM   12  C   UNL     1     -10.995  14.786  69.230  1.00  0.00    -0.261 A  
HETATM   13  C   UNL     1     -11.199  15.637  70.325  1.00  0.00    -0.357 A  
HETATM   14  C   UNL     1     -11.572  13.519  69.160  1.00  0.00    -0.359 A  
HETATM   15  C   UNL     1     -12.391  13.068  70.211  1.00  0.00    -0.311 A  
HETATM   16  C   UNL     1     -12.017  15.172  71.363  1.00  0.00    -0.408 A  
BRANCH  10  17
HETATM   17  C   UNL     1      -9.530  16.092  67.614  1.00  0.00    -0.216 C  
BRANCH  17  18
HETATM   18  C   UNL     1      -8.240  16.289  68.375  1.00  0.00    -0.185 A  
HETATM   19  C   UNL     1      -7.680  15.246  69.129  1.00  0.00    -0.200 A  
HETATM   20  C   UNL     1      -5.843  16.669  69.789  1.00  0.00    -0.206 A  
HETATM   21  C   UNL     1      -6.374  17.705  69.022  1.00  0.00    -0.223 A  
HETATM   22  C   UNL     1      -6.493  15.438  69.837  1.00  0.00    -0.155 A  
HETATM   23  C   UNL     1      -7.563  17.516  68.316  1.00  0.00    -0.240 A  
ENDBRANCH  17  18
ENDBRANCH  10  17
ENDBRANCH   7   8
ENDBRANCH   6   7
ENDBRANCH   5   6
ENDBRANCH   4   5
ENDBRANCH   2   4
TORSDOF 7
ENDMDL
MODEL      205
REMARK 921   NORMALIZED FREE ENERGY PREDICTED BY IDOCK:   -4.04 KCAL/MOL
REMARK 922        TOTAL FREE ENERGY PREDICTED BY IDOCK:   -6.09 KCAL/MOL
REMARK 923 INTER-LIGAND FREE ENERGY PREDICTED BY IDOCK:   -5.29 KCAL/MOL
REMARK 924 INTRA-LIGAND FREE ENERGY PREDICTED BY IDOCK:   -0.79 KCAL/MOL
REMARK 927      BINDING AFFINITY PREDICTED BY RF-SCORE:    0.00 PKD
ROOT
HETATM    1  C   UNL     1      -9.911   8.034  71.150  1.00  0.00    -0.166 C  
HETATM    2  N   UNL     1     -11.208   7.625  71.699  1.00  0.00    -0.243 NA 
HETATM    3  C   UNL     1     -11.133   7.600  73.161  1.00  0.00    -0.317 C  
ENDROOT
BRANCH   2   4
HETATM    4  C   UNL     1     -12.260   8.533  71.206  1.00  0.00    -0.277 C  
BRANCH   4   5
HETATM    5  C   UNL     1     -11.952  10.015  71.430  1.00  0.00    -0.470 C  
BRANCH   5   6
HETATM    6  C   UNL     1     -12.152  10.815  70.146  1.00  0.00    -0.346 C  
BRANCH   6   7
HETATM    7  O   UNL     1     -11.563  10.068  69.080  1.00  0.00    -0.104 OA 
BRANCH   7   8
HETATM    8  C   UNL     1     -10.584  10.736  68.433  1.00  0.00    -0.197 A  
HETATM    9  N   UNL     1     -10.132  11.897  68.904  1.00  0.00    -0.109 NA 
HETATM   10  N   UNL     1      -9.200  12.256  67.989  1.00  0.00    -0.190 NA 
HETATM   11  C   UNL     1      -9.164   9.133  65.296  1.00  0.00    -0.243 A  
HETATM   12  C   UNL     1      -9.027  11.330  66.979  1.00  0.00    -0.154 A  
HETATM   13  C   UNL     1      -8.184  11.290  65.859  1.00  0.00     0.012 A  
HETATM   14  C   UNL     1      -9.927  10.306  67.264  1.00  0.00    -0.233 A  
HETATM   15  C   UNL     1     -10.002   9.188  66.414  1.00  0.00    -0.358 A  
HETATM   16  C   UNL     1      -8.272  10.170  65.023  1.00  0.00    -0.152 A  
BRANCH  10  17
HETATM   17  C   UNL     1      -8.445  13.486  68.194  1.00  0.00    -0.172 C  
BRANCH  17  18
HETATM   18  C   UNL     1      -9.254  14.721  67.875  1.00  0.00    -0.191 A  
HETATM   19  C   UNL     1      -9.157  15.344  66.620  1.00  0.00    -0.310 A  
HETATM   20  C   UNL     1     -10.762  17.018  67.295  1.00  0.00    -0.206 A  
HETATM   21  C   UNL     1     -10.888  16.395  68.535  1.00  0.00    -0.339 A  
HETATM   22  C   UNL     1      -9.902  16.489  66.336  1.00  0.00    -0.311 A  
HETATM   23  C   UNL     1     -10.142  15.251  68.823  1.00  0.00    -0.219 A  
ENDBRANCH  17  18
ENDBRANCH  10  17
ENDBRANCH   7   8
ENDBRANCH   6   7
ENDBRANCH   5   6
ENDBRANCH   4   5
ENDBRANCH   2   4
TORSDOF 7
ENDMDL
MODEL      206
REMARK 921   NORMALIZED FREE ENERGY PREDICTED BY IDOCK:   -4.04 KCAL/MOL
REMARK 922        TOTAL FREE ENERGY PREDICTED BY IDOCK:   -6.08 KCAL/MOL
REMARK 923 INTER-LIGAND FREE ENERGY PREDICTED BY IDOCK:   -5.20 KCAL/MOL
REMARK 924 INTRA-LIGAND FREE ENERGY PREDICTED BY IDOCK:   -0.88 KCAL/MOL
REMARK 927      BINDING AFFINITY PREDICTED BY RF-SCORE:    0.00 PKD
ROOT
HETATM    1  C   UNL     1     -11.814  13.884  68.670  1.00  0.00    -0.372 C  
HETATM    2  N   UNL     1     -11.673  12.838  69.689  1.00  0.00    -0.312 NA 
HETATM    3  C   UNL     1     -12.273  13.296  70.943  1.00  0.00    -0.260 C  
ENDROOT
BRANCH   2   4
HETATM    4  C   UNL     1     -12.281  11.588  69.199  1.00  0.00    -0.156 C  
BRANCH   4   5
HETATM    5  C   UNL     1     -11.288  10.642  68.519  1.00  0.00    -0.348 C  
BRANCH   5   6
HETATM    6  C   UNL     1      -9.878  10.848  69.063  1.00  0.00    -0.180 C  
BRANCH   6   7
HETATM    7  O   UNL     1      -9.122  11.515  68.051  1.00  0.00    -0.161 OA 
BRANCH   7   8
HETATM    8  C   UNL     1      -8.880  10.748  66.967  1.00  0.00    -0.135 A  
HETATM    9  N   UNL     1      -8.189   9.615  67.081  1.00  0.00    -0.120 NA 
HETATM   10  N   UNL     1      -8.136   9.159  65.806  1.00  0.00    -0.109 NA 
HETATM   11  C   UNL     1     -10.295  11.931  63.646  1.00  0.00    -0.477 A  
HETATM   12  C   UNL     1      -8.810   9.957  64.902  1.00  0.00    -0.193 A  
HETATM   13  C   UNL     1      -9.016   9.862  63.519  1.00  0.00    -0.277 A  
HETATM   14  C   UNL     1      -9.323  11.010  65.656  1.00  0.00    -0.239 A  
HETATM   15  C   UNL     1     -10.078  12.016  65.025  1.00  0.00    -0.293 A  
HETATM   16  C   UNL     1      -9.770  10.871  62.906  1.00  0.00    -0.349 A  
BRANCH  10  17
HETATM   17  C   UNL     1      -7.475   7.888  65.537  1.00  0.00    -0.079 C  
BRANCH  17  18
HETATM   18  C   UNL     1      -8.432   6.720  65.576  1.00  0.00    -0.124 A  
HETATM   19  C   UNL     1      -9.445   6.648  66.545  1.00  0.00    -0.192 A  
HETATM   20  C   UNL     1     -10.203   4.541  65.639  1.00  0.00    -0.275 A  
HETATM   21  C   UNL     1      -9.219   4.612  64.655  1.00  0.00    -0.119 A  
HETATM   22  C   UNL     1     -10.321   5.561  66.580  1.00  0.00    -0.309 A  
HETATM   23  C   UNL     1      -8.340   5.696  64.620  1.00  0.00    -0.119 A  
ENDBRANCH  17  18
ENDBRANCH  10  17
ENDBRANCH   7   8
ENDBRANCH   6   7
ENDBRANCH   5   6
ENDBRANCH   4   5
ENDBRANCH   2   4
TORSDOF 7
ENDMDL
MODEL      207
REMARK 921   NORMALIZED FREE ENERGY PREDICTED BY IDOCK:   -4.04 KCAL/MOL
REMARK 922        TOTAL FREE ENERGY PREDICTED BY IDOCK:   -6.08 KCAL/MOL
REMARK 923 INTER-LIGAND FREE ENERGY PREDICTED BY IDOCK:   -5.81 KCAL/MOL
REMARK 924 INTRA-LIGAND FREE ENERGY PREDICTED BY IDOCK:   -0.27 KCAL/MOL
REMARK 927      BINDING AFFINITY PREDICTED BY RF-SCORE:    0.00 PKD
ROOT
HETATM    1  C   UNL     1     -10.114   4.951  71.638  1.00  0.00    -0.198 C  
HETATM    2  N   UNL     1     -11.019   5.975  72.172  1.00  0.00    -0.254 NA 
HETATM    3  C   UNL     1     -10.291   6.826  73.114  1.00  0.00    -0.247 C  
ENDROOT
BRANCH   2   4
HETATM    4  C   UNL     1     -11.606   6.743  71.059  1.00  0.00    -0.339 C  
BRANCH   4   5
HETATM    5  C   UNL     1     -11.261   6.188  69.675  1.00  0.00    -0.488 C  
BRANCH   5   6
HETATM    6  C   UNL     1     -10.844   7.306  68.725  1.00  0.00    -0.086 C  
BRANCH   6   7
HETATM    7  O   UNL     1      -9.867   8.099  69.402  1.00  0.00    -0.176 OA 
BRANCH   7   8
HETATM    8  C   UNL     1      -9.825   9.380  68.976  1.00  0.00    -0.169 A  
HETATM    9  N   UNL     1     -10.934  10.117  68.939  1.00  0.00    -0.227 NA 
HETATM   10  N   UNL     1     -10.498  11.300  68.445  1.00  0.00    -0.188 NA 
HETATM   11  C   UNL     1      -6.436  10.769  67.968  1.00  0.00    -0.062 A  
HETATM   12  C   UNL     1      -9.138  11.337  68.209  1.00  0.00    -0.173 A  
HETATM   13  C   UNL     1      -8.284  12.337  67.721  1.00  0.00    -0.161 A  
HETATM   14  C   UNL     1      -8.670  10.075  68.569  1.00  0.00    -0.123 A  
HETATM   15  C   UNL     1      -7.300   9.780  68.450  1.00  0.00    -0.078 A  
HETATM   16  C   UNL     1      -6.923  12.026  67.608  1.00  0.00    -0.118 A  
BRANCH  10  17
HETATM   17  C   UNL     1     -11.448  12.397  68.295  1.00  0.00    -0.310 C  
BRANCH  17  18
HETATM   18  C   UNL     1     -12.091  12.788  69.605  1.00  0.00    -0.286 A  
HETATM   19  C   UNL     1     -12.490  14.112  69.846  1.00  0.00    -0.313 A  
HETATM   20  C   UNL     1     -13.282  13.503  72.045  1.00  0.00    -0.529 A  
HETATM   21  C   UNL     1     -12.915  12.180  71.809  1.00  0.00    -0.437 A  
HETATM   22  C   UNL     1     -13.076  14.468  71.062  1.00  0.00    -0.429 A  
HETATM   23  C   UNL     1     -12.326  11.822  70.595  1.00  0.00    -0.421 A  
ENDBRANCH  17  18
ENDBRANCH  10  17
ENDBRANCH   7   8
ENDBRANCH   6   7
ENDBRANCH   5   6
ENDBRANCH   4   5
ENDBRANCH   2   4
TORSDOF 7
ENDMDL
MODEL      208
REMARK 921   NORMALIZED FREE ENERGY PREDICTED BY IDOCK:   -4.03 KCAL/MOL
REMARK 922        TOTAL FREE ENERGY PREDICTED BY IDOCK:   -6.07 KCAL/MOL
REMARK 923 INTER-LIGAND FREE ENERGY PREDICTED BY IDOCK:   -5.27 KCAL/MOL
REMARK 924 INTRA-LIGAND FREE ENERGY PREDICTED BY IDOCK:   -0.79 KCAL/MOL
REMARK 927      BINDING AFFINITY PREDICTED BY RF-SCORE:    0.00 PKD
ROOT
HETATM    1  C   UNL     1      -8.244   4.191  69.658  1.00  0.00    -0.058 C  
HETATM    2  N   UNL     1      -8.742   4.931  70.823  1.00  0.00    -0.119 NA 
HETATM    3  C   UNL     1      -7.677   5.789  71.347  1.00  0.00    -0.107 C  
ENDROOT
BRANCH   2   4
HETATM    4  C   UNL     1      -9.944   5.696  70.445  1.00  0.00    -0.206 C  
BRANCH   4   5
HETATM    5  C   UNL     1     -10.341   5.537  68.975  1.00  0.00    -0.304 C  
BRANCH   5   6
HETATM    6  C   UNL     1     -10.218   6.862  68.230  1.00  0.00    -0.180 C  
BRANCH   6   7
HETATM    7  O   UNL     1      -9.393   7.722  69.018  1.00  0.00    -0.150 OA 
BRANCH   7   8
HETATM    8  C   UNL     1      -9.477   9.022  68.663  1.00  0.00    -0.147 A  
HETATM    9  N   UNL     1     -10.643   9.547  68.289  1.00  0.00    -0.222 NA 
HETATM   10  N   UNL     1     -10.320  10.829  67.994  1.00  0.00    -0.175 NA 
HETATM   11  C   UNL     1      -6.292  11.084  68.840  1.00  0.00    -0.051 A  
HETATM   12  C   UNL     1      -8.990  11.132  68.210  1.00  0.00    -0.166 A  
HETATM   13  C   UNL     1      -8.244  12.308  68.050  1.00  0.00    -0.163 A  
HETATM   14  C   UNL     1      -8.416   9.948  68.669  1.00  0.00    -0.114 A  
HETATM   15  C   UNL     1      -7.047   9.916  68.990  1.00  0.00    -0.068 A  
HETATM   16  C   UNL     1      -6.882  12.259  68.375  1.00  0.00    -0.075 A  
BRANCH  10  17
HETATM   17  C   UNL     1     -11.375  11.745  67.574  1.00  0.00    -0.310 C  
BRANCH  17  18
HETATM   18  C   UNL     1     -11.343  12.022  66.090  1.00  0.00    -0.407 A  
HETATM   19  C   UNL     1     -10.463  11.329  65.244  1.00  0.00    -0.341 A  
HETATM   20  C   UNL     1     -11.293  12.549  63.332  1.00  0.00    -0.489 A  
HETATM   21  C   UNL     1     -12.191  13.225  64.156  1.00  0.00    -0.465 A  
HETATM   22  C   UNL     1     -10.434  11.597  63.875  1.00  0.00    -0.433 A  
HETATM   23  C   UNL     1     -12.220  12.962  65.526  1.00  0.00    -0.527 A  
ENDBRANCH  17  18
ENDBRANCH  10  17
ENDBRANCH   7   8
ENDBRANCH   6   7
ENDBRANCH   5   6
ENDBRANCH   4   5
ENDBRANCH   2   4
TORSDOF 7
ENDMDL
MODEL      209
REMARK 921   NORMALIZED FREE ENERGY PREDICTED BY IDOCK:   -4.02 KCAL/MOL
REMARK 922        TOTAL FREE ENERGY PREDICTED BY IDOCK:   -6.06 KCAL/MOL
REMARK 923 INTER-LIGAND FREE ENERGY PREDICTED BY IDOCK:   -5.22 KCAL/MOL
REMARK 924 INTRA-LIGAND FREE ENERGY PREDICTED BY IDOCK:   -0.84 KCAL/MOL
REMARK 927      BINDING AFFINITY PREDICTED BY RF-SCORE:    0.00 PKD
ROOT
HETATM    1  C   UNL     1     -11.049   5.875  72.528  1.00  0.00    -0.283 C  
HETATM    2  N   UNL     1     -10.962   5.734  71.071  1.00  0.00    -0.259 NA 
HETATM    3  C   UNL     1     -11.760   6.782  70.431  1.00  0.00    -0.363 C  
ENDROOT
BRANCH   2   4
HETATM    4  C   UNL     1      -9.548   5.771  70.655  1.00  0.00    -0.174 C  
BRANCH   4   5
HETATM    5  C   UNL     1      -8.702   6.785  71.429  1.00  0.00    -0.131 C  
BRANCH   5   6
HETATM    6  C   UNL     1      -8.028   7.771  70.481  1.00  0.00    -0.098 C  
BRANCH   6   7
HETATM    7  O   UNL     1      -8.345   9.088  70.936  1.00  0.00    -0.167 OA 
BRANCH   7   8
HETATM    8  C   UNL     1      -8.563   9.966  69.934  1.00  0.00    -0.194 A  
HETATM    9  N   UNL     1      -9.774  10.088  69.393  1.00  0.00    -0.213 NA 
HETATM   10  N   UNL     1      -9.586  11.023  68.431  1.00  0.00    -0.174 NA 
HETATM   11  C   UNL     1      -5.616  12.077  68.800  1.00  0.00    -0.049 A  
HETATM   12  C   UNL     1      -8.298  11.518  68.381  1.00  0.00    -0.154 A  
HETATM   13  C   UNL     1      -7.679  12.479  67.569  1.00  0.00    -0.165 A  
HETATM   14  C   UNL     1      -7.606  10.839  69.382  1.00  0.00    -0.114 A  
HETATM   15  C   UNL     1      -6.245  11.117  69.600  1.00  0.00    -0.108 A  
HETATM   16  C   UNL     1      -6.323  12.744  67.799  1.00  0.00    -0.137 A  
BRANCH  10  17
HETATM   17  C   UNL     1     -10.727  11.456  67.633  1.00  0.00    -0.216 C  
BRANCH  17  18
HETATM   18  C   UNL     1     -10.472  11.342  66.149  1.00  0.00    -0.303 A  
HETATM   19  C   UNL     1      -9.874  10.194  65.605  1.00  0.00    -0.347 A  
HETATM   20  C   UNL     1      -9.999  11.144  63.388  1.00  0.00    -0.430 A  
HETATM   21  C   UNL     1     -10.618  12.278  63.911  1.00  0.00    -0.462 A  
HETATM   22  C   UNL     1      -9.634  10.099  64.233  1.00  0.00    -0.354 A  
HETATM   23  C   UNL     1     -10.856  12.376  65.282  1.00  0.00    -0.324 A  
ENDBRANCH  17  18
ENDBRANCH  10  17
ENDBRANCH   7   8
ENDBRANCH   6   7
ENDBRANCH   5   6
ENDBRANCH   4   5
ENDBRANCH   2   4
TORSDOF 7
ENDMDL
MODEL      210
REMARK 921   NORMALIZED FREE ENERGY PREDICTED BY IDOCK:   -4.02 KCAL/MOL
REMARK 922        TOTAL FREE ENERGY PREDICTED BY IDOCK:   -6.05 KCAL/MOL
REMARK 923 INTER-LIGAND FREE ENERGY PREDICTED BY IDOCK:   -6.40 KCAL/MOL
REMARK 924 INTRA-LIGAND FREE ENERGY PREDICTED BY IDOCK:    0.34 KCAL/MOL
REMARK 927      BINDING AFFINITY PREDICTED BY RF-SCORE:    0.00 PKD
ROOT
HETATM    1  C   UNL     1      -7.968   4.634  69.128  1.00  0.00    -0.070 C  
HETATM    2  N   UNL     1      -8.579   5.128  70.367  1.00  0.00    -0.111 NA 
HETATM    3  C   UNL     1      -7.534   5.639  71.256  1.00  0.00    -0.094 C  
ENDROOT
BRANCH   2   4
HETATM    4  C   UNL     1      -9.592   6.149  70.044  1.00  0.00    -0.160 C  
BRANCH   4   5
HETATM    5  C   UNL     1      -9.439   6.750  68.645  1.00  0.00    -0.132 C  
BRANCH   5   6
HETATM    6  C   UNL     1      -9.989   8.172  68.598  1.00  0.00    -0.190 C  
BRANCH   6   7
HETATM    7  O   UNL     1      -9.466   8.795  67.423  1.00  0.00    -0.140 OA 
BRANCH   7   8
HETATM    8  C   UNL     1      -9.987  10.018  67.185  1.00  0.00    -0.201 A  
HETATM    9  N   UNL     1     -10.390  10.789  68.194  1.00  0.00    -0.164 NA 
HETATM   10  N   UNL     1     -10.861  11.892  67.565  1.00  0.00    -0.227 NA 
HETATM   11  C   UNL     1     -10.183  11.153  63.565  1.00  0.00    -0.446 A  
HETATM   12  C   UNL     1     -10.728  11.850  66.191  1.00  0.00    -0.278 A  
HETATM   13  C   UNL     1     -11.064  12.754  65.174  1.00  0.00    -0.323 A  
HETATM   14  C   UNL     1     -10.136  10.618  65.920  1.00  0.00    -0.321 A  
HETATM   15  C   UNL     1      -9.856  10.258  64.589  1.00  0.00    -0.396 A  
HETATM   16  C   UNL     1     -10.779  12.380  63.855  1.00  0.00    -0.465 A  
BRANCH  10  17
HETATM   17  C   UNL     1     -11.364  13.002  68.367  1.00  0.00    -0.291 C  
BRANCH  17  18
HETATM   18  C   UNL     1     -12.056  12.538  69.627  1.00  0.00    -0.272 A  
HETATM   19  C   UNL     1     -12.239  11.171  69.889  1.00  0.00    -0.385 A  
HETATM   20  C   UNL     1     -13.346  11.688  71.972  1.00  0.00    -0.405 A  
HETATM   21  C   UNL     1     -13.147  13.047  71.738  1.00  0.00    -0.469 A  
HETATM   22  C   UNL     1     -12.886  10.750  71.051  1.00  0.00    -0.480 A  
HETATM   23  C   UNL     1     -12.503  13.471  70.575  1.00  0.00    -0.373 A  
ENDBRANCH  17  18
ENDBRANCH  10  17
ENDBRANCH   7   8
ENDBRANCH   6   7
ENDBRANCH   5   6
ENDBRANCH   4   5
ENDBRANCH   2   4
TORSDOF 7
ENDMDL
MODEL      211
REMARK 921   NORMALIZED FREE ENERGY PREDICTED BY IDOCK:   -4.00 KCAL/MOL
REMARK 922        TOTAL FREE ENERGY PREDICTED BY IDOCK:   -6.03 KCAL/MOL
REMARK 923 INTER-LIGAND FREE ENERGY PREDICTED BY IDOCK:   -5.22 KCAL/MOL
REMARK 924 INTRA-LIGAND FREE ENERGY PREDICTED BY IDOCK:   -0.81 KCAL/MOL
REMARK 927      BINDING AFFINITY PREDICTED BY RF-SCORE:    0.00 PKD
ROOT
HETATM    1  C   UNL     1      -9.340   2.970  67.603  1.00  0.00    -0.195 C  
HETATM    2  N   UNL     1      -9.140   3.836  66.436  1.00  0.00    -0.142 NA 
HETATM    3  C   UNL     1     -10.423   4.415  66.033  1.00  0.00    -0.099 C  
ENDROOT
BRANCH   2   4
HETATM    4  C   UNL     1      -8.134   4.866  66.754  1.00  0.00    -0.107 C  
BRANCH   4   5
HETATM    5  C   UNL     1      -8.710   6.281  66.859  1.00  0.00    -0.113 C  
BRANCH   5   6
HETATM    6  C   UNL     1      -8.035   7.221  65.866  1.00  0.00    -0.115 C  
BRANCH   6   7
HETATM    7  O   UNL     1      -7.829   8.469  66.530  1.00  0.00    -0.093 OA 
BRANCH   7   8
HETATM    8  C   UNL     1      -8.809   9.369  66.303  1.00  0.00    -0.147 A  
HETATM    9  N   UNL     1      -9.543   9.838  67.311  1.00  0.00    -0.153 NA 
HETATM   10  N   UNL     1     -10.413  10.672  66.693  1.00  0.00    -0.244 NA 
HETATM   11  C   UNL     1      -9.319  10.520  62.719  1.00  0.00    -0.342 A  
HETATM   12  C   UNL     1     -10.217  10.769  65.329  1.00  0.00    -0.285 A  
HETATM   13  C   UNL     1     -10.864  11.503  64.325  1.00  0.00    -0.421 A  
HETATM   14  C   UNL     1      -9.147   9.921  65.052  1.00  0.00    -0.264 A  
HETATM   15  C   UNL     1      -8.686   9.790  63.730  1.00  0.00    -0.239 A  
HETATM   16  C   UNL     1     -10.392  11.361  63.014  1.00  0.00    -0.275 A  
BRANCH  10  17
HETATM   17  C   UNL     1     -11.372  11.417  67.500  1.00  0.00    -0.292 C  
BRANCH  17  18
HETATM   18  C   UNL     1     -11.019  12.881  67.614  1.00  0.00    -0.274 A  
HETATM   19  C   UNL     1      -9.874  13.295  68.313  1.00  0.00    -0.231 A  
HETATM   20  C   UNL     1     -10.373  15.607  67.822  1.00  0.00    -0.266 A  
HETATM   21  C   UNL     1     -11.498  15.208  67.102  1.00  0.00    -0.254 A  
HETATM   22  C   UNL     1      -9.557  14.650  68.422  1.00  0.00    -0.217 A  
HETATM   23  C   UNL     1     -11.818  13.854  66.995  1.00  0.00    -0.447 A  
ENDBRANCH  17  18
ENDBRANCH  10  17
ENDBRANCH   7   8
ENDBRANCH   6   7
ENDBRANCH   5   6
ENDBRANCH   4   5
ENDBRANCH   2   4
TORSDOF 7
ENDMDL
MODEL      212
REMARK 921   NORMALIZED FREE ENERGY PREDICTED BY IDOCK:   -4.00 KCAL/MOL
REMARK 922        TOTAL FREE ENERGY PREDICTED BY IDOCK:   -6.02 KCAL/MOL
REMARK 923 INTER-LIGAND FREE ENERGY PREDICTED BY IDOCK:   -5.02 KCAL/MOL
REMARK 924 INTRA-LIGAND FREE ENERGY PREDICTED BY IDOCK:   -1.00 KCAL/MOL
REMARK 927      BINDING AFFINITY PREDICTED BY RF-SCORE:    0.00 PKD
ROOT
HETATM    1  C   UNL     1      -6.982   3.989  69.569  1.00  0.00    -0.045 C  
HETATM    2  N   UNL     1      -8.221   4.526  70.142  1.00  0.00    -0.066 NA 
HETATM    3  C   UNL     1      -8.929   3.462  70.856  1.00  0.00    -0.097 C  
ENDROOT
BRANCH   2   4
HETATM    4  C   UNL     1      -7.905   5.673  71.012  1.00  0.00    -0.105 C  
BRANCH   4   5
HETATM    5  C   UNL     1      -7.964   7.026  70.298  1.00  0.00    -0.117 C  
BRANCH   5   6
HETATM    6  C   UNL     1      -9.045   7.029  69.222  1.00  0.00    -0.137 C  
BRANCH   6   7
HETATM    7  O   UNL     1     -10.271   7.409  69.849  1.00  0.00    -0.202 OA 
BRANCH   7   8
HETATM    8  C   UNL     1     -10.635   8.683  69.590  1.00  0.00    -0.218 A  
HETATM    9  N   UNL     1     -10.206   9.299  68.489  1.00  0.00    -0.194 NA 
HETATM   10  N   UNL     1     -10.750  10.534  68.597  1.00  0.00    -0.200 NA 
HETATM   11  C   UNL     1     -12.954  10.372  72.079  1.00  0.00    -0.499 A  
HETATM   12  C   UNL     1     -11.542  10.697  69.717  1.00  0.00    -0.309 A  
HETATM   13  C   UNL     1     -12.286  11.780  70.207  1.00  0.00    -0.381 A  
HETATM   14  C   UNL     1     -11.490   9.474  70.382  1.00  0.00    -0.297 A  
HETATM   15  C   UNL     1     -12.204   9.301  71.581  1.00  0.00    -0.445 A  
HETATM   16  C   UNL     1     -12.991  11.591  71.402  1.00  0.00    -0.450 A  
BRANCH  10  17
HETATM   17  C   UNL     1     -10.526  11.502  67.529  1.00  0.00    -0.199 C  
BRANCH  17  18
HETATM   18  C   UNL     1      -9.562  12.593  67.931  1.00  0.00    -0.211 A  
HETATM   19  C   UNL     1     -10.017  13.894  68.202  1.00  0.00    -0.240 A  
HETATM   20  C   UNL     1      -7.760  14.615  68.674  1.00  0.00    -0.135 A  
HETATM   21  C   UNL     1      -7.299  13.322  68.435  1.00  0.00    -0.112 A  
HETATM   22  C   UNL     1      -9.119  14.899  68.565  1.00  0.00    -0.191 A  
HETATM   23  C   UNL     1      -8.194  12.315  68.069  1.00  0.00    -0.163 A  
ENDBRANCH  17  18
ENDBRANCH  10  17
ENDBRANCH   7   8
ENDBRANCH   6   7
ENDBRANCH   5   6
ENDBRANCH   4   5
ENDBRANCH   2   4
TORSDOF 7
ENDMDL
MODEL      213
REMARK 921   NORMALIZED FREE ENERGY PREDICTED BY IDOCK:   -3.99 KCAL/MOL
REMARK 922        TOTAL FREE ENERGY PREDICTED BY IDOCK:   -6.02 KCAL/MOL
REMARK 923 INTER-LIGAND FREE ENERGY PREDICTED BY IDOCK:   -5.13 KCAL/MOL
REMARK 924 INTRA-LIGAND FREE ENERGY PREDICTED BY IDOCK:   -0.88 KCAL/MOL
REMARK 927      BINDING AFFINITY PREDICTED BY RF-SCORE:    0.00 PKD
ROOT
HETATM    1  C   UNL     1      -5.739  13.819  71.147  1.00  0.00    -0.212 C  
HETATM    2  N   UNL     1      -6.321  13.914  69.804  1.00  0.00    -0.133 NA 
HETATM    3  C   UNL     1      -5.336  14.487  68.885  1.00  0.00    -0.088 C  
ENDROOT
BRANCH   2   4
HETATM    4  C   UNL     1      -6.784  12.582  69.373  1.00  0.00    -0.022 C  
BRANCH   4   5
HETATM    5  C   UNL     1      -7.987  12.622  68.427  1.00  0.00    -0.134 C  
BRANCH   5   6
HETATM    6  C   UNL     1      -8.050  11.363  67.569  1.00  0.00    -0.127 C  
BRANCH   6   7
HETATM    7  O   UNL     1      -7.427  10.310  68.308  1.00  0.00    -0.084 OA 
BRANCH   7   8
HETATM    8  C   UNL     1      -8.298   9.390  68.772  1.00  0.00    -0.117 A  
HETATM    9  N   UNL     1      -8.577   9.319  70.073  1.00  0.00    -0.162 NA 
HETATM   10  N   UNL     1      -9.447   8.283  70.143  1.00  0.00    -0.166 NA 
HETATM   11  C   UNL     1      -9.930   7.094  66.224  1.00  0.00     0.032 A  
HETATM   12  C   UNL     1      -9.751   7.728  68.915  1.00  0.00    -0.160 A  
HETATM   13  C   UNL     1     -10.589   6.672  68.530  1.00  0.00    -0.276 A  
HETATM   14  C   UNL     1      -9.008   8.458  67.990  1.00  0.00    -0.138 A  
HETATM   15  C   UNL     1      -9.094   8.143  66.622  1.00  0.00    -0.202 A  
HETATM   16  C   UNL     1     -10.662   6.370  67.164  1.00  0.00    -0.433 A  
BRANCH  10  17
HETATM   17  C   UNL     1     -10.016   7.924  71.437  1.00  0.00    -0.172 C  
BRANCH  17  18
HETATM   18  C   UNL     1     -11.490   8.240  71.528  1.00  0.00    -0.325 A  
HETATM   19  C   UNL     1     -12.442   7.216  71.652  1.00  0.00    -0.405 A  
HETATM   20  C   UNL     1     -14.229   8.841  71.693  1.00  0.00    -0.414 A  
HETATM   21  C   UNL     1     -13.293   9.869  71.597  1.00  0.00    -0.481 A  
HETATM   22  C   UNL     1     -13.803   7.515  71.728  1.00  0.00    -0.438 A  
HETATM   23  C   UNL     1     -11.931   9.572  71.518  1.00  0.00    -0.475 A  
ENDBRANCH  17  18
ENDBRANCH  10  17
ENDBRANCH   7   8
ENDBRANCH   6   7
ENDBRANCH   5   6
ENDBRANCH   4   5
ENDBRANCH   2   4
TORSDOF 7
ENDMDL
MODEL      214
REMARK 921   NORMALIZED FREE ENERGY PREDICTED BY IDOCK:   -3.99 KCAL/MOL
REMARK 922        TOTAL FREE ENERGY PREDICTED BY IDOCK:   -6.01 KCAL/MOL
REMARK 923 INTER-LIGAND FREE ENERGY PREDICTED BY IDOCK:   -5.11 KCAL/MOL
REMARK 924 INTRA-LIGAND FREE ENERGY PREDICTED BY IDOCK:   -0.90 KCAL/MOL
REMARK 927      BINDING AFFINITY PREDICTED BY RF-SCORE:    0.00 PKD
ROOT
HETATM    1  C   UNL     1     -14.227   7.928  71.631  1.00  0.00    -0.459 C  
HETATM    2  N   UNL     1     -13.175   8.825  71.141  1.00  0.00    -0.137 NA 
HETATM    3  C   UNL     1     -13.017   9.945  72.071  1.00  0.00    -0.423 C  
ENDROOT
BRANCH   2   4
HETATM    4  C   UNL     1     -11.925   8.066  70.957  1.00  0.00    -0.245 C  
BRANCH   4   5
HETATM    5  C   UNL     1     -10.723   8.667  71.692  1.00  0.00    -0.374 C  
BRANCH   5   6
HETATM    6  C   UNL     1      -9.802   9.401  70.723  1.00  0.00    -0.279 C  
BRANCH   6   7
HETATM    7  O   UNL     1     -10.248   9.102  69.399  1.00  0.00    -0.196 OA 
BRANCH   7   8
HETATM    8  C   UNL     1      -9.751   9.938  68.462  1.00  0.00    -0.154 A  
HETATM    9  N   UNL     1      -8.577   9.686  67.886  1.00  0.00    -0.122 NA 
HETATM   10  N   UNL     1      -8.416  10.737  67.046  1.00  0.00    -0.126 NA 
HETATM   11  C   UNL     1     -11.860  12.955  67.526  1.00  0.00    -0.407 A  
HETATM   12  C   UNL     1      -9.478  11.620  67.052  1.00  0.00    -0.182 A  
HETATM   13  C   UNL     1      -9.732  12.808  66.351  1.00  0.00    -0.261 A  
HETATM   14  C   UNL     1     -10.381  11.099  67.976  1.00  0.00    -0.208 A  
HETATM   15  C   UNL     1     -11.593  11.771  68.222  1.00  0.00    -0.373 A  
HETATM   16  C   UNL     1     -10.942  13.464  66.608  1.00  0.00    -0.297 A  
BRANCH  10  17
HETATM   17  C   UNL     1      -7.233  10.789  66.196  1.00  0.00    -0.126 C  
BRANCH  17  18
HETATM   18  C   UNL     1      -7.335   9.865  65.005  1.00  0.00    -0.135 A  
HETATM   19  C   UNL     1      -8.296  10.080  64.005  1.00  0.00    -0.170 A  
HETATM   20  C   UNL     1      -7.518   8.138  62.798  1.00  0.00    -0.111 A  
HETATM   21  C   UNL     1      -6.541   7.928  63.770  1.00  0.00    -0.062 A  
HETATM   22  C   UNL     1      -8.390   9.217  62.912  1.00  0.00    -0.193 A  
HETATM   23  C   UNL     1      -6.447   8.787  64.866  1.00  0.00    -0.065 A  
ENDBRANCH  17  18
ENDBRANCH  10  17
ENDBRANCH   7   8
ENDBRANCH   6   7
ENDBRANCH   5   6
ENDBRANCH   4   5
ENDBRANCH   2   4
TORSDOF 7
ENDMDL
MODEL      215
REMARK 921   NORMALIZED FREE ENERGY PREDICTED BY IDOCK:   -3.99 KCAL/MOL
REMARK 922        TOTAL FREE ENERGY PREDICTED BY IDOCK:   -6.01 KCAL/MOL
REMARK 923 INTER-LIGAND FREE ENERGY PREDICTED BY IDOCK:   -6.13 KCAL/MOL
REMARK 924 INTRA-LIGAND FREE ENERGY PREDICTED BY IDOCK:    0.12 KCAL/MOL
REMARK 927      BINDING AFFINITY PREDICTED BY RF-SCORE:    0.00 PKD
ROOT
HETATM    1  C   UNL     1     -12.155  17.217  74.012  1.00  0.00     0.142 C  
HETATM    2  N   UNL     1     -12.303  16.028  73.165  1.00  0.00    -0.483 NA 
HETATM    3  C   UNL     1     -11.827  14.849  73.891  1.00  0.00    -0.104 C  
ENDROOT
BRANCH   2   4
HETATM    4  C   UNL     1     -13.708  15.897  72.739  1.00  0.00    -0.495 C  
BRANCH   4   5
HETATM    5  C   UNL     1     -13.879  15.272  71.353  1.00  0.00    -0.603 C  
BRANCH   5   6
HETATM    6  C   UNL     1     -12.532  15.112  70.656  1.00  0.00    -0.388 C  
BRANCH   6   7
HETATM    7  O   UNL     1     -12.665  14.054  69.705  1.00  0.00    -0.152 OA 
BRANCH   7   8
HETATM    8  C   UNL     1     -11.608  13.942  68.872  1.00  0.00    -0.316 A  
HETATM    9  N   UNL     1     -11.121  12.744  68.555  1.00  0.00    -0.251 NA 
HETATM   10  N   UNL     1     -10.078  13.042  67.744  1.00  0.00    -0.224 NA 
HETATM   11  C   UNL     1     -10.159  17.155  67.458  1.00  0.00    -0.301 A  
HETATM   12  C   UNL     1      -9.923  14.395  67.513  1.00  0.00    -0.224 A  
HETATM   13  C   UNL     1      -9.006  15.131  66.749  1.00  0.00    -0.293 A  
HETATM   14  C   UNL     1     -10.939  15.009  68.242  1.00  0.00    -0.274 A  
HETATM   15  C   UNL     1     -11.065  16.410  68.219  1.00  0.00    -0.337 A  
HETATM   16  C   UNL     1      -9.145  16.524  66.737  1.00  0.00    -0.262 A  
BRANCH  10  17
HETATM   17  C   UNL     1      -9.307  11.954  67.154  1.00  0.00    -0.180 C  
BRANCH  17  18
HETATM   18  C   UNL     1      -9.636  10.614  67.767  1.00  0.00    -0.172 A  
HETATM   19  C   UNL     1      -9.317  10.334  69.106  1.00  0.00    -0.214 A  
HETATM   20  C   UNL     1     -10.249   8.116  68.896  1.00  0.00    -0.221 A  
HETATM   21  C   UNL     1     -10.596   8.389  67.574  1.00  0.00    -0.285 A  
HETATM   22  C   UNL     1      -9.616   9.090  69.664  1.00  0.00    -0.175 A  
HETATM   23  C   UNL     1     -10.295   9.631  67.013  1.00  0.00    -0.315 A  
ENDBRANCH  17  18
ENDBRANCH  10  17
ENDBRANCH   7   8
ENDBRANCH   6   7
ENDBRANCH   5   6
ENDBRANCH   4   5
ENDBRANCH   2   4
TORSDOF 7
ENDMDL
MODEL      216
REMARK 921   NORMALIZED FREE ENERGY PREDICTED BY IDOCK:   -3.98 KCAL/MOL
REMARK 922        TOTAL FREE ENERGY PREDICTED BY IDOCK:   -6.00 KCAL/MOL
REMARK 923 INTER-LIGAND FREE ENERGY PREDICTED BY IDOCK:   -5.06 KCAL/MOL
REMARK 924 INTRA-LIGAND FREE ENERGY PREDICTED BY IDOCK:   -0.94 KCAL/MOL
REMARK 927      BINDING AFFINITY PREDICTED BY RF-SCORE:    0.00 PKD
ROOT
HETATM    1  C   UNL     1     -10.462   8.116  69.112  1.00  0.00    -0.206 C  
HETATM    2  N   UNL     1      -9.331   7.199  69.287  1.00  0.00    -0.146 NA 
HETATM    3  C   UNL     1      -9.725   5.853  68.866  1.00  0.00    -0.135 C  
ENDROOT
BRANCH   2   4
HETATM    4  C   UNL     1      -8.166   7.704  68.538  1.00  0.00    -0.125 C  
BRANCH   4   5
HETATM    5  C   UNL     1      -8.535   8.572  67.333  1.00  0.00    -0.127 C  
BRANCH   5   6
HETATM    6  C   UNL     1      -7.431   9.580  67.027  1.00  0.00    -0.091 C  
BRANCH   6   7
HETATM    7  O   UNL     1      -7.842  10.330  65.883  1.00  0.00    -0.127 OA 
BRANCH   7   8
HETATM    8  C   UNL     1      -8.671  11.354  66.180  1.00  0.00    -0.153 A  
HETATM    9  N   UNL     1      -8.493  12.068  67.290  1.00  0.00    -0.168 NA 
HETATM   10  N   UNL     1      -9.512  12.959  67.248  1.00  0.00    -0.209 NA 
HETATM   11  C   UNL     1     -11.449  12.119  63.705  1.00  0.00    -0.566 A  
HETATM   12  C   UNL     1     -10.301  12.848  66.119  1.00  0.00    -0.276 A  
HETATM   13  C   UNL     1     -11.428  13.553  65.673  1.00  0.00    -0.330 A  
HETATM   14  C   UNL     1      -9.750  11.796  65.391  1.00  0.00    -0.242 A  
HETATM   15  C   UNL     1     -10.327  11.420  64.164  1.00  0.00    -0.400 A  
HETATM   16  C   UNL     1     -11.990  13.166  64.450  1.00  0.00    -0.454 A  
BRANCH  10  17
HETATM   17  C   UNL     1      -9.624  13.957  68.305  1.00  0.00    -0.218 C  
BRANCH  17  18
HETATM   18  C   UNL     1      -8.786  15.183  68.033  1.00  0.00    -0.170 A  
HETATM   19  C   UNL     1      -9.261  16.214  67.206  1.00  0.00    -0.218 A  
HETATM   20  C   UNL     1      -7.217  17.459  67.533  1.00  0.00    -0.184 A  
HETATM   21  C   UNL     1      -6.744  16.456  68.377  1.00  0.00    -0.141 A  
HETATM   22  C   UNL     1      -8.478  17.341  66.953  1.00  0.00    -0.251 A  
HETATM   23  C   UNL     1      -7.524  15.327  68.630  1.00  0.00    -0.126 A  
ENDBRANCH  17  18
ENDBRANCH  10  17
ENDBRANCH   7   8
ENDBRANCH   6   7
ENDBRANCH   5   6
ENDBRANCH   4   5
ENDBRANCH   2   4
TORSDOF 7
ENDMDL
MODEL      217
REMARK 921   NORMALIZED FREE ENERGY PREDICTED BY IDOCK:   -3.97 KCAL/MOL
REMARK 922        TOTAL FREE ENERGY PREDICTED BY IDOCK:   -5.98 KCAL/MOL
REMARK 923 INTER-LIGAND FREE ENERGY PREDICTED BY IDOCK:   -5.45 KCAL/MOL
REMARK 924 INTRA-LIGAND FREE ENERGY PREDICTED BY IDOCK:   -0.53 KCAL/MOL
REMARK 927      BINDING AFFINITY PREDICTED BY RF-SCORE:    0.00 PKD
ROOT
HETATM    1  C   UNL     1     -11.410   6.735  72.732  1.00  0.00    -0.190 C  
HETATM    2  N   UNL     1     -10.844   5.986  71.605  1.00  0.00    -0.251 NA 
HETATM    3  C   UNL     1     -11.298   6.580  70.347  1.00  0.00    -0.383 C  
ENDROOT
BRANCH   2   4
HETATM    4  C   UNL     1      -9.374   5.962  71.718  1.00  0.00    -0.148 C  
BRANCH   4   5
HETATM    5  C   UNL     1      -8.772   7.273  72.228  1.00  0.00    -0.136 C  
BRANCH   5   6
HETATM    6  C   UNL     1      -7.726   7.808  71.256  1.00  0.00    -0.085 C  
BRANCH   6   7
HETATM    7  O   UNL     1      -7.978   9.204  71.081  1.00  0.00    -0.232 OA 
BRANCH   7   8
HETATM    8  C   UNL     1      -8.702   9.486  69.977  1.00  0.00    -0.221 A  
HETATM    9  N   UNL     1      -9.828  10.191  70.068  1.00  0.00    -0.196 NA 
HETATM   10  N   UNL     1     -10.263  10.239  68.786  1.00  0.00    -0.181 NA 
HETATM   11  C   UNL     1      -7.355   8.244  66.650  1.00  0.00    -0.082 A  
HETATM   12  C   UNL     1      -9.418   9.617  67.889  1.00  0.00    -0.131 A  
HETATM   13  C   UNL     1      -9.471   9.439  66.499  1.00  0.00    -0.246 A  
HETATM   14  C   UNL     1      -8.368   9.122  68.658  1.00  0.00    -0.126 A  
HETATM   15  C   UNL     1      -7.317   8.424  68.036  1.00  0.00    -0.096 A  
HETATM   16  C   UNL     1      -8.417   8.742  65.895  1.00  0.00    -0.154 A  
BRANCH  10  17
HETATM   17  C   UNL     1     -11.481  10.981  68.481  1.00  0.00    -0.309 C  
BRANCH  17  18
HETATM   18  C   UNL     1     -12.046  11.689  69.689  1.00  0.00    -0.345 A  
HETATM   19  C   UNL     1     -12.809  10.995  70.642  1.00  0.00    -0.305 A  
HETATM   20  C   UNL     1     -13.093  13.018  71.931  1.00  0.00    -0.483 A  
HETATM   21  C   UNL     1     -12.314  13.713  71.008  1.00  0.00    -0.436 A  
HETATM   22  C   UNL     1     -13.335  11.658  71.752  1.00  0.00    -0.340 A  
HETATM   23  C   UNL     1     -11.790  13.053  69.895  1.00  0.00    -0.377 A  
ENDBRANCH  17  18
ENDBRANCH  10  17
ENDBRANCH   7   8
ENDBRANCH   6   7
ENDBRANCH   5   6
ENDBRANCH   4   5
ENDBRANCH   2   4
TORSDOF 7
ENDMDL
MODEL      218
REMARK 921   NORMALIZED FREE ENERGY PREDICTED BY IDOCK:   -3.92 KCAL/MOL
REMARK 922        TOTAL FREE ENERGY PREDICTED BY IDOCK:   -5.92 KCAL/MOL
REMARK 923 INTER-LIGAND FREE ENERGY PREDICTED BY IDOCK:   -5.45 KCAL/MOL
REMARK 924 INTRA-LIGAND FREE ENERGY PREDICTED BY IDOCK:   -0.46 KCAL/MOL
REMARK 927      BINDING AFFINITY PREDICTED BY RF-SCORE:    0.00 PKD
ROOT
HETATM    1  C   UNL     1      -6.730   8.881  69.085  1.00  0.00    -0.051 C  
HETATM    2  N   UNL     1      -6.274   9.971  68.216  1.00  0.00    -0.049 NA 
HETATM    3  C   UNL     1      -7.217  10.138  67.108  1.00  0.00    -0.090 C  
ENDROOT
BRANCH   2   4
HETATM    4  C   UNL     1      -6.116  11.202  69.011  1.00  0.00    -0.044 C  
BRANCH   4   5
HETATM    5  C   UNL     1      -6.159  12.486  68.178  1.00  0.00    -0.069 C  
BRANCH   5   6
HETATM    6  C   UNL     1      -7.294  13.396  68.636  1.00  0.00    -0.106 C  
BRANCH   6   7
HETATM    7  O   UNL     1      -7.812  14.052  67.476  1.00  0.00    -0.161 OA 
BRANCH   7   8
HETATM    8  C   UNL     1      -8.985  13.540  67.047  1.00  0.00    -0.231 A  
HETATM    9  N   UNL     1      -9.363  12.316  67.415  1.00  0.00    -0.178 NA 
HETATM   10  N   UNL     1     -10.548  12.158  66.778  1.00  0.00    -0.222 NA 
HETATM   11  C   UNL     1     -11.141  15.745  64.832  1.00  0.00    -0.411 A  
HETATM   12  C   UNL     1     -10.941  13.266  66.052  1.00  0.00    -0.279 A  
HETATM   13  C   UNL     1     -12.070  13.537  65.267  1.00  0.00    -0.439 A  
HETATM   14  C   UNL     1      -9.922  14.199  66.230  1.00  0.00    -0.315 A  
HETATM   15  C   UNL     1     -10.017  15.460  65.614  1.00  0.00    -0.396 A  
HETATM   16  C   UNL     1     -12.149  14.797  64.660  1.00  0.00    -0.437 A  
BRANCH  10  17
HETATM   17  C   UNL     1     -11.298  10.924  66.976  1.00  0.00    -0.024 C  
BRANCH  17  18
HETATM   18  C   UNL     1     -11.153  10.378  68.377  1.00  0.00    -0.322 A  
HETATM   19  C   UNL     1     -10.484   9.166  68.614  1.00  0.00    -0.235 A  
HETATM   20  C   UNL     1     -10.892   9.371  70.986  1.00  0.00    -0.406 A  
HETATM   21  C   UNL     1     -11.534  10.589  70.768  1.00  0.00    -0.376 A  
HETATM   22  C   UNL     1     -10.361   8.664  69.910  1.00  0.00    -0.213 A  
HETATM   23  C   UNL     1     -11.662  11.092  69.472  1.00  0.00    -0.400 A  
ENDBRANCH  17  18
ENDBRANCH  10  17
ENDBRANCH   7   8
ENDBRANCH   6   7
ENDBRANCH   5   6
ENDBRANCH   4   5
ENDBRANCH   2   4
TORSDOF 7
ENDMDL
MODEL      219
REMARK 921   NORMALIZED FREE ENERGY PREDICTED BY IDOCK:   -3.91 KCAL/MOL
REMARK 922        TOTAL FREE ENERGY PREDICTED BY IDOCK:   -5.90 KCAL/MOL
REMARK 923 INTER-LIGAND FREE ENERGY PREDICTED BY IDOCK:   -5.63 KCAL/MOL
REMARK 924 INTRA-LIGAND FREE ENERGY PREDICTED BY IDOCK:   -0.27 KCAL/MOL
REMARK 927      BINDING AFFINITY PREDICTED BY RF-SCORE:    0.00 PKD
ROOT
HETATM    1  C   UNL     1      -9.179   2.943  67.245  1.00  0.00    -0.173 C  
HETATM    2  N   UNL     1      -8.092   3.796  67.737  1.00  0.00    -0.088 NA 
HETATM    3  C   UNL     1      -7.510   4.539  66.618  1.00  0.00    -0.082 C  
ENDROOT
BRANCH   2   4
HETATM    4  C   UNL     1      -8.604   4.686  68.796  1.00  0.00    -0.085 C  
BRANCH   4   5
HETATM    5  C   UNL     1     -10.120   4.607  68.990  1.00  0.00    -0.117 C  
BRANCH   5   6
HETATM    6  C   UNL     1     -10.698   5.974  69.343  1.00  0.00    -0.334 C  
BRANCH   6   7
HETATM    7  O   UNL     1     -11.063   6.614  68.119  1.00  0.00    -0.257 OA 
BRANCH   7   8
HETATM    8  C   UNL     1     -10.302   7.691  67.827  1.00  0.00    -0.219 A  
HETATM    9  N   UNL     1     -10.257   8.170  66.585  1.00  0.00    -0.294 NA 
HETATM   10  N   UNL     1      -9.391   9.207  66.688  1.00  0.00    -0.165 NA 
HETATM   11  C   UNL     1      -8.384   9.294  70.687  1.00  0.00    -0.245 A  
HETATM   12  C   UNL     1      -8.923   9.414  67.971  1.00  0.00    -0.127 A  
HETATM   13  C   UNL     1      -8.040  10.354  68.521  1.00  0.00    -0.116 A  
HETATM   14  C   UNL     1      -9.528   8.426  68.745  1.00  0.00    -0.147 A  
HETATM   15  C   UNL     1      -9.259   8.359  70.124  1.00  0.00    -0.159 A  
HETATM   16  C   UNL     1      -7.783  10.273  69.896  1.00  0.00    -0.139 A  
BRANCH  10  17
HETATM   17  C   UNL     1      -9.114  10.017  65.508  1.00  0.00    -0.186 C  
BRANCH  17  18
HETATM   18  C   UNL     1     -10.219  11.001  65.210  1.00  0.00    -0.344 A  
HETATM   19  C   UNL     1     -10.627  11.252  63.890  1.00  0.00    -0.455 A  
HETATM   20  C   UNL     1     -12.276  12.837  64.668  1.00  0.00    -0.510 A  
HETATM   21  C   UNL     1     -11.900  12.577  65.985  1.00  0.00    -0.478 A  
HETATM   22  C   UNL     1     -11.644  12.169  63.621  1.00  0.00    -0.575 A  
HETATM   23  C   UNL     1     -10.881  11.663  66.256  1.00  0.00    -0.333 A  
ENDBRANCH  17  18
ENDBRANCH  10  17
ENDBRANCH   7   8
ENDBRANCH   6   7
ENDBRANCH   5   6
ENDBRANCH   4   5
ENDBRANCH   2   4
TORSDOF 7
ENDMDL
MODEL      220
REMARK 921   NORMALIZED FREE ENERGY PREDICTED BY IDOCK:   -3.89 KCAL/MOL
REMARK 922        TOTAL FREE ENERGY PREDICTED BY IDOCK:   -5.88 KCAL/MOL
REMARK 923 INTER-LIGAND FREE ENERGY PREDICTED BY IDOCK:   -4.79 KCAL/MOL
REMARK 924 INTRA-LIGAND FREE ENERGY PREDICTED BY IDOCK:   -1.08 KCAL/MOL
REMARK 927      BINDING AFFINITY PREDICTED BY RF-SCORE:    0.00 PKD
ROOT
HETATM    1  C   UNL     1     -13.283  12.151  71.913  1.00  0.00    -0.369 C  
HETATM    2  N   UNL     1     -12.933  10.904  71.223  1.00  0.00    -0.403 NA 
HETATM    3  C   UNL     1     -11.782  11.136  70.349  1.00  0.00    -0.320 C  
ENDROOT
BRANCH   2   4
HETATM    4  C   UNL     1     -12.680   9.845  72.217  1.00  0.00    -0.199 C  
BRANCH   4   5
HETATM    5  C   UNL     1     -13.521   8.583  72.003  1.00  0.00    -0.409 C  
BRANCH   5   6
HETATM    6  C   UNL     1     -12.832   7.624  71.038  1.00  0.00    -0.092 C  
BRANCH   6   7
HETATM    7  O   UNL     1     -12.466   6.460  71.781  1.00  0.00    -0.316 OA 
BRANCH   7   8
HETATM    8  C   UNL     1     -11.166   6.120  71.642  1.00  0.00    -0.286 A  
HETATM    9  N   UNL     1     -10.796   5.224  70.729  1.00  0.00    -0.125 NA 
HETATM   10  N   UNL     1      -9.457   5.136  70.912  1.00  0.00    -0.159 NA 
HETATM   11  C   UNL     1      -8.659   7.860  73.903  1.00  0.00    -0.332 A  
HETATM   12  C   UNL     1      -8.973   5.982  71.889  1.00  0.00    -0.138 A  
HETATM   13  C   UNL     1      -7.684   6.220  72.389  1.00  0.00    -0.102 A  
HETATM   14  C   UNL     1     -10.091   6.655  72.377  1.00  0.00    -0.184 A  
HETATM   15  C   UNL     1      -9.940   7.610  73.399  1.00  0.00    -0.373 A  
HETATM   16  C   UNL     1      -7.551   7.174  73.406  1.00  0.00    -0.093 A  
BRANCH  10  17
HETATM   17  C   UNL     1      -8.681   4.258  70.043  1.00  0.00    -0.073 C  
BRANCH  17  18
HETATM   18  C   UNL     1      -8.667   4.729  68.609  1.00  0.00    -0.111 A  
HETATM   19  C   UNL     1      -8.035   5.930  68.249  1.00  0.00    -0.109 A  
HETATM   20  C   UNL     1      -8.649   5.596  65.937  1.00  0.00    -0.144 A  
HETATM   21  C   UNL     1      -9.257   4.388  66.276  1.00  0.00    -0.141 A  
HETATM   22  C   UNL     1      -8.033   6.363  66.922  1.00  0.00    -0.109 A  
HETATM   23  C   UNL     1      -9.263   3.954  67.602  1.00  0.00    -0.203 A  
ENDBRANCH  17  18
ENDBRANCH  10  17
ENDBRANCH   7   8
ENDBRANCH   6   7
ENDBRANCH   5   6
ENDBRANCH   4   5
ENDBRANCH   2   4
TORSDOF 7
ENDMDL
MODEL      221
REMARK 921   NORMALIZED FREE ENERGY PREDICTED BY IDOCK:   -3.83 KCAL/MOL
REMARK 922        TOTAL FREE ENERGY PREDICTED BY IDOCK:   -5.79 KCAL/MOL
REMARK 923 INTER-LIGAND FREE ENERGY PREDICTED BY IDOCK:   -4.96 KCAL/MOL
REMARK 924 INTRA-LIGAND FREE ENERGY PREDICTED BY IDOCK:   -0.83 KCAL/MOL
REMARK 927      BINDING AFFINITY PREDICTED BY RF-SCORE:    0.00 PKD
ROOT
HETATM    1  C   UNL     1      -9.158   6.982  73.203  1.00  0.00    -0.135 C  
HETATM    2  N   UNL     1      -9.930   7.382  72.022  1.00  0.00    -0.165 NA 
HETATM    3  C   UNL     1     -11.083   6.493  71.869  1.00  0.00    -0.261 C  
ENDROOT
BRANCH   2   4
HETATM    4  C   UNL     1     -10.323   8.797  72.146  1.00  0.00    -0.308 C  
BRANCH   4   5
HETATM    5  C   UNL     1     -11.826   9.037  71.990  1.00  0.00    -0.426 C  
BRANCH   5   6
HETATM    6  C   UNL     1     -12.107  10.044  70.879  1.00  0.00    -0.355 C  
BRANCH   6   7
HETATM    7  O   UNL     1     -10.846  10.504  70.390  1.00  0.00    -0.263 OA 
BRANCH   7   8
HETATM    8  C   UNL     1     -10.658  10.262  69.075  1.00  0.00    -0.224 A  
HETATM    9  N   UNL     1     -10.470   9.018  68.637  1.00  0.00    -0.214 NA 
HETATM   10  N   UNL     1     -10.297   9.186  67.304  1.00  0.00    -0.255 NA 
HETATM   11  C   UNL     1     -10.751  13.244  66.724  1.00  0.00    -0.279 A  
HETATM   12  C   UNL     1     -10.411  10.499  66.890  1.00  0.00    -0.246 A  
HETATM   13  C   UNL     1     -10.317  11.112  65.632  1.00  0.00    -0.311 A  
HETATM   14  C   UNL     1     -10.665  11.228  68.050  1.00  0.00    -0.245 A  
HETATM   15  C   UNL     1     -10.839  12.621  67.974  1.00  0.00    -0.249 A  
HETATM   16  C   UNL     1     -10.492  12.500  65.574  1.00  0.00    -0.305 A  
BRANCH  10  17
HETATM   17  C   UNL     1     -10.100   8.012  66.462  1.00  0.00    -0.200 C  
BRANCH  17  18
HETATM   18  C   UNL     1      -8.643   7.643  66.318  1.00  0.00    -0.153 A  
HETATM   19  C   UNL     1      -7.630   8.565  66.627  1.00  0.00    -0.082 A  
HETATM   20  C   UNL     1      -5.936   6.945  66.043  1.00  0.00    -0.035 A  
HETATM   21  C   UNL     1      -6.931   6.011  65.758  1.00  0.00    -0.061 A  
HETATM   22  C   UNL     1      -6.285   8.219  66.483  1.00  0.00    -0.054 A  
HETATM   23  C   UNL     1      -8.276   6.355  65.898  1.00  0.00    -0.130 A  
ENDBRANCH  17  18
ENDBRANCH  10  17
ENDBRANCH   7   8
ENDBRANCH   6   7
ENDBRANCH   5   6
ENDBRANCH   4   5
ENDBRANCH   2   4
TORSDOF 7
ENDMDL
MODEL      222
REMARK 921   NORMALIZED FREE ENERGY PREDICTED BY IDOCK:   -3.79 KCAL/MOL
REMARK 922        TOTAL FREE ENERGY PREDICTED BY IDOCK:   -5.73 KCAL/MOL
REMARK 923 INTER-LIGAND FREE ENERGY PREDICTED BY IDOCK:   -5.15 KCAL/MOL
REMARK 924 INTRA-LIGAND FREE ENERGY PREDICTED BY IDOCK:   -0.59 KCAL/MOL
REMARK 927      BINDING AFFINITY PREDICTED BY RF-SCORE:    0.00 PKD
ROOT
HETATM    1  C   UNL     1     -10.180   4.890  66.787  1.00  0.00    -0.235 C  
HETATM    2  N   UNL     1      -8.900   5.341  67.344  1.00  0.00    -0.106 NA 
HETATM    3  C   UNL     1      -8.662   6.732  66.953  1.00  0.00    -0.117 C  
ENDROOT
BRANCH   2   4
HETATM    4  C   UNL     1      -8.909   5.162  68.807  1.00  0.00    -0.093 C  
BRANCH   4   5
HETATM    5  C   UNL     1      -9.894   6.078  69.537  1.00  0.00    -0.202 C  
BRANCH   5   6
HETATM    6  C   UNL     1      -9.157   7.065  70.438  1.00  0.00    -0.156 C  
BRANCH   6   7
HETATM    7  O   UNL     1     -10.118   8.010  70.912  1.00  0.00    -0.190 OA 
BRANCH   7   8
HETATM    8  C   UNL     1     -10.167   9.142  70.177  1.00  0.00    -0.205 A  
HETATM    9  N   UNL     1     -11.336   9.718  69.902  1.00  0.00    -0.223 NA 
HETATM   10  N   UNL     1     -10.980  10.784  69.144  1.00  0.00    -0.225 NA 
HETATM   11  C   UNL     1      -6.862  10.605  69.009  1.00  0.00    -0.071 A  
HETATM   12  C   UNL     1      -9.616  10.912  68.970  1.00  0.00    -0.156 A  
HETATM   13  C   UNL     1      -8.828  11.847  68.285  1.00  0.00    -0.174 A  
HETATM   14  C   UNL     1      -9.058   9.838  69.661  1.00  0.00    -0.235 A  
HETATM   15  C   UNL     1      -7.660   9.677  69.685  1.00  0.00    -0.114 A  
HETATM   16  C   UNL     1      -7.439  11.671  68.319  1.00  0.00    -0.097 A  
BRANCH  10  17
HETATM   17  C   UNL     1     -12.017  11.696  68.676  1.00  0.00    -0.248 C  
BRANCH  17  18
HETATM   18  C   UNL     1     -11.998  13.017  69.409  1.00  0.00    -0.338 A  
HETATM   19  C   UNL     1     -12.319  13.090  70.774  1.00  0.00    -0.394 A  
HETATM   20  C   UNL     1     -11.962  15.479  70.759  1.00  0.00    -0.420 A  
HETATM   21  C   UNL     1     -11.616  15.417  69.411  1.00  0.00    -0.354 A  
HETATM   22  C   UNL     1     -12.307  14.315  71.442  1.00  0.00    -0.431 A  
HETATM   23  C   UNL     1     -11.630  14.194  68.739  1.00  0.00    -0.362 A  
ENDBRANCH  17  18
ENDBRANCH  10  17
ENDBRANCH   7   8
ENDBRANCH   6   7
ENDBRANCH   5   6
ENDBRANCH   4   5
ENDBRANCH   2   4
TORSDOF 7
ENDMDL
MODEL      223
REMARK 921   NORMALIZED FREE ENERGY PREDICTED BY IDOCK:   -3.77 KCAL/MOL
REMARK 922        TOTAL FREE ENERGY PREDICTED BY IDOCK:   -5.71 KCAL/MOL
REMARK 923 INTER-LIGAND FREE ENERGY PREDICTED BY IDOCK:   -4.89 KCAL/MOL
REMARK 924 INTRA-LIGAND FREE ENERGY PREDICTED BY IDOCK:   -0.82 KCAL/MOL
REMARK 927      BINDING AFFINITY PREDICTED BY RF-SCORE:    0.00 PKD
ROOT
HETATM    1  C   UNL     1      -8.187  14.478  67.122  1.00  0.00    -0.188 C  
HETATM    2  N   UNL     1      -9.525  14.856  66.654  1.00  0.00    -0.250 NA 
HETATM    3  C   UNL     1      -9.435  16.079  65.854  1.00  0.00    -0.316 C  
ENDROOT
BRANCH   2   4
HETATM    4  C   UNL     1     -10.120  13.735  65.903  1.00  0.00    -0.313 C  
BRANCH   4   5
HETATM    5  C   UNL     1      -9.605  12.360  66.334  1.00  0.00    -0.249 C  
BRANCH   5   6
HETATM    6  C   UNL     1     -10.748  11.476  66.822  1.00  0.00    -0.270 C  
BRANCH   6   7
HETATM    7  O   UNL     1     -10.580  11.297  68.230  1.00  0.00    -0.180 OA 
BRANCH   7   8
HETATM    8  C   UNL     1     -10.607  10.003  68.614  1.00  0.00    -0.212 A  
HETATM    9  N   UNL     1     -10.083   9.056  67.837  1.00  0.00    -0.186 NA 
HETATM   10  N   UNL     1     -10.322   7.920  68.536  1.00  0.00    -0.206 NA 
HETATM   11  C   UNL     1     -12.167   9.221  71.988  1.00  0.00    -0.418 A  
HETATM   12  C   UNL     1     -10.947   8.135  69.749  1.00  0.00    -0.132 A  
HETATM   13  C   UNL     1     -11.364   7.270  70.771  1.00  0.00    -0.312 A  
HETATM   14  C   UNL     1     -11.132   9.514  69.826  1.00  0.00    -0.216 A  
HETATM   15  C   UNL     1     -11.750  10.072  70.959  1.00  0.00    -0.479 A  
HETATM   16  C   UNL     1     -11.978   7.843  71.892  1.00  0.00    -0.347 A  
BRANCH  10  17
HETATM   17  C   UNL     1      -9.845   6.649  68.005  1.00  0.00    -0.131 C  
BRANCH  17  18
HETATM   18  C   UNL     1      -8.747   6.045  68.847  1.00  0.00    -0.122 A  
HETATM   19  C   UNL     1      -8.975   4.889  69.610  1.00  0.00    -0.137 A  
HETATM   20  C   UNL     1      -6.697   4.933  70.413  1.00  0.00    -0.036 A  
HETATM   21  C   UNL     1      -6.449   6.066  69.640  1.00  0.00    -0.042 A  
HETATM   22  C   UNL     1      -7.958   4.341  70.393  1.00  0.00    -0.052 A  
HETATM   23  C   UNL     1      -7.466   6.618  68.858  1.00  0.00    -0.096 A  
ENDBRANCH  17  18
ENDBRANCH  10  17
ENDBRANCH   7   8
ENDBRANCH   6   7
ENDBRANCH   5   6
ENDBRANCH   4   5
ENDBRANCH   2   4
TORSDOF 7
ENDMDL
MODEL      224
REMARK 921   NORMALIZED FREE ENERGY PREDICTED BY IDOCK:   -3.77 KCAL/MOL
REMARK 922        TOTAL FREE ENERGY PREDICTED BY IDOCK:   -5.70 KCAL/MOL
REMARK 923 INTER-LIGAND FREE ENERGY PREDICTED BY IDOCK:   -4.81 KCAL/MOL
REMARK 924 INTRA-LIGAND FREE ENERGY PREDICTED BY IDOCK:   -0.89 KCAL/MOL
REMARK 927      BINDING AFFINITY PREDICTED BY RF-SCORE:    0.00 PKD
ROOT
HETATM    1  C   UNL     1      -7.417   4.020  66.381  1.00  0.00    -0.084 C  
HETATM    2  N   UNL     1      -7.767   3.915  64.960  1.00  0.00    -0.084 NA 
HETATM    3  C   UNL     1      -9.193   3.610  64.831  1.00  0.00    -0.147 C  
ENDROOT
BRANCH   2   4
HETATM    4  C   UNL     1      -7.393   5.161  64.267  1.00  0.00    -0.056 C  
BRANCH   4   5
HETATM    5  C   UNL     1      -6.933   6.278  65.207  1.00  0.00    -0.056 C  
BRANCH   5   6
HETATM    6  C   UNL     1      -7.877   7.474  65.138  1.00  0.00    -0.122 C  
BRANCH   6   7
HETATM    7  O   UNL     1      -9.070   7.119  65.839  1.00  0.00    -0.122 OA 
BRANCH   7   8
HETATM    8  C   UNL     1      -9.327   7.912  66.901  1.00  0.00    -0.164 A  
HETATM    9  N   UNL     1      -8.874   9.165  66.934  1.00  0.00    -0.122 NA 
HETATM   10  N   UNL     1      -9.303   9.613  68.138  1.00  0.00    -0.133 NA 
HETATM   11  C   UNL     1     -11.418   6.441  69.709  1.00  0.00    -0.468 A  
HETATM   12  C   UNL     1     -10.047   8.688  68.843  1.00  0.00    -0.202 A  
HETATM   13  C   UNL     1     -10.678   8.729  70.095  1.00  0.00    -0.239 A  
HETATM   14  C   UNL     1     -10.085   7.556  68.032  1.00  0.00    -0.221 A  
HETATM   15  C   UNL     1     -10.780   6.411  68.465  1.00  0.00    -0.347 A  
HETATM   16  C   UNL     1     -11.365   7.581  70.510  1.00  0.00    -0.279 A  
BRANCH  10  17
HETATM   17  C   UNL     1      -9.023  10.993  68.519  1.00  0.00    -0.163 C  
BRANCH  17  18
HETATM   18  C   UNL     1      -9.805  11.990  67.699  1.00  0.00    -0.191 A  
HETATM   19  C   UNL     1      -9.251  13.232  67.350  1.00  0.00    -0.216 A  
HETATM   20  C   UNL     1     -11.272  13.837  66.174  1.00  0.00    -0.301 A  
HETATM   21  C   UNL     1     -11.825  12.597  66.490  1.00  0.00    -0.463 A  
HETATM   22  C   UNL     1      -9.984  14.152  66.598  1.00  0.00    -0.280 A  
HETATM   23  C   UNL     1     -11.096  11.677  67.245  1.00  0.00    -0.346 A  
ENDBRANCH  17  18
ENDBRANCH  10  17
ENDBRANCH   7   8
ENDBRANCH   6   7
ENDBRANCH   5   6
ENDBRANCH   4   5
ENDBRANCH   2   4
TORSDOF 7
ENDMDL
MODEL      225
REMARK 921   NORMALIZED FREE ENERGY PREDICTED BY IDOCK:   -3.77 KCAL/MOL
REMARK 922        TOTAL FREE ENERGY PREDICTED BY IDOCK:   -5.69 KCAL/MOL
REMARK 923 INTER-LIGAND FREE ENERGY PREDICTED BY IDOCK:   -4.89 KCAL/MOL
REMARK 924 INTRA-LIGAND FREE ENERGY PREDICTED BY IDOCK:   -0.81 KCAL/MOL
REMARK 927      BINDING AFFINITY PREDICTED BY RF-SCORE:    0.00 PKD
ROOT
HETATM    1  C   UNL     1      -9.320   5.181  73.997  1.00  0.00    -0.128 C  
HETATM    2  N   UNL     1      -9.801   6.221  73.082  1.00  0.00    -0.163 NA 
HETATM    3  C   UNL     1     -10.746   7.091  73.786  1.00  0.00    -0.183 C  
ENDROOT
BRANCH   2   4
HETATM    4  C   UNL     1      -8.653   6.966  72.534  1.00  0.00    -0.121 C  
BRANCH   4   5
HETATM    5  C   UNL     1      -8.828   8.486  72.569  1.00  0.00    -0.245 C  
BRANCH   5   6
HETATM    6  C   UNL     1      -9.182   9.028  71.188  1.00  0.00    -0.256 C  
BRANCH   6   7
HETATM    7  O   UNL     1      -8.108   8.691  70.308  1.00  0.00    -0.096 OA 
BRANCH   7   8
HETATM    8  C   UNL     1      -8.493   8.539  69.023  1.00  0.00    -0.126 A  
HETATM    9  N   UNL     1      -8.124   9.424  68.098  1.00  0.00    -0.109 NA 
HETATM   10  N   UNL     1      -8.712   8.954  66.973  1.00  0.00    -0.122 NA 
HETATM   11  C   UNL     1     -10.591   5.487  68.181  1.00  0.00    -0.207 A  
HETATM   12  C   UNL     1      -9.408   7.776  67.160  1.00  0.00    -0.150 A  
HETATM   13  C   UNL     1     -10.142   6.956  66.291  1.00  0.00     0.084 A  
HETATM   14  C   UNL     1      -9.263   7.476  68.513  1.00  0.00    -0.143 A  
HETATM   15  C   UNL     1      -9.860   6.316  69.038  1.00  0.00    -0.165 A  
HETATM   16  C   UNL     1     -10.730   5.805  66.830  1.00  0.00    -0.381 A  
BRANCH  10  17
HETATM   17  C   UNL     1      -8.496   9.658  65.714  1.00  0.00    -0.133 C  
BRANCH  17  18
HETATM   18  C   UNL     1      -9.590  10.654  65.414  1.00  0.00    -0.282 A  
HETATM   19  C   UNL     1      -9.939  10.967  64.090  1.00  0.00    -0.385 A  
HETATM   20  C   UNL     1     -11.625  12.511  64.868  1.00  0.00    -0.386 A  
HETATM   21  C   UNL     1     -11.308  12.190  66.186  1.00  0.00    -0.414 A  
HETATM   22  C   UNL     1     -10.946  11.895  63.820  1.00  0.00    -0.494 A  
HETATM   23  C   UNL     1     -10.300  11.265  66.459  1.00  0.00    -0.284 A  
ENDBRANCH  17  18
ENDBRANCH  10  17
ENDBRANCH   7   8
ENDBRANCH   6   7
ENDBRANCH   5   6
ENDBRANCH   4   5
ENDBRANCH   2   4
TORSDOF 7
ENDMDL
MODEL      226
REMARK 921   NORMALIZED FREE ENERGY PREDICTED BY IDOCK:   -3.74 KCAL/MOL
REMARK 922        TOTAL FREE ENERGY PREDICTED BY IDOCK:   -5.65 KCAL/MOL
REMARK 923 INTER-LIGAND FREE ENERGY PREDICTED BY IDOCK:   -4.80 KCAL/MOL
REMARK 924 INTRA-LIGAND FREE ENERGY PREDICTED BY IDOCK:   -0.85 KCAL/MOL
REMARK 927      BINDING AFFINITY PREDICTED BY RF-SCORE:    0.00 PKD
ROOT
HETATM    1  C   UNL     1     -13.482  15.374  71.988  1.00  0.00    -0.466 C  
HETATM    2  N   UNL     1     -12.734  16.082  70.943  1.00  0.00    -0.300 NA 
HETATM    3  C   UNL     1     -11.455  16.543  71.485  1.00  0.00    -0.051 C  
ENDROOT
BRANCH   2   4
HETATM    4  C   UNL     1     -12.564  15.199  69.774  1.00  0.00    -0.114 C  
BRANCH   4   5
HETATM    5  C   UNL     1     -11.609  14.028  70.018  1.00  0.00    -0.302 C  
BRANCH   5   6
HETATM    6  C   UNL     1     -12.007  12.815  69.184  1.00  0.00    -0.246 C  
BRANCH   6   7
HETATM    7  O   UNL     1     -12.108  11.700  70.072  1.00  0.00    -0.316 OA 
BRANCH   7   8
HETATM    8  C   UNL     1     -11.300  10.671  69.737  1.00  0.00    -0.301 A  
HETATM    9  N   UNL     1     -10.653  10.671  68.572  1.00  0.00    -0.187 NA 
HETATM   10  N   UNL     1      -9.986   9.492  68.594  1.00  0.00    -0.162 NA 
HETATM   11  C   UNL     1     -10.923   7.860  72.263  1.00  0.00    -0.359 A  
HETATM   12  C   UNL     1     -10.167   8.772  69.758  1.00  0.00    -0.202 A  
HETATM   13  C   UNL     1      -9.671   7.537  70.199  1.00  0.00    -0.172 A  
HETATM   14  C   UNL     1     -11.025   9.545  70.536  1.00  0.00    -0.348 A  
HETATM   15  C   UNL     1     -11.413   9.089  71.809  1.00  0.00    -0.442 A  
HETATM   16  C   UNL     1     -10.068   7.097  71.468  1.00  0.00    -0.197 A  
BRANCH  10  17
HETATM   17  C   UNL     1      -9.116   9.152  67.474  1.00  0.00    -0.124 C  
BRANCH  17  18
HETATM   18  C   UNL     1      -7.777   9.845  67.550  1.00  0.00    -0.091 A  
HETATM   19  C   UNL     1      -7.382  10.764  66.565  1.00  0.00    -0.139 A  
HETATM   20  C   UNL     1      -5.282  11.125  67.702  1.00  0.00    -0.041 A  
HETATM   21  C   UNL     1      -5.672  10.235  68.701  1.00  0.00    -0.037 A  
HETATM   22  C   UNL     1      -6.139  11.395  66.638  1.00  0.00    -0.140 A  
HETATM   23  C   UNL     1      -6.913   9.601  68.628  1.00  0.00    -0.064 A  
ENDBRANCH  17  18
ENDBRANCH  10  17
ENDBRANCH   7   8
ENDBRANCH   6   7
ENDBRANCH   5   6
ENDBRANCH   4   5
ENDBRANCH   2   4
TORSDOF 7
ENDMDL
MODEL      227
REMARK 921   NORMALIZED FREE ENERGY PREDICTED BY IDOCK:   -3.73 KCAL/MOL
REMARK 922        TOTAL FREE ENERGY PREDICTED BY IDOCK:   -5.65 KCAL/MOL
REMARK 923 INTER-LIGAND FREE ENERGY PREDICTED BY IDOCK:   -4.70 KCAL/MOL
REMARK 924 INTRA-LIGAND FREE ENERGY PREDICTED BY IDOCK:   -0.96 KCAL/MOL
REMARK 927      BINDING AFFINITY PREDICTED BY RF-SCORE:    0.00 PKD
ROOT
HETATM    1  C   UNL     1      -7.176  13.112  68.415  1.00  0.00    -0.107 C  
HETATM    2  N   UNL     1      -7.380  12.271  67.231  1.00  0.00    -0.148 NA 
HETATM    3  C   UNL     1      -6.127  11.596  66.891  1.00  0.00    -0.148 C  
ENDROOT
BRANCH   2   4
HETATM    4  C   UNL     1      -8.480  11.322  67.483  1.00  0.00    -0.131 C  
BRANCH   4   5
HETATM    5  C   UNL     1      -9.550  11.311  66.390  1.00  0.00    -0.223 C  
BRANCH   5   6
HETATM    6  C   UNL     1     -10.402  10.048  66.471  1.00  0.00    -0.198 C  
BRANCH   6   7
HETATM    7  O   UNL     1      -9.564   8.943  66.125  1.00  0.00    -0.234 OA 
BRANCH   7   8
HETATM    8  C   UNL     1      -9.845   7.818  66.815  1.00  0.00    -0.241 A  
HETATM    9  N   UNL     1     -10.593   7.869  67.916  1.00  0.00    -0.186 NA 
HETATM   10  N   UNL     1     -10.625   6.577  68.324  1.00  0.00    -0.222 NA 
HETATM   11  C   UNL     1      -8.470   4.550  65.451  1.00  0.00    -0.123 A  
HETATM   12  C   UNL     1      -9.949   5.713  67.485  1.00  0.00    -0.154 A  
HETATM   13  C   UNL     1      -9.738   4.327  67.518  1.00  0.00    -0.198 A  
HETATM   14  C   UNL     1      -9.435   6.515  66.469  1.00  0.00    -0.190 A  
HETATM   15  C   UNL     1      -8.683   5.932  65.433  1.00  0.00    -0.109 A  
HETATM   16  C   UNL     1      -8.988   3.762  66.479  1.00  0.00    -0.143 A  
BRANCH  10  17
HETATM   17  C   UNL     1     -11.403   6.229  69.507  1.00  0.00    -0.404 C  
BRANCH  17  18
HETATM   18  C   UNL     1     -10.705   6.609  70.791  1.00  0.00    -0.282 A  
HETATM   19  C   UNL     1      -9.565   5.915  71.226  1.00  0.00    -0.195 A  
HETATM   20  C   UNL     1      -9.417   7.325  73.182  1.00  0.00    -0.228 A  
HETATM   21  C   UNL     1     -10.532   8.040  72.747  1.00  0.00    -0.415 A  
HETATM   22  C   UNL     1      -8.930   6.267  72.418  1.00  0.00    -0.138 A  
HETATM   23  C   UNL     1     -11.171   7.688  71.558  1.00  0.00    -0.277 A  
ENDBRANCH  17  18
ENDBRANCH  10  17
ENDBRANCH   7   8
ENDBRANCH   6   7
ENDBRANCH   5   6
ENDBRANCH   4   5
ENDBRANCH   2   4
TORSDOF 7
ENDMDL
MODEL      228
REMARK 921   NORMALIZED FREE ENERGY PREDICTED BY IDOCK:   -3.73 KCAL/MOL
REMARK 922        TOTAL FREE ENERGY PREDICTED BY IDOCK:   -5.64 KCAL/MOL
REMARK 923 INTER-LIGAND FREE ENERGY PREDICTED BY IDOCK:   -4.81 KCAL/MOL
REMARK 924 INTRA-LIGAND FREE ENERGY PREDICTED BY IDOCK:   -0.84 KCAL/MOL
REMARK 927      BINDING AFFINITY PREDICTED BY RF-SCORE:    0.00 PKD
ROOT
HETATM    1  C   UNL     1     -12.047  14.725  64.362  1.00  0.00    -0.440 C  
HETATM    2  N   UNL     1     -11.628  13.736  65.360  1.00  0.00    -0.313 NA 
HETATM    3  C   UNL     1     -12.278  14.028  66.639  1.00  0.00    -0.428 C  
ENDROOT
BRANCH   2   4
HETATM    4  C   UNL     1     -11.936  12.380  64.870  1.00  0.00    -0.398 C  
BRANCH   4   5
HETATM    5  C   UNL     1     -11.010  11.903  63.748  1.00  0.00    -0.494 C  
BRANCH   5   6
HETATM    6  C   UNL     1     -10.251  10.646  64.163  1.00  0.00    -0.295 C  
BRANCH   6   7
HETATM    7  O   UNL     1     -10.473  10.454  65.561  1.00  0.00    -0.227 OA 
BRANCH   7   8
HETATM    8  C   UNL     1      -9.719   9.469  66.095  1.00  0.00    -0.258 A  
HETATM    9  N   UNL     1     -10.292   8.369  66.581  1.00  0.00    -0.286 NA 
HETATM   10  N   UNL     1      -9.237   7.652  67.038  1.00  0.00    -0.132 NA 
HETATM   11  C   UNL     1      -5.953   9.957  66.084  1.00  0.00    -0.065 A  
HETATM   12  C   UNL     1      -8.015   8.257  66.815  1.00  0.00    -0.099 A  
HETATM   13  C   UNL     1      -6.698   7.876  67.108  1.00  0.00    -0.068 A  
HETATM   14  C   UNL     1      -8.314   9.459  66.177  1.00  0.00    -0.118 A  
HETATM   15  C   UNL     1      -7.272  10.326  65.803  1.00  0.00    -0.133 A  
HETATM   16  C   UNL     1      -5.673   8.752  66.728  1.00  0.00    -0.048 A  
BRANCH  10  17
HETATM   17  C   UNL     1      -9.475   6.336  67.619  1.00  0.00    -0.115 C  
BRANCH  17  18
HETATM   18  C   UNL     1      -9.391   5.229  66.596  1.00  0.00    -0.139 A  
HETATM   19  C   UNL     1      -8.193   4.527  66.387  1.00  0.00    -0.106 A  
HETATM   20  C   UNL     1      -9.247   3.173  64.687  1.00  0.00    -0.142 A  
HETATM   21  C   UNL     1     -10.450   3.843  64.903  1.00  0.00    -0.125 A  
HETATM   22  C   UNL     1      -8.121   3.510  65.433  1.00  0.00    -0.097 A  
HETATM   23  C   UNL     1     -10.524   4.862  65.854  1.00  0.00    -0.282 A  
ENDBRANCH  17  18
ENDBRANCH  10  17
ENDBRANCH   7   8
ENDBRANCH   6   7
ENDBRANCH   5   6
ENDBRANCH   4   5
ENDBRANCH   2   4
TORSDOF 7
ENDMDL
MODEL      229
REMARK 921   NORMALIZED FREE ENERGY PREDICTED BY IDOCK:   -3.72 KCAL/MOL
REMARK 922        TOTAL FREE ENERGY PREDICTED BY IDOCK:   -5.64 KCAL/MOL
REMARK 923 INTER-LIGAND FREE ENERGY PREDICTED BY IDOCK:   -4.80 KCAL/MOL
REMARK 924 INTRA-LIGAND FREE ENERGY PREDICTED BY IDOCK:   -0.83 KCAL/MOL
REMARK 927      BINDING AFFINITY PREDICTED BY RF-SCORE:    0.00 PKD
ROOT
HETATM    1  C   UNL     1      -9.776   5.133  69.815  1.00  0.00    -0.193 C  
HETATM    2  N   UNL     1     -11.128   5.635  70.080  1.00  0.00    -0.253 NA 
HETATM    3  C   UNL     1     -11.165   6.267  71.400  1.00  0.00    -0.293 C  
ENDROOT
BRANCH   2   4
HETATM    4  C   UNL     1     -11.531   6.560  69.004  1.00  0.00    -0.114 C  
BRANCH   4   5
HETATM    5  C   UNL     1     -10.719   6.400  67.716  1.00  0.00    -0.377 C  
BRANCH   5   6
HETATM    6  C   UNL     1     -10.489   7.750  67.044  1.00  0.00    -0.349 C  
BRANCH   6   7
HETATM    7  O   UNL     1     -11.058   8.751  67.889  1.00  0.00     0.031 OA 
BRANCH   7   8
HETATM    8  C   UNL     1     -10.264   9.831  68.055  1.00  0.00    -0.190 A  
HETATM    9  N   UNL     1     -10.599  11.004  67.520  1.00  0.00    -0.212 NA 
HETATM   10  N   UNL     1      -9.568  11.807  67.875  1.00  0.00    -0.181 NA 
HETATM   11  C   UNL     1      -7.118   9.377  70.134  1.00  0.00    -0.083 A  
HETATM   12  C   UNL     1      -8.614  11.177  68.651  1.00  0.00    -0.151 A  
HETATM   13  C   UNL     1      -7.417  11.619  69.232  1.00  0.00     0.073 A  
HETATM   14  C   UNL     1      -9.066   9.867  68.793  1.00  0.00    -0.147 A  
HETATM   15  C   UNL     1      -8.312   8.948  69.545  1.00  0.00    -0.119 A  
HETATM   16  C   UNL     1      -6.679  10.691  69.977  1.00  0.00    -0.156 A  
BRANCH  10  17
HETATM   17  C   UNL     1      -9.602  13.214  67.492  1.00  0.00    -0.208 C  
BRANCH  17  18
HETATM   18  C   UNL     1     -10.322  14.072  68.505  1.00  0.00    -0.247 A  
HETATM   19  C   UNL     1      -9.753  15.266  68.975  1.00  0.00    -0.234 A  
HETATM   20  C   UNL     1     -11.669  15.657  70.392  1.00  0.00    -0.379 A  
HETATM   21  C   UNL     1     -12.258  14.487  69.915  1.00  0.00    -0.379 A  
HETATM   22  C   UNL     1     -10.420  16.050  69.917  1.00  0.00    -0.287 A  
HETATM   23  C   UNL     1     -11.591  13.700  68.974  1.00  0.00    -0.356 A  
ENDBRANCH  17  18
ENDBRANCH  10  17
ENDBRANCH   7   8
ENDBRANCH   6   7
ENDBRANCH   5   6
ENDBRANCH   4   5
ENDBRANCH   2   4
TORSDOF 7
ENDMDL
MODEL      230
REMARK 921   NORMALIZED FREE ENERGY PREDICTED BY IDOCK:   -3.71 KCAL/MOL
REMARK 922        TOTAL FREE ENERGY PREDICTED BY IDOCK:   -5.61 KCAL/MOL
REMARK 923 INTER-LIGAND FREE ENERGY PREDICTED BY IDOCK:   -4.75 KCAL/MOL
REMARK 924 INTRA-LIGAND FREE ENERGY PREDICTED BY IDOCK:   -0.86 KCAL/MOL
REMARK 927      BINDING AFFINITY PREDICTED BY RF-SCORE:    0.00 PKD
ROOT
HETATM    1  C   UNL     1     -11.686  14.541  64.954  1.00  0.00    -0.402 C  
HETATM    2  N   UNL     1     -11.221  13.497  65.874  1.00  0.00    -0.299 NA 
HETATM    3  C   UNL     1     -11.908  13.639  67.159  1.00  0.00    -0.396 C  
ENDROOT
BRANCH   2   4
HETATM    4  C   UNL     1     -11.435  12.172  65.265  1.00  0.00    -0.336 C  
BRANCH   4   5
HETATM    5  C   UNL     1     -10.383  11.794  64.220  1.00  0.00    -0.359 C  
BRANCH   5   6
HETATM    6  C   UNL     1      -9.875  10.373  64.445  1.00  0.00    -0.328 C  
BRANCH   6   7
HETATM    7  O   UNL     1      -9.086  10.384  65.636  1.00  0.00    -0.161 OA 
BRANCH   7   8
HETATM    8  C   UNL     1      -8.778   9.150  66.088  1.00  0.00    -0.148 A  
HETATM    9  N   UNL     1      -9.670   8.164  66.024  1.00  0.00    -0.076 NA 
HETATM   10  N   UNL     1      -9.013   7.120  66.583  1.00  0.00    -0.140 NA 
HETATM   11  C   UNL     1      -5.279   8.627  67.471  1.00  0.00    -0.034 A  
HETATM   12  C   UNL     1      -7.718   7.416  66.961  1.00  0.00    -0.111 A  
HETATM   13  C   UNL     1      -6.703   6.653  67.555  1.00  0.00    -0.067 A  
HETATM   14  C   UNL     1      -7.538   8.756  66.627  1.00  0.00    -0.089 A  
HETATM   15  C   UNL     1      -6.302   9.378  66.883  1.00  0.00    -0.066 A  
HETATM   16  C   UNL     1      -5.479   7.287  67.803  1.00  0.00    -0.025 A  
BRANCH  10  17
HETATM   17  C   UNL     1      -9.677   5.823  66.654  1.00  0.00    -0.157 C  
BRANCH  17  18
HETATM   18  C   UNL     1      -9.884   5.356  68.075  1.00  0.00    -0.183 A  
HETATM   19  C   UNL     1     -10.686   6.087  68.966  1.00  0.00    -0.393 A  
HETATM   20  C   UNL     1     -10.259   4.479  70.717  1.00  0.00    -0.164 A  
HETATM   21  C   UNL     1      -9.482   3.729  69.836  1.00  0.00    -0.267 A  
HETATM   22  C   UNL     1     -10.866   5.654  70.281  1.00  0.00    -0.336 A  
HETATM   23  C   UNL     1      -9.298   4.162  68.522  1.00  0.00    -0.216 A  
ENDBRANCH  17  18
ENDBRANCH  10  17
ENDBRANCH   7   8
ENDBRANCH   6   7
ENDBRANCH   5   6
ENDBRANCH   4   5
ENDBRANCH   2   4
TORSDOF 7
ENDMDL
MODEL      231
REMARK 921   NORMALIZED FREE ENERGY PREDICTED BY IDOCK:   -3.70 KCAL/MOL
REMARK 922        TOTAL FREE ENERGY PREDICTED BY IDOCK:   -5.60 KCAL/MOL
REMARK 923 INTER-LIGAND FREE ENERGY PREDICTED BY IDOCK:   -4.70 KCAL/MOL
REMARK 924 INTRA-LIGAND FREE ENERGY PREDICTED BY IDOCK:   -0.90 KCAL/MOL
REMARK 927      BINDING AFFINITY PREDICTED BY RF-SCORE:    0.00 PKD
ROOT
HETATM    1  C   UNL     1      -9.135   2.319  65.151  1.00  0.00    -0.127 C  
HETATM    2  N   UNL     1      -8.799   3.653  65.659  1.00  0.00    -0.121 NA 
HETATM    3  C   UNL     1      -8.748   4.601  64.544  1.00  0.00    -0.151 C  
ENDROOT
BRANCH   2   4
HETATM    4  C   UNL     1      -9.776   4.049  66.689  1.00  0.00    -0.192 C  
BRANCH   4   5
HETATM    5  C   UNL     1      -9.168   4.230  68.082  1.00  0.00    -0.186 C  
BRANCH   5   6
HETATM    6  C   UNL     1      -8.917   5.704  68.382  1.00  0.00    -0.114 C  
BRANCH   6   7
HETATM    7  O   UNL     1     -10.099   6.224  68.992  1.00  0.00    -0.155 OA 
BRANCH   7   8
HETATM    8  C   UNL     1     -10.348   7.512  68.671  1.00  0.00    -0.200 A  
HETATM    9  N   UNL     1     -10.093   7.965  67.445  1.00  0.00    -0.202 NA 
HETATM   10  N   UNL     1     -10.442   9.271  67.522  1.00  0.00    -0.261 NA 
HETATM   11  C   UNL     1     -11.846   9.721  71.374  1.00  0.00    -0.488 A  
HETATM   12  C   UNL     1     -10.947   9.640  68.754  1.00  0.00    -0.117 A  
HETATM   13  C   UNL     1     -11.426  10.856  69.261  1.00  0.00    -0.372 A  
HETATM   14  C   UNL     1     -10.906   8.481  69.527  1.00  0.00    -0.134 A  
HETATM   15  C   UNL     1     -11.361   8.515  70.858  1.00  0.00    -0.304 A  
HETATM   16  C   UNL     1     -11.874  10.872  70.587  1.00  0.00    -0.453 A  
BRANCH  10  17
HETATM   17  C   UNL     1     -10.334  10.104  66.330  1.00  0.00    -0.188 C  
BRANCH  17  18
HETATM   18  C   UNL     1      -8.939  10.107  65.752  1.00  0.00    -0.187 A  
HETATM   19  C   UNL     1      -7.838  10.510  66.524  1.00  0.00    -0.134 A  
HETATM   20  C   UNL     1      -6.350  10.112  64.663  1.00  0.00    -0.130 A  
HETATM   21  C   UNL     1      -7.430   9.685  63.894  1.00  0.00    -0.123 A  
HETATM   22  C   UNL     1      -6.552  10.518  65.980  1.00  0.00    -0.127 A  
HETATM   23  C   UNL     1      -8.717   9.678  64.434  1.00  0.00    -0.230 A  
ENDBRANCH  17  18
ENDBRANCH  10  17
ENDBRANCH   7   8
ENDBRANCH   6   7
ENDBRANCH   5   6
ENDBRANCH   4   5
ENDBRANCH   2   4
TORSDOF 7
ENDMDL
MODEL      232
REMARK 921   NORMALIZED FREE ENERGY PREDICTED BY IDOCK:   -3.69 KCAL/MOL
REMARK 922        TOTAL FREE ENERGY PREDICTED BY IDOCK:   -5.59 KCAL/MOL
REMARK 923 INTER-LIGAND FREE ENERGY PREDICTED BY IDOCK:   -4.70 KCAL/MOL
REMARK 924 INTRA-LIGAND FREE ENERGY PREDICTED BY IDOCK:   -0.89 KCAL/MOL
REMARK 927      BINDING AFFINITY PREDICTED BY RF-SCORE:    0.00 PKD
ROOT
HETATM    1  C   UNL     1     -12.635  15.103  71.558  1.00  0.00    -0.353 C  
HETATM    2  N   UNL     1     -12.014  15.065  70.229  1.00  0.00    -0.293 NA 
HETATM    3  C   UNL     1     -10.557  15.096  70.370  1.00  0.00    -0.134 C  
ENDROOT
BRANCH   2   4
HETATM    4  C   UNL     1     -12.483  13.872  69.500  1.00  0.00    -0.095 C  
BRANCH   4   5
HETATM    5  C   UNL     1     -11.412  12.791  69.330  1.00  0.00    -0.349 C  
BRANCH   5   6
HETATM    6  C   UNL     1     -12.021  11.397  69.436  1.00  0.00    -0.339 C  
BRANCH   6   7
HETATM    7  O   UNL     1     -11.414  10.749  70.556  1.00  0.00    -0.313 OA 
BRANCH   7   8
HETATM    8  C   UNL     1     -10.805   9.586  70.240  1.00  0.00    -0.269 A  
HETATM    9  N   UNL     1     -11.488   8.443  70.243  1.00  0.00    -0.138 NA 
HETATM   10  N   UNL     1     -10.549   7.525  69.909  1.00  0.00    -0.234 NA 
HETATM   11  C   UNL     1      -7.129   9.747  69.298  1.00  0.00    -0.066 A  
HETATM   12  C   UNL     1      -9.305   8.069  69.657  1.00  0.00    -0.156 A  
HETATM   13  C   UNL     1      -8.078   7.504  69.281  1.00  0.00    -0.126 A  
HETATM   14  C   UNL     1      -9.458   9.439  69.858  1.00  0.00    -0.235 A  
HETATM   15  C   UNL     1      -8.358  10.297  69.677  1.00  0.00    -0.139 A  
HETATM   16  C   UNL     1      -6.993   8.372  69.105  1.00  0.00    -0.059 A  
BRANCH  10  17
HETATM   17  C   UNL     1     -10.943   6.128  69.772  1.00  0.00    -0.390 C  
BRANCH  17  18
HETATM   18  C   UNL     1     -10.656   5.578  68.395  1.00  0.00    -0.210 A  
HETATM   19  C   UNL     1     -11.160   6.208  67.246  1.00  0.00    -0.334 A  
HETATM   20  C   UNL     1     -10.115   4.545  65.839  1.00  0.00    -0.279 A  
HETATM   21  C   UNL     1      -9.586   3.925  66.970  1.00  0.00    -0.227 A  
HETATM   22  C   UNL     1     -10.896   5.690  65.977  1.00  0.00     0.171 A  
HETATM   23  C   UNL     1      -9.851   4.440  68.240  1.00  0.00    -0.132 A  
ENDBRANCH  17  18
ENDBRANCH  10  17
ENDBRANCH   7   8
ENDBRANCH   6   7
ENDBRANCH   5   6
ENDBRANCH   4   5
ENDBRANCH   2   4
TORSDOF 7
ENDMDL
MODEL      233
REMARK 921   NORMALIZED FREE ENERGY PREDICTED BY IDOCK:   -3.69 KCAL/MOL
REMARK 922        TOTAL FREE ENERGY PREDICTED BY IDOCK:   -5.59 KCAL/MOL
REMARK 923 INTER-LIGAND FREE ENERGY PREDICTED BY IDOCK:   -4.88 KCAL/MOL
REMARK 924 INTRA-LIGAND FREE ENERGY PREDICTED BY IDOCK:   -0.72 KCAL/MOL
REMARK 927      BINDING AFFINITY PREDICTED BY RF-SCORE:    0.00 PKD
ROOT
HETATM    1  C   UNL     1      -8.197   6.514  69.949  1.00  0.00    -0.126 C  
HETATM    2  N   UNL     1      -8.465   7.945  69.766  1.00  0.00    -0.130 NA 
HETATM    3  C   UNL     1      -9.911   8.168  69.711  1.00  0.00    -0.187 C  
ENDROOT
BRANCH   2   4
HETATM    4  C   UNL     1      -7.819   8.710  70.848  1.00  0.00    -0.118 C  
BRANCH   4   5
HETATM    5  C   UNL     1      -7.140   9.998  70.375  1.00  0.00    -0.131 C  
BRANCH   5   6
HETATM    6  C   UNL     1      -6.592   9.839  68.960  1.00  0.00    -0.049 C  
BRANCH   6   7
HETATM    7  O   UNL     1      -6.792  11.080  68.282  1.00  0.00    -0.065 OA 
BRANCH   7   8
HETATM    8  C   UNL     1      -7.893  11.095  67.500  1.00  0.00    -0.117 A  
HETATM    9  N   UNL     1      -8.998  11.723  67.900  1.00  0.00    -0.172 NA 
HETATM   10  N   UNL     1      -9.864  11.495  66.883  1.00  0.00    -0.195 NA 
HETATM   11  C   UNL     1      -7.665   9.340  64.139  1.00  0.00    -0.120 A  
HETATM   12  C   UNL     1      -9.318  10.774  65.839  1.00  0.00    -0.189 A  
HETATM   13  C   UNL     1      -9.838  10.331  64.615  1.00  0.00    -0.396 A  
HETATM   14  C   UNL     1      -8.005  10.511  66.224  1.00  0.00    -0.144 A  
HETATM   15  C   UNL     1      -7.160   9.783  65.366  1.00  0.00    -0.113 A  
HETATM   16  C   UNL     1      -8.984   9.609  63.773  1.00  0.00    -0.251 A  
BRANCH  10  17
HETATM   17  C   UNL     1     -11.199  12.077  66.949  1.00  0.00    -0.320 C  
BRANCH  17  18
HETATM   18  C   UNL     1     -11.412  12.898  68.198  1.00  0.00    -0.354 A  
HETATM   19  C   UNL     1     -11.890  12.306  69.378  1.00  0.00    -0.370 A  
HETATM   20  C   UNL     1     -11.806  14.436  70.515  1.00  0.00    -0.367 A  
HETATM   21  C   UNL     1     -11.306  15.031  69.358  1.00  0.00    -0.314 A  
HETATM   22  C   UNL     1     -12.092  13.073  70.527  1.00  0.00    -0.373 A  
HETATM   23  C   UNL     1     -11.106  14.267  68.207  1.00  0.00    -0.276 A  
ENDBRANCH  17  18
ENDBRANCH  10  17
ENDBRANCH   7   8
ENDBRANCH   6   7
ENDBRANCH   5   6
ENDBRANCH   4   5
ENDBRANCH   2   4
TORSDOF 7
ENDMDL
MODEL      234
REMARK 921   NORMALIZED FREE ENERGY PREDICTED BY IDOCK:   -3.68 KCAL/MOL
REMARK 922        TOTAL FREE ENERGY PREDICTED BY IDOCK:   -5.58 KCAL/MOL
REMARK 923 INTER-LIGAND FREE ENERGY PREDICTED BY IDOCK:   -4.73 KCAL/MOL
REMARK 924 INTRA-LIGAND FREE ENERGY PREDICTED BY IDOCK:   -0.85 KCAL/MOL
REMARK 927      BINDING AFFINITY PREDICTED BY RF-SCORE:    0.00 PKD
ROOT
HETATM    1  C   UNL     1      -8.249   1.489  64.407  1.00  0.00    -0.070 C  
HETATM    2  N   UNL     1      -7.571   2.231  65.474  1.00  0.00    -0.070 NA 
HETATM    3  C   UNL     1      -7.379   3.621  65.056  1.00  0.00    -0.072 C  
ENDROOT
BRANCH   2   4
HETATM    4  C   UNL     1      -8.348   2.122  66.722  1.00  0.00    -0.092 C  
BRANCH   4   5
HETATM    5  C   UNL     1      -7.484   2.016  67.981  1.00  0.00    -0.054 C  
BRANCH   5   6
HETATM    6  C   UNL     1      -7.470   3.335  68.747  1.00  0.00    -0.049 C  
BRANCH   6   7
HETATM    7  O   UNL     1      -8.616   3.346  69.601  1.00  0.00    -0.058 OA 
BRANCH   7   8
HETATM    8  C   UNL     1      -9.446   4.386  69.373  1.00  0.00    -0.180 A  
HETATM    9  N   UNL     1      -9.604   4.868  68.141  1.00  0.00    -0.137 NA 
HETATM   10  N   UNL     1     -10.470   5.893  68.323  1.00  0.00    -0.215 NA 
HETATM   11  C   UNL     1     -11.321   5.803  72.357  1.00  0.00    -0.348 A  
HETATM   12  C   UNL     1     -10.890   6.042  69.630  1.00  0.00    -0.369 A  
HETATM   13  C   UNL     1     -11.766   6.943  70.252  1.00  0.00    -0.344 A  
HETATM   14  C   UNL     1     -10.231   5.041  70.341  1.00  0.00    -0.324 A  
HETATM   15  C   UNL     1     -10.445   4.914  71.726  1.00  0.00    -0.214 A  
HETATM   16  C   UNL     1     -11.968   6.802  71.631  1.00  0.00    -0.391 A  
BRANCH  10  17
HETATM   17  C   UNL     1     -10.920   6.653  67.162  1.00  0.00    -0.408 C  
BRANCH  17  18
HETATM   18  C   UNL     1     -10.049   7.856  66.886  1.00  0.00    -0.362 A  
HETATM   19  C   UNL     1      -8.840   7.726  66.184  1.00  0.00    -0.192 A  
HETATM   20  C   UNL     1      -8.437  10.099  66.380  1.00  0.00    -0.133 A  
HETATM   21  C   UNL     1      -9.648  10.247  67.054  1.00  0.00    -0.205 A  
HETATM   22  C   UNL     1      -8.036   8.841  65.940  1.00  0.00    -0.110 A  
HETATM   23  C   UNL     1     -10.452   9.134  67.303  1.00  0.00    -0.335 A  
ENDBRANCH  17  18
ENDBRANCH  10  17
ENDBRANCH   7   8
ENDBRANCH   6   7
ENDBRANCH   5   6
ENDBRANCH   4   5
ENDBRANCH   2   4
TORSDOF 7
ENDMDL
MODEL      235
REMARK 921   NORMALIZED FREE ENERGY PREDICTED BY IDOCK:   -3.64 KCAL/MOL
REMARK 922        TOTAL FREE ENERGY PREDICTED BY IDOCK:   -5.52 KCAL/MOL
REMARK 923 INTER-LIGAND FREE ENERGY PREDICTED BY IDOCK:   -4.88 KCAL/MOL
REMARK 924 INTRA-LIGAND FREE ENERGY PREDICTED BY IDOCK:   -0.63 KCAL/MOL
REMARK 927      BINDING AFFINITY PREDICTED BY RF-SCORE:    0.00 PKD
ROOT
HETATM    1  C   UNL     1      -6.770  13.815  69.356  1.00  0.00    -0.079 C  
HETATM    2  N   UNL     1      -8.016  13.708  68.590  1.00  0.00    -0.120 NA 
HETATM    3  C   UNL     1      -7.940  14.574  67.412  1.00  0.00    -0.200 C  
ENDROOT
BRANCH   2   4
HETATM    4  C   UNL     1      -8.257  12.297  68.236  1.00  0.00    -0.167 C  
BRANCH   4   5
HETATM    5  C   UNL     1      -9.707  11.997  67.845  1.00  0.00    -0.194 C  
BRANCH   5   6
HETATM    6  C   UNL     1      -9.921  10.499  67.649  1.00  0.00    -0.173 C  
BRANCH   6   7
HETATM    7  O   UNL     1      -9.215   9.826  68.693  1.00  0.00    -0.133 OA 
BRANCH   7   8
HETATM    8  C   UNL     1      -9.901   8.794  69.229  1.00  0.00    -0.180 A  
HETATM    9  N   UNL     1      -9.621   7.540  68.877  1.00  0.00    -0.149 NA 
HETATM   10  N   UNL     1     -10.516   6.816  69.590  1.00  0.00    -0.204 NA 
HETATM   11  C   UNL     1     -12.580   9.628  71.789  1.00  0.00    -0.497 A  
HETATM   12  C   UNL     1     -11.323   7.580  70.409  1.00  0.00    -0.233 A  
HETATM   13  C   UNL     1     -12.353   7.253  71.303  1.00  0.00    -0.401 A  
HETATM   14  C   UNL     1     -10.921   8.896  70.194  1.00  0.00    -0.245 A  
HETATM   15  C   UNL     1     -11.554   9.941  70.891  1.00  0.00    -0.456 A  
HETATM   16  C   UNL     1     -12.973   8.305  71.988  1.00  0.00    -0.355 A  
BRANCH  10  17
HETATM   17  C   UNL     1     -10.486   5.361  69.491  1.00  0.00    -0.273 C  
BRANCH  17  18
HETATM   18  C   UNL     1      -9.933   4.882  68.170  1.00  0.00    -0.171 A  
HETATM   19  C   UNL     1      -8.680   4.253  68.098  1.00  0.00    -0.118 A  
HETATM   20  C   UNL     1      -8.913   3.998  65.707  1.00  0.00    -0.131 A  
HETATM   21  C   UNL     1     -10.171   4.596  65.768  1.00  0.00    -0.283 A  
HETATM   22  C   UNL     1      -8.171   3.820  66.872  1.00  0.00    -0.096 A  
HETATM   23  C   UNL     1     -10.680   5.033  66.992  1.00  0.00    -0.025 A  
ENDBRANCH  17  18
ENDBRANCH  10  17
ENDBRANCH   7   8
ENDBRANCH   6   7
ENDBRANCH   5   6
ENDBRANCH   4   5
ENDBRANCH   2   4
TORSDOF 7
ENDMDL
MODEL      236
REMARK 921   NORMALIZED FREE ENERGY PREDICTED BY IDOCK:   -3.63 KCAL/MOL
REMARK 922        TOTAL FREE ENERGY PREDICTED BY IDOCK:   -5.51 KCAL/MOL
REMARK 923 INTER-LIGAND FREE ENERGY PREDICTED BY IDOCK:   -4.65 KCAL/MOL
REMARK 924 INTRA-LIGAND FREE ENERGY PREDICTED BY IDOCK:   -0.86 KCAL/MOL
REMARK 927      BINDING AFFINITY PREDICTED BY RF-SCORE:    0.00 PKD
ROOT
HETATM    1  C   UNL     1      -9.714  13.408  66.390  1.00  0.00    -0.277 C  
HETATM    2  N   UNL     1      -9.234  12.085  66.805  1.00  0.00    -0.196 NA 
HETATM    3  C   UNL     1      -8.108  12.243  67.728  1.00  0.00    -0.155 C  
ENDROOT
BRANCH   2   4
HETATM    4  C   UNL     1     -10.346  11.322  67.401  1.00  0.00    -0.200 C  
BRANCH   4   5
HETATM    5  C   UNL     1     -10.162   9.804  67.328  1.00  0.00    -0.289 C  
BRANCH   5   6
HETATM    6  C   UNL     1     -10.581   9.139  68.635  1.00  0.00    -0.174 C  
BRANCH   6   7
HETATM    7  O   UNL     1     -10.145   9.982  69.703  1.00  0.00    -0.210 OA 
BRANCH   7   8
HETATM    8  C   UNL     1      -9.589   9.305  70.731  1.00  0.00    -0.275 A  
HETATM    9  N   UNL     1     -10.354   8.627  71.585  1.00  0.00    -0.267 NA 
HETATM   10  N   UNL     1      -9.456   8.120  72.463  1.00  0.00    -0.239 NA 
HETATM   11  C   UNL     1      -5.803   9.380  71.022  1.00  0.00    -0.065 A  
HETATM   12  C   UNL     1      -8.145   8.431  72.159  1.00  0.00    -0.135 A  
HETATM   13  C   UNL     1      -6.925   8.115  72.775  1.00  0.00    -0.113 A  
HETATM   14  C   UNL     1      -8.212   9.206  71.004  1.00  0.00    -0.186 A  
HETATM   15  C   UNL     1      -7.027   9.691  70.420  1.00  0.00    -0.128 A  
HETATM   16  C   UNL     1      -5.756   8.606  72.182  1.00  0.00    -0.057 A  
BRANCH  10  17
HETATM   17  C   UNL     1      -9.930   7.267  73.547  1.00  0.00    -0.320 C  
BRANCH  17  18
HETATM   18  C   UNL     1      -9.999   5.812  73.149  1.00  0.00    -0.189 A  
HETATM   19  C   UNL     1     -11.006   4.973  73.652  1.00  0.00    -0.379 A  
HETATM   20  C   UNL     1     -10.116   3.106  72.403  1.00  0.00    -0.227 A  
HETATM   21  C   UNL     1      -9.127   3.935  71.876  1.00  0.00    -0.165 A  
HETATM   22  C   UNL     1     -11.059   3.627  73.286  1.00  0.00    -0.252 A  
HETATM   23  C   UNL     1      -9.070   5.280  72.242  1.00  0.00    -0.149 A  
ENDBRANCH  17  18
ENDBRANCH  10  17
ENDBRANCH   7   8
ENDBRANCH   6   7
ENDBRANCH   5   6
ENDBRANCH   4   5
ENDBRANCH   2   4
TORSDOF 7
ENDMDL
MODEL      237
REMARK 921   NORMALIZED FREE ENERGY PREDICTED BY IDOCK:   -3.63 KCAL/MOL
REMARK 922        TOTAL FREE ENERGY PREDICTED BY IDOCK:   -5.50 KCAL/MOL
REMARK 923 INTER-LIGAND FREE ENERGY PREDICTED BY IDOCK:   -4.91 KCAL/MOL
REMARK 924 INTRA-LIGAND FREE ENERGY PREDICTED BY IDOCK:   -0.59 KCAL/MOL
REMARK 927      BINDING AFFINITY PREDICTED BY RF-SCORE:    0.00 PKD
ROOT
HETATM    1  C   UNL     1     -13.201  11.168  71.872  1.00  0.00    -0.382 C  
HETATM    2  N   UNL     1     -12.506  10.331  70.888  1.00  0.00    -0.341 NA 
HETATM    3  C   UNL     1     -11.802  11.186  69.930  1.00  0.00    -0.363 C  
ENDROOT
BRANCH   2   4
HETATM    4  C   UNL     1     -11.597   9.402  71.584  1.00  0.00    -0.396 C  
BRANCH   4   5
HETATM    5  C   UNL     1     -11.775   7.938  71.172  1.00  0.00    -0.306 C  
BRANCH   5   6
HETATM    6  C   UNL     1     -10.840   7.577  70.023  1.00  0.00    -0.249 C  
BRANCH   6   7
HETATM    7  O   UNL     1     -11.369   6.409  69.391  1.00  0.00    -0.394 OA 
BRANCH   7   8
HETATM    8  C   UNL     1     -10.425   5.508  69.048  1.00  0.00    -0.226 A  
HETATM    9  N   UNL     1      -9.874   5.535  67.835  1.00  0.00    -0.131 NA 
HETATM   10  N   UNL     1      -9.016   4.487  67.865  1.00  0.00    -0.111 NA 
HETATM   11  C   UNL     1      -9.391   2.978  71.685  1.00  0.00    -0.198 A  
HETATM   12  C   UNL     1      -8.986   3.829  69.079  1.00  0.00    -0.122 A  
HETATM   13  C   UNL     1      -8.257   2.725  69.544  1.00  0.00    -0.072 A  
HETATM   14  C   UNL     1      -9.905   4.501  69.882  1.00  0.00    -0.298 A  
HETATM   15  C   UNL     1     -10.115   4.074  71.206  1.00  0.00    -0.133 A  
HETATM   16  C   UNL     1      -8.479   2.314  70.865  1.00  0.00    -0.085 A  
BRANCH  10  17
HETATM   17  C   UNL     1      -8.186   4.219  66.697  1.00  0.00    -0.102 C  
BRANCH  17  18
HETATM   18  C   UNL     1      -8.953   3.547  65.584  1.00  0.00    -0.139 A  
HETATM   19  C   UNL     1      -8.627   2.248  65.164  1.00  0.00    -0.110 A  
HETATM   20  C   UNL     1     -10.387   2.309  63.510  1.00  0.00    -0.158 A  
HETATM   21  C   UNL     1     -10.739   3.589  63.935  1.00  0.00    -0.248 A  
HETATM   22  C   UNL     1      -9.336   1.636  64.128  1.00  0.00    -0.126 A  
HETATM   23  C   UNL     1     -10.030   4.204  64.968  1.00  0.00    -0.216 A  
ENDBRANCH  17  18
ENDBRANCH  10  17
ENDBRANCH   7   8
ENDBRANCH   6   7
ENDBRANCH   5   6
ENDBRANCH   4   5
ENDBRANCH   2   4
TORSDOF 7
ENDMDL
MODEL      238
REMARK 921   NORMALIZED FREE ENERGY PREDICTED BY IDOCK:   -3.62 KCAL/MOL
REMARK 922        TOTAL FREE ENERGY PREDICTED BY IDOCK:   -5.48 KCAL/MOL
REMARK 923 INTER-LIGAND FREE ENERGY PREDICTED BY IDOCK:   -4.57 KCAL/MOL
REMARK 924 INTRA-LIGAND FREE ENERGY PREDICTED BY IDOCK:   -0.91 KCAL/MOL
REMARK 927      BINDING AFFINITY PREDICTED BY RF-SCORE:    0.00 PKD
ROOT
HETATM    1  C   UNL     1     -11.726  14.580  64.908  1.00  0.00    -0.402 C  
HETATM    2  N   UNL     1     -11.393  13.658  65.999  1.00  0.00    -0.308 NA 
HETATM    3  C   UNL     1     -12.182  14.000  67.184  1.00  0.00    -0.321 C  
ENDROOT
BRANCH   2   4
HETATM    4  C   UNL     1     -11.615  12.270  65.556  1.00  0.00    -0.371 C  
BRANCH   4   5
HETATM    5  C   UNL     1     -10.446  11.679  64.764  1.00  0.00    -0.346 C  
BRANCH   5   6
HETATM    6  C   UNL     1      -9.988  10.356  65.369  1.00  0.00    -0.295 C  
BRANCH   6   7
HETATM    7  O   UNL     1      -9.470  10.637  66.670  1.00  0.00    -0.163 OA 
BRANCH   7   8
HETATM    8  C   UNL     1      -9.251   9.531  67.413  1.00  0.00    -0.133 A  
HETATM    9  N   UNL     1      -8.342   8.633  67.036  1.00  0.00    -0.106 NA 
HETATM   10  N   UNL     1      -8.434   7.684  67.998  1.00  0.00    -0.123 NA 
HETATM   11  C   UNL     1     -11.277   9.146  70.603  1.00  0.00    -0.322 A  
HETATM   12  C   UNL     1      -9.349   7.982  68.989  1.00  0.00    -0.147 A  
HETATM   13  C   UNL     1      -9.750   7.304  70.149  1.00  0.00    -0.172 A  
HETATM   14  C   UNL     1      -9.892   9.212  68.625  1.00  0.00    -0.175 A  
HETATM   15  C   UNL     1     -10.871   9.809  69.440  1.00  0.00    -0.256 A  
HETATM   16  C   UNL     1     -10.725   7.913  70.949  1.00  0.00    -0.234 A  
BRANCH  10  17
HETATM   17  C   UNL     1      -7.541   6.532  67.942  1.00  0.00    -0.103 C  
BRANCH  17  18
HETATM   18  C   UNL     1      -8.283   5.235  67.724  1.00  0.00    -0.099 A  
HETATM   19  C   UNL     1      -9.031   5.019  66.556  1.00  0.00    -0.116 A  
HETATM   20  C   UNL     1      -9.661   2.819  67.331  1.00  0.00     0.022 A  
HETATM   21  C   UNL     1      -8.900   3.010  68.483  1.00  0.00    -0.167 A  
HETATM   22  C   UNL     1      -9.721   3.821  66.365  1.00  0.00    -0.142 A  
HETATM   23  C   UNL     1      -8.211   4.208  68.678  1.00  0.00    -0.088 A  
ENDBRANCH  17  18
ENDBRANCH  10  17
ENDBRANCH   7   8
ENDBRANCH   6   7
ENDBRANCH   5   6
ENDBRANCH   4   5
ENDBRANCH   2   4
TORSDOF 7
ENDMDL
MODEL      239
REMARK 921   NORMALIZED FREE ENERGY PREDICTED BY IDOCK:   -3.60 KCAL/MOL
REMARK 922        TOTAL FREE ENERGY PREDICTED BY IDOCK:   -5.46 KCAL/MOL
REMARK 923 INTER-LIGAND FREE ENERGY PREDICTED BY IDOCK:   -4.54 KCAL/MOL
REMARK 924 INTRA-LIGAND FREE ENERGY PREDICTED BY IDOCK:   -0.91 KCAL/MOL
REMARK 927      BINDING AFFINITY PREDICTED BY RF-SCORE:    0.00 PKD
ROOT
HETATM    1  C   UNL     1     -13.279  11.332  71.739  1.00  0.00    -0.375 C  
HETATM    2  N   UNL     1     -12.617  10.344  70.880  1.00  0.00    -0.355 NA 
HETATM    3  C   UNL     1     -11.702  11.028  69.964  1.00  0.00    -0.355 C  
ENDROOT
BRANCH   2   4
HETATM    4  C   UNL     1     -11.931   9.343  71.718  1.00  0.00    -0.382 C  
BRANCH   4   5
HETATM    5  C   UNL     1     -12.154   7.899  71.263  1.00  0.00    -0.317 C  
BRANCH   5   6
HETATM    6  C   UNL     1     -10.996   7.413  70.399  1.00  0.00    -0.251 C  
BRANCH   6   7
HETATM    7  O   UNL     1     -11.505   6.395  69.534  1.00  0.00    -0.407 OA 
BRANCH   7   8
HETATM    8  C   UNL     1     -10.556   5.814  68.769  1.00  0.00    -0.251 A  
HETATM    9  N   UNL     1     -10.268   6.301  67.563  1.00  0.00    -0.152 NA 
HETATM   10  N   UNL     1      -9.312   5.454  67.112  1.00  0.00    -0.114 NA 
HETATM   11  C   UNL     1      -8.738   2.816  70.230  1.00  0.00    -0.132 A  
HETATM   12  C   UNL     1      -8.964   4.473  68.020  1.00  0.00    -0.116 A  
HETATM   13  C   UNL     1      -8.039   3.421  67.977  1.00  0.00    -0.083 A  
HETATM   14  C   UNL     1      -9.770   4.704  69.133  1.00  0.00    -0.255 A  
HETATM   15  C   UNL     1      -9.661   3.867  70.259  1.00  0.00    -0.271 A  
HETATM   16  C   UNL     1      -7.943   2.597  69.105  1.00  0.00    -0.059 A  
BRANCH  10  17
HETATM   17  C   UNL     1      -8.710   5.698  65.806  1.00  0.00    -0.150 C  
BRANCH  17  18
HETATM   18  C   UNL     1      -7.946   7.000  65.756  1.00  0.00    -0.116 A  
HETATM   19  C   UNL     1      -8.368   8.054  64.930  1.00  0.00    -0.108 A  
HETATM   20  C   UNL     1      -6.514   9.415  65.669  1.00  0.00    -0.069 A  
HETATM   21  C   UNL     1      -6.099   8.387  66.513  1.00  0.00    -0.053 A  
HETATM   22  C   UNL     1      -7.652   9.251  64.883  1.00  0.00    -0.108 A  
HETATM   23  C   UNL     1      -6.811   7.187  66.560  1.00  0.00    -0.065 A  
ENDBRANCH  17  18
ENDBRANCH  10  17
ENDBRANCH   7   8
ENDBRANCH   6   7
ENDBRANCH   5   6
ENDBRANCH   4   5
ENDBRANCH   2   4
TORSDOF 7
ENDMDL
MODEL      240
REMARK 921   NORMALIZED FREE ENERGY PREDICTED BY IDOCK:   -3.59 KCAL/MOL
REMARK 922        TOTAL FREE ENERGY PREDICTED BY IDOCK:   -5.45 KCAL/MOL
REMARK 923 INTER-LIGAND FREE ENERGY PREDICTED BY IDOCK:   -4.68 KCAL/MOL
REMARK 924 INTRA-LIGAND FREE ENERGY PREDICTED BY IDOCK:   -0.77 KCAL/MOL
REMARK 927      BINDING AFFINITY PREDICTED BY RF-SCORE:    0.00 PKD
ROOT
HETATM    1  C   UNL     1     -11.641  15.376  68.220  1.00  0.00    -0.348 C  
HETATM    2  N   UNL     1     -11.479  14.279  69.181  1.00  0.00    -0.273 NA 
HETATM    3  C   UNL     1     -12.523  14.369  70.204  1.00  0.00    -0.339 C  
ENDROOT
BRANCH   2   4
HETATM    4  C   UNL     1     -11.501  12.990  68.467  1.00  0.00    -0.304 C  
BRANCH   4   5
HETATM    5  C   UNL     1     -10.121  12.348  68.306  1.00  0.00    -0.227 C  
BRANCH   5   6
HETATM    6  C   UNL     1     -10.184  11.142  67.374  1.00  0.00    -0.190 C  
BRANCH   6   7
HETATM    7  O   UNL     1     -11.254  10.309  67.824  1.00  0.00    -0.306 OA 
BRANCH   7   8
HETATM    8  C   UNL     1     -10.837   9.173  68.423  1.00  0.00    -0.048 A  
HETATM    9  N   UNL     1     -10.158   8.257  67.734  1.00  0.00    -0.193 NA 
HETATM   10  N   UNL     1      -9.947   7.281  68.650  1.00  0.00    -0.161 NA 
HETATM   11  C   UNL     1     -11.627   8.759  72.114  1.00  0.00    -0.434 A  
HETATM   12  C   UNL     1     -10.442   7.580  69.905  1.00  0.00    -0.229 A  
HETATM   13  C   UNL     1     -10.438   6.880  71.120  1.00  0.00    -0.234 A  
HETATM   14  C   UNL     1     -11.024   8.839  69.777  1.00  0.00    -0.146 A  
HETATM   15  C   UNL     1     -11.628   9.444  70.895  1.00  0.00    -0.380 A  
HETATM   16  C   UNL     1     -11.044   7.497  72.222  1.00  0.00    -0.319 A  
BRANCH  10  17
HETATM   17  C   UNL     1      -9.182   6.102  68.263  1.00  0.00    -0.114 C  
BRANCH  17  18
HETATM   18  C   UNL     1      -8.038   6.433  67.335  1.00  0.00    -0.116 A  
HETATM   19  C   UNL     1      -8.001   5.929  66.025  1.00  0.00    -0.108 A  
HETATM   20  C   UNL     1      -5.904   7.056  65.618  1.00  0.00    -0.036 A  
HETATM   21  C   UNL     1      -5.941   7.586  66.907  1.00  0.00    -0.046 A  
HETATM   22  C   UNL     1      -6.936   6.233  65.175  1.00  0.00    -0.056 A  
HETATM   23  C   UNL     1      -7.003   7.280  67.760  1.00  0.00    -0.076 A  
ENDBRANCH  17  18
ENDBRANCH  10  17
ENDBRANCH   7   8
ENDBRANCH   6   7
ENDBRANCH   5   6
ENDBRANCH   4   5
ENDBRANCH   2   4
TORSDOF 7
ENDMDL
MODEL      241
REMARK 921   NORMALIZED FREE ENERGY PREDICTED BY IDOCK:   -3.58 KCAL/MOL
REMARK 922        TOTAL FREE ENERGY PREDICTED BY IDOCK:   -5.43 KCAL/MOL
REMARK 923 INTER-LIGAND FREE ENERGY PREDICTED BY IDOCK:   -4.61 KCAL/MOL
REMARK 924 INTRA-LIGAND FREE ENERGY PREDICTED BY IDOCK:   -0.82 KCAL/MOL
REMARK 927      BINDING AFFINITY PREDICTED BY RF-SCORE:    0.00 PKD
ROOT
HETATM    1  C   UNL     1      -7.290   2.649  62.637  1.00  0.00    -0.044 C  
HETATM    2  N   UNL     1      -8.642   3.155  62.900  1.00  0.00    -0.085 NA 
HETATM    3  C   UNL     1      -9.572   2.030  63.006  1.00  0.00    -0.092 C  
ENDROOT
BRANCH   2   4
HETATM    4  C   UNL     1      -8.629   3.990  64.115  1.00  0.00    -0.105 C  
BRANCH   4   5
HETATM    5  C   UNL     1      -9.545   3.477  65.228  1.00  0.00    -0.140 C  
BRANCH   5   6
HETATM    6  C   UNL     1     -10.493   4.572  65.704  1.00  0.00    -0.229 C  
BRANCH   6   7
HETATM    7  O   UNL     1     -10.489   4.551  67.133  1.00  0.00    -0.052 OA 
BRANCH   7   8
HETATM    8  C   UNL     1     -10.501   5.782  67.689  1.00  0.00    -0.235 A  
HETATM    9  N   UNL     1     -10.558   6.869  66.922  1.00  0.00    -0.305 NA 
HETATM   10  N   UNL     1     -10.525   7.880  67.823  1.00  0.00    -0.224 NA 
HETATM   11  C   UNL     1     -10.430   5.979  71.481  1.00  0.00    -0.278 A  
HETATM   12  C   UNL     1     -10.490   7.454  69.136  1.00  0.00    -0.213 A  
HETATM   13  C   UNL     1     -10.458   8.140  70.359  1.00  0.00    -0.217 A  
HETATM   14  C   UNL     1     -10.487   6.062  69.068  1.00  0.00    -0.319 A  
HETATM   15  C   UNL     1     -10.457   5.307  70.255  1.00  0.00    -0.332 A  
HETATM   16  C   UNL     1     -10.428   7.373  71.530  1.00  0.00    -0.219 A  
BRANCH  10  17
HETATM   17  C   UNL     1     -10.611   9.256  67.346  1.00  0.00    -0.255 C  
BRANCH  17  18
HETATM   18  C   UNL     1      -9.546   9.582  66.326  1.00  0.00    -0.287 A  
HETATM   19  C   UNL     1      -8.184   9.439  66.634  1.00  0.00    -0.112 A  
HETATM   20  C   UNL     1      -7.574  10.194  64.422  1.00  0.00    -0.130 A  
HETATM   21  C   UNL     1      -8.923  10.314  64.094  1.00  0.00    -0.263 A  
HETATM   22  C   UNL     1      -7.204   9.750  65.689  1.00  0.00    -0.106 A  
HETATM   23  C   UNL     1      -9.904  10.007  65.038  1.00  0.00    -0.374 A  
ENDBRANCH  17  18
ENDBRANCH  10  17
ENDBRANCH   7   8
ENDBRANCH   6   7
ENDBRANCH   5   6
ENDBRANCH   4   5
ENDBRANCH   2   4
TORSDOF 7
ENDMDL
MODEL      242
REMARK 921   NORMALIZED FREE ENERGY PREDICTED BY IDOCK:   -3.54 KCAL/MOL
REMARK 922        TOTAL FREE ENERGY PREDICTED BY IDOCK:   -5.38 KCAL/MOL
REMARK 923 INTER-LIGAND FREE ENERGY PREDICTED BY IDOCK:   -5.01 KCAL/MOL
REMARK 924 INTRA-LIGAND FREE ENERGY PREDICTED BY IDOCK:   -0.38 KCAL/MOL
REMARK 927      BINDING AFFINITY PREDICTED BY RF-SCORE:    0.00 PKD
ROOT
HETATM    1  C   UNL     1      -5.463  14.041  71.316  1.00  0.00    -0.207 C  
HETATM    2  N   UNL     1      -6.338  14.768  70.390  1.00  0.00    -0.165 NA 
HETATM    3  C   UNL     1      -5.584  15.849  69.752  1.00  0.00    -0.134 C  
ENDROOT
BRANCH   2   4
HETATM    4  C   UNL     1      -6.909  13.826  69.410  1.00  0.00    -0.044 C  
BRANCH   4   5
HETATM    5  C   UNL     1      -5.865  13.166  68.506  1.00  0.00    -0.081 C  
BRANCH   5   6
HETATM    6  C   UNL     1      -5.926  11.646  68.619  1.00  0.00    -0.050 C  
BRANCH   6   7
HETATM    7  O   UNL     1      -7.168  11.313  69.242  1.00  0.00    -0.117 OA 
BRANCH   7   8
HETATM    8  C   UNL     1      -8.171  11.101  68.363  1.00  0.00    -0.144 A  
HETATM    9  N   UNL     1      -9.363  11.665  68.549  1.00  0.00    -0.190 NA 
HETATM   10  N   UNL     1     -10.087  11.204  67.501  1.00  0.00    -0.181 NA 
HETATM   11  C   UNL     1      -7.417   8.904  65.358  1.00  0.00    -0.086 A  
HETATM   12  C   UNL     1      -9.368  10.397  66.641  1.00  0.00    -0.158 A  
HETATM   13  C   UNL     1      -9.707   9.728  65.456  1.00  0.00    -0.382 A  
HETATM   14  C   UNL     1      -8.089  10.327  67.189  1.00  0.00    -0.121 A  
HETATM   15  C   UNL     1      -7.093   9.572  66.543  1.00  0.00    -0.085 A  
HETATM   16  C   UNL     1      -8.704   8.980  64.826  1.00  0.00    -0.187 A  
BRANCH  10  17
HETATM   17  C   UNL     1     -11.466  11.649  67.343  1.00  0.00    -0.285 C  
BRANCH  17  18
HETATM   18  C   UNL     1     -11.609  12.728  66.296  1.00  0.00    -0.433 A  
HETATM   19  C   UNL     1     -12.257  12.471  65.077  1.00  0.00    -0.519 A  
HETATM   20  C   UNL     1     -11.866  14.743  64.356  1.00  0.00    -0.393 A  
HETATM   21  C   UNL     1     -11.244  15.020  65.572  1.00  0.00    -0.344 A  
HETATM   22  C   UNL     1     -12.378  13.472  64.111  1.00  0.00    -0.387 A  
HETATM   23  C   UNL     1     -11.119  14.021  66.539  1.00  0.00    -0.315 A  
ENDBRANCH  17  18
ENDBRANCH  10  17
ENDBRANCH   7   8
ENDBRANCH   6   7
ENDBRANCH   5   6
ENDBRANCH   4   5
ENDBRANCH   2   4
TORSDOF 7
ENDMDL
MODEL      243
REMARK 921   NORMALIZED FREE ENERGY PREDICTED BY IDOCK:   -3.53 KCAL/MOL
REMARK 922        TOTAL FREE ENERGY PREDICTED BY IDOCK:   -5.37 KCAL/MOL
REMARK 923 INTER-LIGAND FREE ENERGY PREDICTED BY IDOCK:   -5.23 KCAL/MOL
REMARK 924 INTRA-LIGAND FREE ENERGY PREDICTED BY IDOCK:   -0.14 KCAL/MOL
REMARK 927      BINDING AFFINITY PREDICTED BY RF-SCORE:    0.00 PKD
ROOT
HETATM    1  C   UNL     1      -8.604   7.959  69.161  1.00  0.00    -0.138 C  
HETATM    2  N   UNL     1      -7.747   8.722  68.247  1.00  0.00    -0.099 NA 
HETATM    3  C   UNL     1      -8.500   9.054  67.036  1.00  0.00    -0.120 C  
ENDROOT
BRANCH   2   4
HETATM    4  C   UNL     1      -7.235   9.920  68.936  1.00  0.00    -0.076 C  
BRANCH   4   5
HETATM    5  C   UNL     1      -6.994  11.113  68.007  1.00  0.00    -0.068 C  
BRANCH   5   6
HETATM    6  C   UNL     1      -7.868  12.299  68.403  1.00  0.00    -0.151 C  
BRANCH   6   7
HETATM    7  O   UNL     1      -7.002  13.414  68.622  1.00  0.00    -0.090 OA 
BRANCH   7   8
HETATM    8  C   UNL     1      -7.516  14.587  68.194  1.00  0.00    -0.126 A  
HETATM    9  N   UNL     1      -8.500  14.606  67.297  1.00  0.00    -0.203 NA 
HETATM   10  N   UNL     1      -8.717  15.930  67.110  1.00  0.00    -0.189 NA 
HETATM   11  C   UNL     1      -6.082  17.767  69.696  1.00  0.00    -0.240 A  
HETATM   12  C   UNL     1      -7.921  16.740  67.895  1.00  0.00    -0.177 A  
HETATM   13  C   UNL     1      -7.820  18.132  68.029  1.00  0.00    -0.266 A  
HETATM   14  C   UNL     1      -7.126  15.866  68.633  1.00  0.00    -0.133 A  
HETATM   15  C   UNL     1      -6.190  16.380  69.549  1.00  0.00    -0.198 A  
HETATM   16  C   UNL     1      -6.883  18.627  68.945  1.00  0.00    -0.304 A  
BRANCH  10  17
HETATM   17  C   UNL     1      -9.777  16.351  66.201  1.00  0.00    -0.327 C  
BRANCH  17  18
HETATM   18  C   UNL     1     -10.753  15.240  65.896  1.00  0.00    -0.340 A  
HETATM   19  C   UNL     1     -11.116  14.940  64.574  1.00  0.00    -0.249 A  
HETATM   20  C   UNL     1     -12.572  13.173  65.343  1.00  0.00    -0.512 A  
HETATM   21  C   UNL     1     -12.200  13.442  66.659  1.00  0.00    -0.391 A  
HETATM   22  C   UNL     1     -12.025  13.917  64.301  1.00  0.00    -0.477 A  
HETATM   23  C   UNL     1     -11.294  14.467  66.935  1.00  0.00    -0.357 A  
ENDBRANCH  17  18
ENDBRANCH  10  17
ENDBRANCH   7   8
ENDBRANCH   6   7
ENDBRANCH   5   6
ENDBRANCH   4   5
ENDBRANCH   2   4
TORSDOF 7
ENDMDL
MODEL      244
REMARK 921   NORMALIZED FREE ENERGY PREDICTED BY IDOCK:   -3.53 KCAL/MOL
REMARK 922        TOTAL FREE ENERGY PREDICTED BY IDOCK:   -5.36 KCAL/MOL
REMARK 923 INTER-LIGAND FREE ENERGY PREDICTED BY IDOCK:   -4.17 KCAL/MOL
REMARK 924 INTRA-LIGAND FREE ENERGY PREDICTED BY IDOCK:   -1.19 KCAL/MOL
REMARK 927      BINDING AFFINITY PREDICTED BY RF-SCORE:    0.00 PKD
ROOT
HETATM    1  C   UNL     1      -5.559   7.254  70.507  1.00  0.00    -0.024 C  
HETATM    2  N   UNL     1      -6.610   6.251  70.305  1.00  0.00    -0.043 NA 
HETATM    3  C   UNL     1      -6.636   5.847  68.898  1.00  0.00    -0.055 C  
ENDROOT
BRANCH   2   4
HETATM    4  C   UNL     1      -6.384   5.111  71.213  1.00  0.00    -0.030 C  
BRANCH   4   5
HETATM    5  C   UNL     1      -7.611   4.731  72.045  1.00  0.00    -0.090 C  
BRANCH   5   6
HETATM    6  C   UNL     1      -8.437   3.658  71.343  1.00  0.00    -0.072 C  
BRANCH   6   7
HETATM    7  O   UNL     1      -9.813   4.021  71.475  1.00  0.00    -0.176 OA 
BRANCH   7   8
HETATM    8  C   UNL     1     -10.189   5.017  70.644  1.00  0.00    -0.235 A  
HETATM    9  N   UNL     1     -10.623   6.177  71.133  1.00  0.00    -0.236 NA 
HETATM   10  N   UNL     1     -10.921   6.886  70.018  1.00  0.00    -0.264 NA 
HETATM   11  C   UNL     1      -9.893   4.375  66.913  1.00  0.00    -0.235 A  
HETATM   12  C   UNL     1     -10.647   6.215  68.842  1.00  0.00    -0.276 A  
HETATM   13  C   UNL     1     -10.788   6.564  67.492  1.00  0.00    -0.433 A  
HETATM   14  C   UNL     1     -10.147   4.976  69.238  1.00  0.00    -0.270 A  
HETATM   15  C   UNL     1      -9.762   4.037  68.264  1.00  0.00    -0.133 A  
HETATM   16  C   UNL     1     -10.400   5.618  66.535  1.00  0.00    -0.287 A  
BRANCH  10  17
HETATM   17  C   UNL     1     -11.401   8.256  70.158  1.00  0.00    -0.060 C  
BRANCH  17  18
HETATM   18  C   UNL     1     -10.427   9.269  69.605  1.00  0.00    -0.234 A  
HETATM   19  C   UNL     1      -9.095   9.307  70.049  1.00  0.00    -0.229 A  
HETATM   20  C   UNL     1      -8.625  11.160  68.572  1.00  0.00    -0.157 A  
HETATM   21  C   UNL     1      -9.937  11.116  68.104  1.00  0.00    -0.189 A  
HETATM   22  C   UNL     1      -8.202  10.251  69.539  1.00  0.00    -0.165 A  
HETATM   23  C   UNL     1     -10.832  10.175  68.613  1.00  0.00    -0.272 A  
ENDBRANCH  17  18
ENDBRANCH  10  17
ENDBRANCH   7   8
ENDBRANCH   6   7
ENDBRANCH   5   6
ENDBRANCH   4   5
ENDBRANCH   2   4
TORSDOF 7
ENDMDL
MODEL      245
REMARK 921   NORMALIZED FREE ENERGY PREDICTED BY IDOCK:   -3.48 KCAL/MOL
REMARK 922        TOTAL FREE ENERGY PREDICTED BY IDOCK:   -5.29 KCAL/MOL
REMARK 923 INTER-LIGAND FREE ENERGY PREDICTED BY IDOCK:   -4.70 KCAL/MOL
REMARK 924 INTRA-LIGAND FREE ENERGY PREDICTED BY IDOCK:   -0.59 KCAL/MOL
REMARK 927      BINDING AFFINITY PREDICTED BY RF-SCORE:    0.00 PKD
ROOT
HETATM    1  C   UNL     1      -8.888   7.582  69.751  1.00  0.00    -0.141 C  
HETATM    2  N   UNL     1      -8.039   8.205  68.730  1.00  0.00    -0.118 NA 
HETATM    3  C   UNL     1      -8.802   8.359  67.489  1.00  0.00    -0.135 C  
ENDROOT
BRANCH   2   4
HETATM    4  C   UNL     1      -7.523   9.491  69.235  1.00  0.00    -0.078 C  
BRANCH   4   5
HETATM    5  C   UNL     1      -7.378  10.566  68.156  1.00  0.00    -0.088 C  
BRANCH   5   6
HETATM    6  C   UNL     1      -8.070  11.859  68.576  1.00  0.00    -0.130 C  
BRANCH   6   7
HETATM    7  O   UNL     1      -7.066  12.731  69.099  1.00  0.00    -0.068 OA 
BRANCH   7   8
HETATM    8  C   UNL     1      -7.136  13.987  68.610  1.00  0.00    -0.108 A  
HETATM    9  N   UNL     1      -7.869  14.252  67.530  1.00  0.00    -0.181 NA 
HETATM   10  N   UNL     1      -7.668  15.578  67.342  1.00  0.00    -0.175 NA 
HETATM   11  C   UNL     1      -5.219  16.689  70.468  1.00  0.00    -0.217 A  
HETATM   12  C   UNL     1      -6.859  16.159  68.298  1.00  0.00    -0.124 A  
HETATM   13  C   UNL     1      -6.406  17.472  68.491  1.00  0.00    -0.179 A  
HETATM   14  C   UNL     1      -6.506  15.121  69.158  1.00  0.00    -0.116 A  
HETATM   15  C   UNL     1      -5.674  15.382  70.262  1.00  0.00    -0.146 A  
HETATM   16  C   UNL     1      -5.579  17.715  69.595  1.00  0.00    -0.222 A  
BRANCH  10  17
HETATM   17  C   UNL     1      -8.360  16.250  66.248  1.00  0.00    -0.308 C  
BRANCH  17  18
HETATM   18  C   UNL     1      -9.091  17.491  66.701  1.00  0.00    -0.287 A  
HETATM   19  C   UNL     1      -8.678  18.766  66.282  1.00  0.00    -0.244 A  
HETATM   20  C   UNL     1     -10.458  19.792  67.553  1.00  0.00    -0.569 A  
HETATM   21  C   UNL     1     -10.895  18.531  67.955  1.00  0.00    -0.240 A  
HETATM   22  C   UNL     1      -9.354  19.909  66.712  1.00  0.00    -0.494 A  
HETATM   23  C   UNL     1     -10.219  17.386  67.529  1.00  0.00    -0.332 A  
ENDBRANCH  17  18
ENDBRANCH  10  17
ENDBRANCH   7   8
ENDBRANCH   6   7
ENDBRANCH   5   6
ENDBRANCH   4   5
ENDBRANCH   2   4
TORSDOF 7
ENDMDL
MODEL      246
REMARK 921   NORMALIZED FREE ENERGY PREDICTED BY IDOCK:   -3.45 KCAL/MOL
REMARK 922        TOTAL FREE ENERGY PREDICTED BY IDOCK:   -5.25 KCAL/MOL
REMARK 923 INTER-LIGAND FREE ENERGY PREDICTED BY IDOCK:   -4.49 KCAL/MOL
REMARK 924 INTRA-LIGAND FREE ENERGY PREDICTED BY IDOCK:   -0.76 KCAL/MOL
REMARK 927      BINDING AFFINITY PREDICTED BY RF-SCORE:    0.00 PKD
ROOT
HETATM    1  C   UNL     1     -12.635  15.103  71.558  1.00  0.00    -0.353 C  
HETATM    2  N   UNL     1     -12.014  15.065  70.229  1.00  0.00    -0.293 NA 
HETATM    3  C   UNL     1     -10.557  15.096  70.370  1.00  0.00    -0.134 C  
ENDROOT
BRANCH   2   4
HETATM    4  C   UNL     1     -12.483  13.872  69.500  1.00  0.00    -0.095 C  
BRANCH   4   5
HETATM    5  C   UNL     1     -11.412  12.791  69.330  1.00  0.00    -0.349 C  
BRANCH   5   6
HETATM    6  C   UNL     1     -12.021  11.397  69.436  1.00  0.00    -0.339 C  
BRANCH   6   7
HETATM    7  O   UNL     1     -11.414  10.749  70.556  1.00  0.00    -0.313 OA 
BRANCH   7   8
HETATM    8  C   UNL     1     -10.805   9.586  70.240  1.00  0.00    -0.269 A  
HETATM    9  N   UNL     1     -10.407   9.350  68.991  1.00  0.00    -0.205 NA 
HETATM   10  N   UNL     1      -9.880   8.104  69.069  1.00  0.00    -0.172 NA 
HETATM   11  C   UNL     1     -10.238   7.097  73.052  1.00  0.00    -0.290 A  
HETATM   12  C   UNL     1      -9.902   7.570  70.342  1.00  0.00    -0.183 A  
HETATM   13  C   UNL     1      -9.465   6.346  70.868  1.00  0.00    -0.185 A  
HETATM   14  C   UNL     1     -10.500   8.545  71.137  1.00  0.00    -0.278 A  
HETATM   15  C   UNL     1     -10.673   8.312  72.514  1.00  0.00    -0.411 A  
HETATM   16  C   UNL     1      -9.646   6.130  72.240  1.00  0.00    -0.162 A  
BRANCH  10  17
HETATM   17  C   UNL     1      -9.293   7.509  67.874  1.00  0.00    -0.138 C  
BRANCH  17  18
HETATM   18  C   UNL     1      -7.840   7.144  68.064  1.00  0.00    -0.118 A  
HETATM   19  C   UNL     1      -6.904   8.102  68.485  1.00  0.00    -0.068 A  
HETATM   20  C   UNL     1      -5.140   6.453  68.412  1.00  0.00    -0.007 A  
HETATM   21  C   UNL     1      -6.063   5.486  68.019  1.00  0.00    -0.022 A  
HETATM   22  C   UNL     1      -5.561   7.759  68.651  1.00  0.00    -0.027 A  
HETATM   23  C   UNL     1      -7.406   5.827  67.850  1.00  0.00    -0.077 A  
ENDBRANCH  17  18
ENDBRANCH  10  17
ENDBRANCH   7   8
ENDBRANCH   6   7
ENDBRANCH   5   6
ENDBRANCH   4   5
ENDBRANCH   2   4
TORSDOF 7
ENDMDL
MODEL      247
REMARK 921   NORMALIZED FREE ENERGY PREDICTED BY IDOCK:   -3.44 KCAL/MOL
REMARK 922        TOTAL FREE ENERGY PREDICTED BY IDOCK:   -5.24 KCAL/MOL
REMARK 923 INTER-LIGAND FREE ENERGY PREDICTED BY IDOCK:   -4.38 KCAL/MOL
REMARK 924 INTRA-LIGAND FREE ENERGY PREDICTED BY IDOCK:   -0.85 KCAL/MOL
REMARK 927      BINDING AFFINITY PREDICTED BY RF-SCORE:    0.00 PKD
ROOT
HETATM    1  C   UNL     1      -6.881   3.660  69.496  1.00  0.00    -0.041 C  
HETATM    2  N   UNL     1      -8.177   3.164  69.971  1.00  0.00    -0.044 NA 
HETATM    3  C   UNL     1      -8.125   1.707  70.098  1.00  0.00    -0.041 C  
ENDROOT
BRANCH   2   4
HETATM    4  C   UNL     1      -8.523   3.827  71.241  1.00  0.00    -0.072 C  
BRANCH   4   5
HETATM    5  C   UNL     1      -9.742   4.748  71.146  1.00  0.00    -0.249 C  
BRANCH   5   6
HETATM    6  C   UNL     1      -9.927   5.265  69.723  1.00  0.00    -0.236 C  
BRANCH   6   7
HETATM    7  O   UNL     1     -11.201   5.908  69.663  1.00  0.00    -0.395 OA 
BRANCH   7   8
HETATM    8  C   UNL     1     -11.126   7.256  69.706  1.00  0.00    -0.182 A  
HETATM    9  N   UNL     1     -10.289   7.912  68.904  1.00  0.00    -0.213 NA 
HETATM   10  N   UNL     1     -10.482   9.206  69.254  1.00  0.00    -0.219 NA 
HETATM   11  C   UNL     1     -13.425   9.051  72.139  1.00  0.00    -0.514 A  
HETATM   12  C   UNL     1     -11.447   9.381  70.227  1.00  0.00    -0.180 A  
HETATM   13  C   UNL     1     -11.960  10.520  70.864  1.00  0.00    -0.481 A  
HETATM   14  C   UNL     1     -11.897   8.098  70.530  1.00  0.00    -0.010 A  
HETATM   15  C   UNL     1     -12.901   7.923  71.500  1.00  0.00    -0.340 A  
HETATM   16  C   UNL     1     -12.959  10.328  71.827  1.00  0.00    -0.574 A  
BRANCH  10  17
HETATM   17  C   UNL     1      -9.747  10.248  68.546  1.00  0.00    -0.161 C  
BRANCH  17  18
HETATM   18  C   UNL     1      -8.252  10.106  68.698  1.00  0.00    -0.111 A  
HETATM   19  C   UNL     1      -7.460   9.633  67.639  1.00  0.00    -0.091 A  
HETATM   20  C   UNL     1      -5.471   9.844  68.994  1.00  0.00    -0.035 A  
HETATM   21  C   UNL     1      -6.242  10.340  70.044  1.00  0.00    -0.088 A  
HETATM   22  C   UNL     1      -6.079   9.496  67.790  1.00  0.00    -0.052 A  
HETATM   23  C   UNL     1      -7.623  10.474  69.897  1.00  0.00    -0.053 A  
ENDBRANCH  17  18
ENDBRANCH  10  17
ENDBRANCH   7   8
ENDBRANCH   6   7
ENDBRANCH   5   6
ENDBRANCH   4   5
ENDBRANCH   2   4
TORSDOF 7
ENDMDL
MODEL      248
REMARK 921   NORMALIZED FREE ENERGY PREDICTED BY IDOCK:   -3.43 KCAL/MOL
REMARK 922        TOTAL FREE ENERGY PREDICTED BY IDOCK:   -5.22 KCAL/MOL
REMARK 923 INTER-LIGAND FREE ENERGY PREDICTED BY IDOCK:   -4.14 KCAL/MOL
REMARK 924 INTRA-LIGAND FREE ENERGY PREDICTED BY IDOCK:   -1.08 KCAL/MOL
REMARK 927      BINDING AFFINITY PREDICTED BY RF-SCORE:    0.00 PKD
ROOT
HETATM    1  C   UNL     1      -6.737   4.807  71.840  1.00  0.00    -0.043 C  
HETATM    2  N   UNL     1      -7.263   5.747  72.836  1.00  0.00    -0.089 NA 
HETATM    3  C   UNL     1      -6.202   6.667  73.248  1.00  0.00    -0.063 C  
ENDROOT
BRANCH   2   4
HETATM    4  C   UNL     1      -8.433   6.451  72.279  1.00  0.00    -0.110 C  
BRANCH   4   5
HETATM    5  C   UNL     1      -9.771   5.972  72.847  1.00  0.00    -0.162 C  
BRANCH   5   6
HETATM    6  C   UNL     1     -10.715   5.539  71.729  1.00  0.00    -0.226 C  
BRANCH   6   7
HETATM    7  O   UNL     1     -10.052   4.518  70.981  1.00  0.00    -0.198 OA 
BRANCH   7   8
HETATM    8  C   UNL     1     -10.084   4.721  69.647  1.00  0.00    -0.205 A  
HETATM    9  N   UNL     1     -10.654   5.815  69.144  1.00  0.00    -0.279 NA 
HETATM   10  N   UNL     1     -10.512   5.647  67.807  1.00  0.00    -0.217 NA 
HETATM   11  C   UNL     1      -8.446   2.096  67.444  1.00  0.00    -0.099 A  
HETATM   12  C   UNL     1      -9.834   4.495  67.461  1.00  0.00    -0.140 A  
HETATM   13  C   UNL     1      -9.464   3.942  66.226  1.00  0.00    -0.198 A  
HETATM   14  C   UNL     1      -9.529   3.873  68.670  1.00  0.00    -0.217 A  
HETATM   15  C   UNL     1      -8.824   2.655  68.669  1.00  0.00    -0.154 A  
HETATM   16  C   UNL     1      -8.764   2.730  66.243  1.00  0.00    -0.131 A  
BRANCH  10  17
HETATM   17  C   UNL     1     -10.993   6.689  66.908  1.00  0.00    -0.326 C  
BRANCH  17  18
HETATM   18  C   UNL     1     -10.056   7.871  66.839  1.00  0.00    -0.362 A  
HETATM   19  C   UNL     1      -8.769   7.742  66.294  1.00  0.00    -0.174 A  
HETATM   20  C   UNL     1      -8.321  10.077  66.721  1.00  0.00    -0.125 A  
HETATM   21  C   UNL     1      -9.606  10.226  67.240  1.00  0.00    -0.186 A  
HETATM   22  C   UNL     1      -7.905   8.838  66.241  1.00  0.00    -0.102 A  
HETATM   23  C   UNL     1     -10.470   9.132  67.297  1.00  0.00    -0.335 A  
ENDBRANCH  17  18
ENDBRANCH  10  17
ENDBRANCH   7   8
ENDBRANCH   6   7
ENDBRANCH   5   6
ENDBRANCH   4   5
ENDBRANCH   2   4
TORSDOF 7
ENDMDL
MODEL      249
REMARK 921   NORMALIZED FREE ENERGY PREDICTED BY IDOCK:   -3.42 KCAL/MOL
REMARK 922        TOTAL FREE ENERGY PREDICTED BY IDOCK:   -5.20 KCAL/MOL
REMARK 923 INTER-LIGAND FREE ENERGY PREDICTED BY IDOCK:   -4.37 KCAL/MOL
REMARK 924 INTRA-LIGAND FREE ENERGY PREDICTED BY IDOCK:   -0.83 KCAL/MOL
REMARK 927      BINDING AFFINITY PREDICTED BY RF-SCORE:    0.00 PKD
ROOT
HETATM    1  C   UNL     1      -6.974   3.616  69.323  1.00  0.00    -0.045 C  
HETATM    2  N   UNL     1      -7.306   4.082  70.673  1.00  0.00    -0.041 NA 
HETATM    3  C   UNL     1      -6.232   4.943  71.171  1.00  0.00    -0.019 C  
ENDROOT
BRANCH   2   4
HETATM    4  C   UNL     1      -8.611   4.768  70.651  1.00  0.00    -0.100 C  
BRANCH   4   5
HETATM    5  C   UNL     1      -9.345   4.658  69.312  1.00  0.00    -0.207 C  
BRANCH   5   6
HETATM    6  C   UNL     1      -9.705   6.038  68.771  1.00  0.00    -0.131 C  
BRANCH   6   7
HETATM    7  O   UNL     1      -8.522   6.837  68.816  1.00  0.00    -0.123 OA 
BRANCH   7   8
HETATM    8  C   UNL     1      -8.760   8.160  68.686  1.00  0.00    -0.134 A  
HETATM    9  N   UNL     1      -9.998   8.605  68.476  1.00  0.00    -0.178 NA 
HETATM   10  N   UNL     1      -9.827   9.945  68.376  1.00  0.00    -0.148 NA 
HETATM   11  C   UNL     1      -5.789  10.505  69.001  1.00  0.00    -0.040 A  
HETATM   12  C   UNL     1      -8.521  10.354  68.557  1.00  0.00    -0.129 A  
HETATM   13  C   UNL     1      -7.908  11.616  68.547  1.00  0.00    -0.140 A  
HETATM   14  C   UNL     1      -7.799   9.184  68.778  1.00  0.00    -0.096 A  
HETATM   15  C   UNL     1      -6.412   9.252  69.004  1.00  0.00    -0.047 A  
HETATM   16  C   UNL     1      -6.527  11.666  68.774  1.00  0.00    -0.064 A  
BRANCH  10  17
HETATM   17  C   UNL     1     -10.996  10.795  68.180  1.00  0.00    -0.257 C  
BRANCH  17  18
HETATM   18  C   UNL     1     -11.669  11.163  69.481  1.00  0.00    -0.405 A  
HETATM   19  C   UNL     1     -12.127  10.171  70.363  1.00  0.00    -0.332 A  
HETATM   20  C   UNL     1     -12.920  11.861  71.897  1.00  0.00    -0.434 A  
HETATM   21  C   UNL     1     -12.446  12.855  71.043  1.00  0.00    -0.374 A  
HETATM   22  C   UNL     1     -12.755  10.519  71.560  1.00  0.00    -0.558 A  
HETATM   23  C   UNL     1     -11.821  12.510  69.844  1.00  0.00    -0.373 A  
ENDBRANCH  17  18
ENDBRANCH  10  17
ENDBRANCH   7   8
ENDBRANCH   6   7
ENDBRANCH   5   6
ENDBRANCH   4   5
ENDBRANCH   2   4
TORSDOF 7
ENDMDL
MODEL      250
REMARK 921   NORMALIZED FREE ENERGY PREDICTED BY IDOCK:   -3.34 KCAL/MOL
REMARK 922        TOTAL FREE ENERGY PREDICTED BY IDOCK:   -5.09 KCAL/MOL
REMARK 923 INTER-LIGAND FREE ENERGY PREDICTED BY IDOCK:   -4.72 KCAL/MOL
REMARK 924 INTRA-LIGAND FREE ENERGY PREDICTED BY IDOCK:   -0.37 KCAL/MOL
REMARK 927      BINDING AFFINITY PREDICTED BY RF-SCORE:    0.00 PKD
ROOT
HETATM    1  C   UNL     1      -5.530  13.001  67.698  1.00  0.00    -0.093 C  
HETATM    2  N   UNL     1      -6.990  12.861  67.711  1.00  0.00    -0.121 NA 
HETATM    3  C   UNL     1      -7.347  11.512  68.153  1.00  0.00    -0.094 C  
ENDROOT
BRANCH   2   4
HETATM    4  C   UNL     1      -7.578  13.908  68.566  1.00  0.00    -0.134 C  
BRANCH   4   5
HETATM    5  C   UNL     1      -9.101  13.819  68.693  1.00  0.00    -0.063 C  
BRANCH   5   6
HETATM    6  C   UNL     1      -9.599  14.629  69.886  1.00  0.00     0.493 C  
BRANCH   6   7
HETATM    7  O   UNL     1     -10.843  15.222  69.512  1.00  0.00    -0.242 OA 
BRANCH   7   8
HETATM    8  C   UNL     1     -10.735  16.100  68.491  1.00  0.00    -0.300 A  
HETATM    9  N   UNL     1     -10.363  17.358  68.719  1.00  0.00    -0.355 NA 
HETATM   10  N   UNL     1     -10.398  17.915  67.485  1.00  0.00    -0.363 NA 
HETATM   11  C   UNL     1     -11.474  14.807  64.997  1.00  0.00    -0.389 A  
HETATM   12  C   UNL     1     -10.744  17.029  66.484  1.00  0.00    -0.073 A  
HETATM   13  C   UNL     1     -10.890  17.169  65.097  1.00  0.00    -0.008 A  
HETATM   14  C   UNL     1     -10.958  15.814  67.131  1.00  0.00    -0.244 A  
HETATM   15  C   UNL     1     -11.329  14.682  66.383  1.00  0.00    -0.348 A  
HETATM   16  C   UNL     1     -11.260  16.033  64.367  1.00  0.00    -0.218 A  
BRANCH  10  17
HETATM   17  C   UNL     1     -10.004  19.311  67.327  1.00  0.00    -0.363 C  
BRANCH  17  18
HETATM   18  C   UNL     1      -8.522  19.520  67.528  1.00  0.00    -0.339 A  
HETATM   19  C   UNL     1      -7.666  19.715  66.433  1.00  0.00    -0.311 A  
HETATM   20  C   UNL     1      -5.767  19.905  67.914  1.00  0.00    -0.224 A  
HETATM   21  C   UNL     1      -6.610  19.739  69.012  1.00  0.00    -0.368 A  
HETATM   22  C   UNL     1      -6.296  19.900  66.626  1.00  0.00    -0.205 A  
HETATM   23  C   UNL     1      -7.980  19.551  68.822  1.00  0.00    -0.362 A  
ENDBRANCH  17  18
ENDBRANCH  10  17
ENDBRANCH   7   8
ENDBRANCH   6   7
ENDBRANCH   5   6
ENDBRANCH   4   5
ENDBRANCH   2   4
TORSDOF 7
ENDMDL
MODEL      251
REMARK 921   NORMALIZED FREE ENERGY PREDICTED BY IDOCK:   -3.30 KCAL/MOL
REMARK 922        TOTAL FREE ENERGY PREDICTED BY IDOCK:   -5.03 KCAL/MOL
REMARK 923 INTER-LIGAND FREE ENERGY PREDICTED BY IDOCK:   -4.05 KCAL/MOL
REMARK 924 INTRA-LIGAND FREE ENERGY PREDICTED BY IDOCK:   -0.99 KCAL/MOL
REMARK 927      BINDING AFFINITY PREDICTED BY RF-SCORE:    0.00 PKD
ROOT
HETATM    1  C   UNL     1      -7.393   4.231  66.011  1.00  0.00    -0.080 C  
HETATM    2  N   UNL     1      -8.366   4.325  64.918  1.00  0.00    -0.106 NA 
HETATM    3  C   UNL     1      -9.330   3.229  65.027  1.00  0.00    -0.150 C  
ENDROOT
BRANCH   2   4
HETATM    4  C   UNL     1      -9.014   5.649  64.947  1.00  0.00     0.110 C  
BRANCH   4   5
HETATM    5  C   UNL     1      -8.807   6.410  66.259  1.00  0.00    -0.152 C  
BRANCH   5   6
HETATM    6  C   UNL     1     -10.132   6.616  66.986  1.00  0.00    -0.187 C  
BRANCH   6   7
HETATM    7  O   UNL     1      -9.850   7.318  68.198  1.00  0.00    -0.143 OA 
BRANCH   7   8
HETATM    8  C   UNL     1      -9.735   8.653  68.032  1.00  0.00    -0.158 A  
HETATM    9  N   UNL     1     -10.716   9.350  67.461  1.00  0.00    -0.268 NA 
HETATM   10  N   UNL     1     -10.228  10.614  67.452  1.00  0.00    -0.194 NA 
HETATM   11  C   UNL     1      -6.559  10.299  69.309  1.00  0.00    -0.055 A  
HETATM   12  C   UNL     1      -8.983  10.733  68.038  1.00  0.00    -0.139 A  
HETATM   13  C   UNL     1      -8.132  11.827  68.249  1.00  0.00    -0.154 A  
HETATM   14  C   UNL     1      -8.645   9.444  68.443  1.00  0.00    -0.124 A  
HETATM   15  C   UNL     1      -7.416   9.216  69.089  1.00  0.00    -0.072 A  
HETATM   16  C   UNL     1      -6.912  11.583  68.893  1.00  0.00    -0.100 A  
BRANCH  10  17
HETATM   17  C   UNL     1     -11.059  11.690  66.924  1.00  0.00    -0.308 C  
BRANCH  17  18
HETATM   18  C   UNL     1     -11.415  12.714  67.975  1.00  0.00    -0.366 A  
HETATM   19  C   UNL     1     -11.068  14.065  67.814  1.00  0.00    -0.284 A  
HETATM   20  C   UNL     1     -12.081  14.609  69.938  1.00  0.00    -0.385 A  
HETATM   21  C   UNL     1     -12.456  13.276  70.098  1.00  0.00    -0.210 A  
HETATM   22  C   UNL     1     -11.393  15.004  68.794  1.00  0.00    -0.306 A  
HETATM   23  C   UNL     1     -12.130  12.334  69.122  1.00  0.00    -0.214 A  
ENDBRANCH  17  18
ENDBRANCH  10  17
ENDBRANCH   7   8
ENDBRANCH   6   7
ENDBRANCH   5   6
ENDBRANCH   4   5
ENDBRANCH   2   4
TORSDOF 7
ENDMDL
MODEL      252
REMARK 921   NORMALIZED FREE ENERGY PREDICTED BY IDOCK:   -3.27 KCAL/MOL
REMARK 922        TOTAL FREE ENERGY PREDICTED BY IDOCK:   -4.99 KCAL/MOL
REMARK 923 INTER-LIGAND FREE ENERGY PREDICTED BY IDOCK:   -4.20 KCAL/MOL
REMARK 924 INTRA-LIGAND FREE ENERGY PREDICTED BY IDOCK:   -0.80 KCAL/MOL
REMARK 927      BINDING AFFINITY PREDICTED BY RF-SCORE:    0.00 PKD
ROOT
HETATM    1  C   UNL     1      -8.296   6.727  69.648  1.00  0.00    -0.132 C  
HETATM    2  N   UNL     1      -8.248   8.146  69.280  1.00  0.00    -0.117 NA 
HETATM    3  C   UNL     1      -9.567   8.573  68.808  1.00  0.00    -0.149 C  
ENDROOT
BRANCH   2   4
HETATM    4  C   UNL     1      -7.781   8.939  70.433  1.00  0.00    -0.098 C  
BRANCH   4   5
HETATM    5  C   UNL     1      -7.034  10.216  70.042  1.00  0.00    -0.145 C  
BRANCH   5   6
HETATM    6  C   UNL     1      -6.289  10.032  68.724  1.00  0.00    -0.041 C  
BRANCH   6   7
HETATM    7  O   UNL     1      -6.262  11.300  68.067  1.00  0.00    -0.049 OA 
BRANCH   7   8
HETATM    8  C   UNL     1      -7.364  11.546  67.326  1.00  0.00    -0.131 A  
HETATM    9  N   UNL     1      -8.143  12.592  67.599  1.00  0.00    -0.158 NA 
HETATM   10  N   UNL     1      -9.131  12.485  66.679  1.00  0.00    -0.220 NA 
HETATM   11  C   UNL     1      -8.085   9.183  64.441  1.00  0.00    -0.145 A  
HETATM   12  C   UNL     1      -8.971  11.423  65.812  1.00  0.00    -0.151 A  
HETATM   13  C   UNL     1      -9.731  10.955  64.730  1.00  0.00    -0.323 A  
HETATM   14  C   UNL     1      -7.796  10.794  66.216  1.00  0.00    -0.156 A  
HETATM   15  C   UNL     1      -7.340   9.657  65.525  1.00  0.00    -0.106 A  
HETATM   16  C   UNL     1      -9.263   9.822  64.052  1.00  0.00    -0.267 A  
BRANCH  10  17
HETATM   17  C   UNL     1     -10.175  13.503  66.642  1.00  0.00    -0.275 C  
BRANCH  17  18
HETATM   18  C   UNL     1      -9.656  14.877  66.991  1.00  0.00    -0.245 A  
HETATM   19  C   UNL     1      -9.941  15.463  68.235  1.00  0.00    -0.214 A  
HETATM   20  C   UNL     1      -8.686  17.435  67.627  1.00  0.00    -0.221 A  
HETATM   21  C   UNL     1      -8.373  16.855  66.399  1.00  0.00    -0.333 A  
HETATM   22  C   UNL     1      -9.464  16.737  68.547  1.00  0.00    -0.245 A  
HETATM   23  C   UNL     1      -8.851  15.582  66.083  1.00  0.00    -0.273 A  
ENDBRANCH  17  18
ENDBRANCH  10  17
ENDBRANCH   7   8
ENDBRANCH   6   7
ENDBRANCH   5   6
ENDBRANCH   4   5
ENDBRANCH   2   4
TORSDOF 7
ENDMDL
MODEL      253
REMARK 921   NORMALIZED FREE ENERGY PREDICTED BY IDOCK:   -3.25 KCAL/MOL
REMARK 922        TOTAL FREE ENERGY PREDICTED BY IDOCK:   -4.97 KCAL/MOL
REMARK 923 INTER-LIGAND FREE ENERGY PREDICTED BY IDOCK:   -4.14 KCAL/MOL
REMARK 924 INTRA-LIGAND FREE ENERGY PREDICTED BY IDOCK:   -0.83 KCAL/MOL
REMARK 927      BINDING AFFINITY PREDICTED BY RF-SCORE:    0.00 PKD
ROOT
HETATM    1  C   UNL     1      -6.378  14.714  70.270  1.00  0.00    -0.171 C  
HETATM    2  N   UNL     1      -7.272  14.818  69.112  1.00  0.00    -0.138 NA 
HETATM    3  C   UNL     1      -6.659  15.677  68.097  1.00  0.00    -0.127 C  
ENDROOT
BRANCH   2   4
HETATM    4  C   UNL     1      -7.573  13.468  68.599  1.00  0.00    -0.108 C  
BRANCH   4   5
HETATM    5  C   UNL     1      -8.988  13.323  68.033  1.00  0.00    -0.191 C  
BRANCH   5   6
HETATM    6  C   UNL     1      -9.052  12.198  67.005  1.00  0.00    -0.198 C  
BRANCH   6   7
HETATM    7  O   UNL     1      -8.259  11.118  67.501  1.00  0.00    -0.115 OA 
BRANCH   7   8
HETATM    8  C   UNL     1      -8.651   9.909  67.047  1.00  0.00    -0.128 A  
HETATM    9  N   UNL     1      -9.722   9.308  67.563  1.00  0.00    -0.152 NA 
HETATM   10  N   UNL     1      -9.773   8.138  66.883  1.00  0.00    -0.204 NA 
HETATM   11  C   UNL     1      -6.622   8.365  64.232  1.00  0.00    -0.067 A  
HETATM   12  C   UNL     1      -8.785   8.007  65.927  1.00  0.00    -0.157 A  
HETATM   13  C   UNL     1      -8.476   6.991  65.011  1.00  0.00     0.018 A  
HETATM   14  C   UNL     1      -8.038   9.180  66.010  1.00  0.00    -0.110 A  
HETATM   15  C   UNL     1      -6.939   9.368  65.153  1.00  0.00    -0.092 A  
HETATM   16  C   UNL     1      -7.378   7.195  64.165  1.00  0.00    -0.083 A  
BRANCH  10  17
HETATM   17  C   UNL     1     -10.863   7.208  67.156  1.00  0.00    -0.333 C  
BRANCH  17  18
HETATM   18  C   UNL     1     -10.558   6.281  68.308  1.00  0.00    -0.318 A  
HETATM   19  C   UNL     1      -9.713   5.173  68.139  1.00  0.00    -0.190 A  
HETATM   20  C   UNL     1     -10.000   4.562  70.458  1.00  0.00    -0.278 A  
HETATM   21  C   UNL     1     -10.820   5.674  70.647  1.00  0.00    -0.304 A  
HETATM   22  C   UNL     1      -9.442   4.316  69.207  1.00  0.00    -0.254 A  
HETATM   23  C   UNL     1     -11.095   6.531  69.580  1.00  0.00    -0.435 A  
ENDBRANCH  17  18
ENDBRANCH  10  17
ENDBRANCH   7   8
ENDBRANCH   6   7
ENDBRANCH   5   6
ENDBRANCH   4   5
ENDBRANCH   2   4
TORSDOF 7
ENDMDL
MODEL      254
REMARK 921   NORMALIZED FREE ENERGY PREDICTED BY IDOCK:   -3.22 KCAL/MOL
REMARK 922        TOTAL FREE ENERGY PREDICTED BY IDOCK:   -4.92 KCAL/MOL
REMARK 923 INTER-LIGAND FREE ENERGY PREDICTED BY IDOCK:   -4.60 KCAL/MOL
REMARK 924 INTRA-LIGAND FREE ENERGY PREDICTED BY IDOCK:   -0.32 KCAL/MOL
REMARK 927      BINDING AFFINITY PREDICTED BY RF-SCORE:    0.00 PKD
ROOT
HETATM    1  C   UNL     1     -13.598  15.716  70.484  1.00  0.00     0.425 C  
HETATM    2  N   UNL     1     -13.052  15.164  71.729  1.00  0.00    -0.348 NA 
HETATM    3  C   UNL     1     -14.130  15.011  72.708  1.00  0.00    -0.142 C  
ENDROOT
BRANCH   2   4
HETATM    4  C   UNL     1     -12.366  13.891  71.445  1.00  0.00    -0.296 C  
BRANCH   4   5
HETATM    5  C   UNL     1     -12.239  13.575  69.953  1.00  0.00    -0.356 C  
BRANCH   5   6
HETATM    6  C   UNL     1     -11.128  12.561  69.701  1.00  0.00     0.083 C  
BRANCH   6   7
HETATM    7  O   UNL     1     -10.665  12.756  68.363  1.00  0.00    -0.235 OA 
BRANCH   7   8
HETATM    8  C   UNL     1     -10.205  11.627  67.783  1.00  0.00    -0.186 A  
HETATM    9  N   UNL     1      -9.900  10.563  68.523  1.00  0.00    -0.161 NA 
HETATM   10  N   UNL     1      -9.462   9.668  67.606  1.00  0.00    -0.133 NA 
HETATM   11  C   UNL     1      -9.890  11.619  63.998  1.00  0.00    -0.283 A  
HETATM   12  C   UNL     1      -9.521  10.130  66.306  1.00  0.00    -0.180 A  
HETATM   13  C   UNL     1      -9.186   9.551  65.073  1.00  0.00    -0.297 A  
HETATM   14  C   UNL     1     -10.026  11.425  66.401  1.00  0.00    -0.247 A  
HETATM   15  C   UNL     1     -10.216  12.187  65.234  1.00  0.00    -0.304 A  
HETATM   16  C   UNL     1      -9.381  10.323  63.921  1.00  0.00    -0.337 A  
BRANCH  10  17
HETATM   17  C   UNL     1      -9.066   8.336  68.049  1.00  0.00    -0.137 C  
BRANCH  17  18
HETATM   18  C   UNL     1      -9.643   7.981  69.399  1.00  0.00    -0.160 A  
HETATM   19  C   UNL     1      -9.071   8.477  70.582  1.00  0.00    -0.184 A  
HETATM   20  C   UNL     1     -10.724   7.312  71.904  1.00  0.00    -0.243 A  
HETATM   21  C   UNL     1     -11.317   6.835  70.736  1.00  0.00    -0.374 A  
HETATM   22  C   UNL     1      -9.605   8.138  71.826  1.00  0.00    -0.249 A  
HETATM   23  C   UNL     1     -10.784   7.169  69.491  1.00  0.00    -0.255 A  
ENDBRANCH  17  18
ENDBRANCH  10  17
ENDBRANCH   7   8
ENDBRANCH   6   7
ENDBRANCH   5   6
ENDBRANCH   4   5
ENDBRANCH   2   4
TORSDOF 7
ENDMDL
MODEL      255
REMARK 921   NORMALIZED FREE ENERGY PREDICTED BY IDOCK:   -3.21 KCAL/MOL
REMARK 922        TOTAL FREE ENERGY PREDICTED BY IDOCK:   -4.92 KCAL/MOL
REMARK 923 INTER-LIGAND FREE ENERGY PREDICTED BY IDOCK:   -3.87 KCAL/MOL
REMARK 924 INTRA-LIGAND FREE ENERGY PREDICTED BY IDOCK:   -1.04 KCAL/MOL
REMARK 927      BINDING AFFINITY PREDICTED BY RF-SCORE:    0.00 PKD
ROOT
HETATM    1  C   UNL     1      -7.608   8.562  69.738  1.00  0.00    -0.083 C  
HETATM    2  N   UNL     1      -7.846   9.932  69.272  1.00  0.00    -0.105 NA 
HETATM    3  C   UNL     1      -9.205  10.341  69.633  1.00  0.00    -0.129 C  
ENDROOT
BRANCH   2   4
HETATM    4  C   UNL     1      -6.821  10.829  69.837  1.00  0.00    -0.146 C  
BRANCH   4   5
HETATM    5  C   UNL     1      -6.321  11.891  68.854  1.00  0.00    -0.073 C  
BRANCH   5   6
HETATM    6  C   UNL     1      -5.690  11.245  67.625  1.00  0.00    -0.047 C  
BRANCH   6   7
HETATM    7  O   UNL     1      -6.222  11.904  66.474  1.00  0.00    -0.109 OA 
BRANCH   7   8
HETATM    8  C   UNL     1      -7.207  11.211  65.864  1.00  0.00     0.122 A  
HETATM    9  N   UNL     1      -8.471  11.341  66.262  1.00  0.00    -0.170 NA 
HETATM   10  N   UNL     1      -9.138  10.490  65.446  1.00  0.00    -0.177 NA 
HETATM   11  C   UNL     1      -6.217   8.960  62.969  1.00  0.00    -0.090 A  
HETATM   12  C   UNL     1      -8.329   9.859  64.521  1.00  0.00    -0.166 A  
HETATM   13  C   UNL     1      -8.592   8.929  63.505  1.00  0.00    -0.104 A  
HETATM   14  C   UNL     1      -7.045  10.335  64.773  1.00  0.00    -0.092 A  
HETATM   15  C   UNL     1      -5.967   9.884  63.990  1.00  0.00    -0.121 A  
HETATM   16  C   UNL     1      -7.508   8.490  62.734  1.00  0.00    -0.102 A  
BRANCH  10  17
HETATM   17  C   UNL     1     -10.588  10.388  65.562  1.00  0.00    -0.018 C  
BRANCH  17  18
HETATM   18  C   UNL     1     -11.270  11.734  65.485  1.00  0.00    -0.316 A  
HETATM   19  C   UNL     1     -11.895  12.293  66.611  1.00  0.00    -0.362 A  
HETATM   20  C   UNL     1     -12.536  14.236  65.327  1.00  0.00    -0.405 A  
HETATM   21  C   UNL     1     -11.896  13.705  64.209  1.00  0.00    -0.464 A  
HETATM   22  C   UNL     1     -12.530  13.533  66.530  1.00  0.00    -0.309 A  
HETATM   23  C   UNL     1     -11.263  12.463  64.286  1.00  0.00    -0.408 A  
ENDBRANCH  17  18
ENDBRANCH  10  17
ENDBRANCH   7   8
ENDBRANCH   6   7
ENDBRANCH   5   6
ENDBRANCH   4   5
ENDBRANCH   2   4
TORSDOF 7
ENDMDL
MODEL      256
REMARK 921   NORMALIZED FREE ENERGY PREDICTED BY IDOCK:   -3.19 KCAL/MOL
REMARK 922        TOTAL FREE ENERGY PREDICTED BY IDOCK:   -4.88 KCAL/MOL
REMARK 923 INTER-LIGAND FREE ENERGY PREDICTED BY IDOCK:   -4.29 KCAL/MOL
REMARK 924 INTRA-LIGAND FREE ENERGY PREDICTED BY IDOCK:   -0.58 KCAL/MOL
REMARK 927      BINDING AFFINITY PREDICTED BY RF-SCORE:    0.00 PKD
ROOT
HETATM    1  C   UNL     1      -9.207   5.077  74.030  1.00  0.00    -0.117 C  
HETATM    2  N   UNL     1      -9.643   5.892  72.891  1.00  0.00    -0.155 NA 
HETATM    3  C   UNL     1     -10.783   6.719  73.292  1.00  0.00    -0.302 C  
ENDROOT
BRANCH   2   4
HETATM    4  C   UNL     1      -8.511   6.698  72.398  1.00  0.00    -0.117 C  
BRANCH   4   5
HETATM    5  C   UNL     1      -8.870   8.157  72.107  1.00  0.00    -0.238 C  
BRANCH   5   6
HETATM    6  C   UNL     1      -9.061   8.385  70.611  1.00  0.00    -0.156 C  
BRANCH   6   7
HETATM    7  O   UNL     1      -9.606   9.695  70.444  1.00  0.00    -0.251 OA 
BRANCH   7   8
HETATM    8  C   UNL     1      -9.290  10.262  69.260  1.00  0.00    -0.207 A  
HETATM    9  N   UNL     1     -10.191  10.325  68.280  1.00  0.00    -0.153 NA 
HETATM   10  N   UNL     1      -9.507  10.923  67.275  1.00  0.00    -0.159 NA 
HETATM   11  C   UNL     1      -5.793  11.696  68.892  1.00  0.00    -0.048 A  
HETATM   12  C   UNL     1      -8.213  11.271  67.613  1.00  0.00    -0.120 A  
HETATM   13  C   UNL     1      -7.181  11.900  66.902  1.00  0.00    -0.074 A  
HETATM   14  C   UNL     1      -8.055  10.853  68.932  1.00  0.00    -0.144 A  
HETATM   15  C   UNL     1      -6.829  11.066  69.588  1.00  0.00    -0.129 A  
HETATM   16  C   UNL     1      -5.967  12.103  67.570  1.00  0.00    -0.124 A  
BRANCH  10  17
HETATM   17  C   UNL     1     -10.194  11.202  66.020  1.00  0.00    -0.250 C  
BRANCH  17  18
HETATM   18  C   UNL     1      -9.634  10.408  64.864  1.00  0.00    -0.348 A  
HETATM   19  C   UNL     1      -9.872  10.799  63.537  1.00  0.00    -0.401 A  
HETATM   20  C   UNL     1      -8.589   8.921  62.723  1.00  0.00    -0.167 A  
HETATM   21  C   UNL     1      -8.323   8.537  64.036  1.00  0.00    -0.099 A  
HETATM   22  C   UNL     1      -9.358  10.055  62.473  1.00  0.00    -0.297 A  
HETATM   23  C   UNL     1      -8.839   9.277  65.101  1.00  0.00    -0.238 A  
ENDBRANCH  17  18
ENDBRANCH  10  17
ENDBRANCH   7   8
ENDBRANCH   6   7
ENDBRANCH   5   6
ENDBRANCH   4   5
ENDBRANCH   2   4
TORSDOF 7
ENDMDL
MODEL      257
REMARK 921   NORMALIZED FREE ENERGY PREDICTED BY IDOCK:   -3.17 KCAL/MOL
REMARK 922        TOTAL FREE ENERGY PREDICTED BY IDOCK:   -4.86 KCAL/MOL
REMARK 923 INTER-LIGAND FREE ENERGY PREDICTED BY IDOCK:   -3.95 KCAL/MOL
REMARK 924 INTRA-LIGAND FREE ENERGY PREDICTED BY IDOCK:   -0.91 KCAL/MOL
REMARK 927      BINDING AFFINITY PREDICTED BY RF-SCORE:    0.00 PKD
ROOT
HETATM    1  C   UNL     1     -10.281   1.660  62.614  1.00  0.00    -0.098 C  
HETATM    2  N   UNL     1      -9.655   2.985  62.674  1.00  0.00    -0.092 NA 
HETATM    3  C   UNL     1     -10.652   4.010  62.356  1.00  0.00    -0.183 C  
ENDROOT
BRANCH   2   4
HETATM    4  C   UNL     1      -9.048   3.184  64.002  1.00  0.00    -0.103 C  
BRANCH   4   5
HETATM    5  C   UNL     1      -7.896   4.192  64.011  1.00  0.00    -0.084 C  
BRANCH   5   6
HETATM    6  C   UNL     1      -8.040   5.177  65.166  1.00  0.00    -0.118 C  
BRANCH   6   7
HETATM    7  O   UNL     1      -7.549   4.531  66.343  1.00  0.00    -0.088 OA 
BRANCH   7   8
HETATM    8  C   UNL     1      -8.370   4.655  67.407  1.00  0.00    -0.104 A  
HETATM    9  N   UNL     1      -9.465   5.411  67.332  1.00  0.00    -0.116 NA 
HETATM   10  N   UNL     1      -9.995   5.305  68.574  1.00  0.00    -0.159 NA 
HETATM   11  C   UNL     1      -7.453   2.728  70.549  1.00  0.00    -0.040 A  
HETATM   12  C   UNL     1      -9.283   4.472  69.413  1.00  0.00    -0.129 A  
HETATM   13  C   UNL     1      -9.471   4.077  70.746  1.00  0.00    -0.240 A  
HETATM   14  C   UNL     1      -8.208   4.019  68.652  1.00  0.00    -0.082 A  
HETATM   15  C   UNL     1      -7.275   3.133  69.222  1.00  0.00    -0.045 A  
HETATM   16  C   UNL     1      -8.533   3.195  71.297  1.00  0.00    -0.093 A  
BRANCH  10  17
HETATM   17  C   UNL     1     -11.253   5.984  68.866  1.00  0.00    -0.173 C  
BRANCH  17  18
HETATM   18  C   UNL     1     -11.104   7.044  69.931  1.00  0.00    -0.301 A  
HETATM   19  C   UNL     1     -11.963   7.078  71.041  1.00  0.00    -0.406 A  
HETATM   20  C   UNL     1     -10.819   9.022  71.904  1.00  0.00    -0.413 A  
HETATM   21  C   UNL     1      -9.942   8.984  70.822  1.00  0.00    -0.307 A  
HETATM   22  C   UNL     1     -11.825   8.066  72.017  1.00  0.00    -0.376 A  
HETATM   23  C   UNL     1     -10.080   7.999  69.842  1.00  0.00    -0.198 A  
ENDBRANCH  17  18
ENDBRANCH  10  17
ENDBRANCH   7   8
ENDBRANCH   6   7
ENDBRANCH   5   6
ENDBRANCH   4   5
ENDBRANCH   2   4
TORSDOF 7
ENDMDL
MODEL      258
REMARK 921   NORMALIZED FREE ENERGY PREDICTED BY IDOCK:   -3.17 KCAL/MOL
REMARK 922        TOTAL FREE ENERGY PREDICTED BY IDOCK:   -4.86 KCAL/MOL
REMARK 923 INTER-LIGAND FREE ENERGY PREDICTED BY IDOCK:   -3.93 KCAL/MOL
REMARK 924 INTRA-LIGAND FREE ENERGY PREDICTED BY IDOCK:   -0.93 KCAL/MOL
REMARK 927      BINDING AFFINITY PREDICTED BY RF-SCORE:    0.00 PKD
ROOT
HETATM    1  C   UNL     1     -10.422   1.544  62.814  1.00  0.00    -0.112 C  
HETATM    2  N   UNL     1      -9.567   2.675  63.190  1.00  0.00    -0.094 NA 
HETATM    3  C   UNL     1     -10.211   3.927  62.787  1.00  0.00    -0.178 C  
ENDROOT
BRANCH   2   4
HETATM    4  C   UNL     1      -9.290   2.625  64.637  1.00  0.00    -0.135 C  
BRANCH   4   5
HETATM    5  C   UNL     1      -7.855   3.008  65.005  1.00  0.00    -0.082 C  
BRANCH   5   6
HETATM    6  C   UNL     1      -7.794   4.427  65.562  1.00  0.00    -0.094 C  
BRANCH   6   7
HETATM    7  O   UNL     1      -8.271   4.380  66.908  1.00  0.00    -0.101 OA 
BRANCH   7   8
HETATM    8  C   UNL     1      -8.994   5.464  67.261  1.00  0.00    -0.111 A  
HETATM    9  N   UNL     1      -9.136   6.485  66.417  1.00  0.00    -0.153 NA 
HETATM   10  N   UNL     1      -9.884   7.365  67.125  1.00  0.00    -0.177 NA 
HETATM   11  C   UNL     1     -10.622   5.430  70.692  1.00  0.00    -0.302 A  
HETATM   12  C   UNL     1     -10.247   6.905  68.376  1.00  0.00    -0.176 A  
HETATM   13  C   UNL     1     -11.006   7.466  69.413  1.00  0.00    -0.126 A  
HETATM   14  C   UNL     1      -9.677   5.638  68.479  1.00  0.00    -0.172 A  
HETATM   15  C   UNL     1      -9.863   4.883  69.652  1.00  0.00    -0.288 A  
HETATM   16  C   UNL     1     -11.182   6.702  70.573  1.00  0.00    -0.388 A  
BRANCH  10  17
HETATM   17  C   UNL     1     -10.285   8.619  66.498  1.00  0.00    -0.225 C  
BRANCH  17  18
HETATM   18  C   UNL     1      -9.597   9.816  67.109  1.00  0.00    -0.211 A  
HETATM   19  C   UNL     1      -8.218  10.021  66.941  1.00  0.00    -0.121 A  
HETATM   20  C   UNL     1      -8.329  12.047  68.252  1.00  0.00    -0.163 A  
HETATM   21  C   UNL     1      -9.703  11.870  68.404  1.00  0.00    -0.201 A  
HETATM   22  C   UNL     1      -7.588  11.126  67.515  1.00  0.00    -0.108 A  
HETATM   23  C   UNL     1     -10.335  10.765  67.833  1.00  0.00    -0.216 A  
ENDBRANCH  17  18
ENDBRANCH  10  17
ENDBRANCH   7   8
ENDBRANCH   6   7
ENDBRANCH   5   6
ENDBRANCH   4   5
ENDBRANCH   2   4
TORSDOF 7
ENDMDL
MODEL      259
REMARK 921   NORMALIZED FREE ENERGY PREDICTED BY IDOCK:   -3.17 KCAL/MOL
REMARK 922        TOTAL FREE ENERGY PREDICTED BY IDOCK:   -4.85 KCAL/MOL
REMARK 923 INTER-LIGAND FREE ENERGY PREDICTED BY IDOCK:   -4.11 KCAL/MOL
REMARK 924 INTRA-LIGAND FREE ENERGY PREDICTED BY IDOCK:   -0.74 KCAL/MOL
REMARK 927      BINDING AFFINITY PREDICTED BY RF-SCORE:    0.00 PKD
ROOT
HETATM    1  C   UNL     1     -11.899  14.081  64.289  1.00  0.00    -0.410 C  
HETATM    2  N   UNL     1     -11.175  13.456  65.401  1.00  0.00    -0.286 NA 
HETATM    3  C   UNL     1     -11.692  13.972  66.670  1.00  0.00    -0.399 C  
ENDROOT
BRANCH   2   4
HETATM    4  C   UNL     1     -11.290  11.989  65.302  1.00  0.00    -0.312 C  
BRANCH   4   5
HETATM    5  C   UNL     1     -10.122  11.327  64.566  1.00  0.00    -0.348 C  
BRANCH   5   6
HETATM    6  C   UNL     1      -9.479  10.243  65.426  1.00  0.00    -0.232 C  
BRANCH   6   7
HETATM    7  O   UNL     1     -10.314  10.053  66.570  1.00  0.00    -0.232 OA 
BRANCH   7   8
HETATM    8  C   UNL     1      -9.734   9.317  67.543  1.00  0.00    -0.158 A  
HETATM    9  N   UNL     1     -10.325   8.213  67.996  1.00  0.00    -0.215 NA 
HETATM   10  N   UNL     1      -9.472   7.782  68.957  1.00  0.00    -0.150 NA 
HETATM   11  C   UNL     1      -6.370  10.498  68.850  1.00  0.00    -0.047 A  
HETATM   12  C   UNL     1      -8.343   8.567  69.089  1.00  0.00    -0.120 A  
HETATM   13  C   UNL     1      -7.223   8.488  69.929  1.00  0.00    -0.051 A  
HETATM   14  C   UNL     1      -8.492   9.583  68.148  1.00  0.00    -0.119 A  
HETATM   15  C   UNL     1      -7.494  10.567  68.022  1.00  0.00    -0.090 A  
HETATM   16  C   UNL     1      -6.239   9.475  69.790  1.00  0.00    -0.040 A  
BRANCH  10  17
HETATM   17  C   UNL     1      -9.773   6.545  69.667  1.00  0.00    -0.156 C  
BRANCH  17  18
HETATM   18  C   UNL     1      -9.137   5.337  69.020  1.00  0.00    -0.141 A  
HETATM   19  C   UNL     1      -7.879   4.873  69.435  1.00  0.00    -0.071 A  
HETATM   20  C   UNL     1      -7.965   3.092  67.806  1.00  0.00    -0.074 A  
HETATM   21  C   UNL     1      -9.227   3.526  67.402  1.00  0.00    -0.226 A  
HETATM   22  C   UNL     1      -7.295   3.761  68.826  1.00  0.00    -0.054 A  
HETATM   23  C   UNL     1      -9.812   4.639  68.007  1.00  0.00    -0.174 A  
ENDBRANCH  17  18
ENDBRANCH  10  17
ENDBRANCH   7   8
ENDBRANCH   6   7
ENDBRANCH   5   6
ENDBRANCH   4   5
ENDBRANCH   2   4
TORSDOF 7
ENDMDL
MODEL      260
REMARK 921   NORMALIZED FREE ENERGY PREDICTED BY IDOCK:   -3.06 KCAL/MOL
REMARK 922        TOTAL FREE ENERGY PREDICTED BY IDOCK:   -4.70 KCAL/MOL
REMARK 923 INTER-LIGAND FREE ENERGY PREDICTED BY IDOCK:   -3.82 KCAL/MOL
REMARK 924 INTRA-LIGAND FREE ENERGY PREDICTED BY IDOCK:   -0.87 KCAL/MOL
REMARK 927      BINDING AFFINITY PREDICTED BY RF-SCORE:    0.00 PKD
ROOT
HETATM    1  C   UNL     1      -9.653   5.778  73.176  1.00  0.00    -0.147 C  
HETATM    2  N   UNL     1      -9.590   6.998  72.365  1.00  0.00    -0.146 NA 
HETATM    3  C   UNL     1      -8.277   7.090  71.724  1.00  0.00    -0.103 C  
ENDROOT
BRANCH   2   4
HETATM    4  C   UNL     1     -10.694   6.999  71.387  1.00  0.00    -0.219 C  
BRANCH   4   5
HETATM    5  C   UNL     1     -10.497   7.984  70.233  1.00  0.00    -0.222 C  
BRANCH   5   6
HETATM    6  C   UNL     1     -10.357   7.249  68.904  1.00  0.00    -0.201 C  
BRANCH   6   7
HETATM    7  O   UNL     1     -10.901   8.094  67.888  1.00  0.00    -0.116 OA 
BRANCH   7   8
HETATM    8  C   UNL     1     -10.079   9.104  67.532  1.00  0.00    -0.228 A  
HETATM    9  N   UNL     1      -8.804   8.864  67.230  1.00  0.00    -0.127 NA 
HETATM   10  N   UNL     1      -8.316  10.098  66.957  1.00  0.00    -0.125 NA 
HETATM   11  C   UNL     1     -11.573  12.592  67.376  1.00  0.00    -0.421 A  
HETATM   12  C   UNL     1      -9.262  11.100  67.042  1.00  0.00    -0.163 A  
HETATM   13  C   UNL     1      -9.200  12.486  66.839  1.00  0.00    -0.211 A  
HETATM   14  C   UNL     1     -10.443  10.459  67.409  1.00  0.00    -0.299 A  
HETATM   15  C   UNL     1     -11.620  11.210  67.580  1.00  0.00    -0.266 A  
HETATM   16  C   UNL     1     -10.381  13.219  67.014  1.00  0.00    -0.246 A  
BRANCH  10  17
HETATM   17  C   UNL     1      -6.926  10.232  66.539  1.00  0.00    -0.107 C  
BRANCH  17  18
HETATM   18  C   UNL     1      -6.688   9.707  65.143  1.00  0.00    -0.094 A  
HETATM   19  C   UNL     1      -5.882   8.579  64.923  1.00  0.00    -0.048 A  
HETATM   20  C   UNL     1      -6.252   8.742  62.542  1.00  0.00    -0.095 A  
HETATM   21  C   UNL     1      -7.077   9.846  62.748  1.00  0.00    -0.121 A  
HETATM   22  C   UNL     1      -5.660   8.105  63.630  1.00  0.00    -0.058 A  
HETATM   23  C   UNL     1      -7.297  10.325  64.040  1.00  0.00    -0.063 A  
ENDBRANCH  17  18
ENDBRANCH  10  17
ENDBRANCH   7   8
ENDBRANCH   6   7
ENDBRANCH   5   6
ENDBRANCH   4   5
ENDBRANCH   2   4
TORSDOF 7
ENDMDL
MODEL      261
REMARK 921   NORMALIZED FREE ENERGY PREDICTED BY IDOCK:   -3.03 KCAL/MOL
REMARK 922        TOTAL FREE ENERGY PREDICTED BY IDOCK:   -4.65 KCAL/MOL
REMARK 923 INTER-LIGAND FREE ENERGY PREDICTED BY IDOCK:   -4.13 KCAL/MOL
REMARK 924 INTRA-LIGAND FREE ENERGY PREDICTED BY IDOCK:   -0.52 KCAL/MOL
REMARK 927      BINDING AFFINITY PREDICTED BY RF-SCORE:    0.00 PKD
ROOT
HETATM    1  C   UNL     1     -14.403   7.715  71.336  1.00  0.00    -0.400 C  
HETATM    2  N   UNL     1     -13.324   8.533  70.772  1.00  0.00     0.331 NA 
HETATM    3  C   UNL     1     -13.428   9.900  71.287  1.00  0.00    -0.280 C  
ENDROOT
BRANCH   2   4
HETATM    4  C   UNL     1     -12.022   7.914  71.082  1.00  0.00    -0.285 C  
BRANCH   4   5
HETATM    5  C   UNL     1     -11.363   8.462  72.349  1.00  0.00    -0.448 C  
BRANCH   5   6
HETATM    6  C   UNL     1      -9.867   8.164  72.360  1.00  0.00    -0.276 C  
BRANCH   6   7
HETATM    7  O   UNL     1      -9.561   7.467  71.151  1.00  0.00    -0.159 OA 
BRANCH   7   8
HETATM    8  C   UNL     1      -8.838   8.199  70.276  1.00  0.00    -0.141 A  
HETATM    9  N   UNL     1      -9.125   9.484  70.071  1.00  0.00    -0.211 NA 
HETATM   10  N   UNL     1      -8.220   9.853  69.132  1.00  0.00    -0.118 NA 
HETATM   11  C   UNL     1      -5.962   6.459  68.508  1.00  0.00    -0.021 A  
HETATM   12  C   UNL     1      -7.349   8.843  68.773  1.00  0.00    -0.076 A  
HETATM   13  C   UNL     1      -6.279   8.788  67.869  1.00  0.00    -0.052 A  
HETATM   14  C   UNL     1      -7.734   7.741  69.532  1.00  0.00    -0.105 A  
HETATM   15  C   UNL     1      -7.035   6.527  69.403  1.00  0.00    -0.071 A  
HETATM   16  C   UNL     1      -5.593   7.572  67.753  1.00  0.00    -0.034 A  
BRANCH  10  17
HETATM   17  C   UNL     1      -8.201  11.237  68.674  1.00  0.00    -0.146 C  
BRANCH  17  18
HETATM   18  C   UNL     1      -9.241  11.510  67.614  1.00  0.00    -0.171 A  
HETATM   19  C   UNL     1     -10.578  11.762  67.961  1.00  0.00    -0.235 A  
HETATM   20  C   UNL     1     -11.167  12.013  65.632  1.00  0.00    -0.377 A  
HETATM   21  C   UNL     1      -9.838  11.792  65.275  1.00  0.00    -0.267 A  
HETATM   22  C   UNL     1     -11.535  12.005  66.975  1.00  0.00    -0.402 A  
HETATM   23  C   UNL     1      -8.879  11.545  66.258  1.00  0.00    -0.186 A  
ENDBRANCH  17  18
ENDBRANCH  10  17
ENDBRANCH   7   8
ENDBRANCH   6   7
ENDBRANCH   5   6
ENDBRANCH   4   5
ENDBRANCH   2   4
TORSDOF 7
ENDMDL
MODEL      262
REMARK 921   NORMALIZED FREE ENERGY PREDICTED BY IDOCK:   -3.02 KCAL/MOL
REMARK 922        TOTAL FREE ENERGY PREDICTED BY IDOCK:   -4.65 KCAL/MOL
REMARK 923 INTER-LIGAND FREE ENERGY PREDICTED BY IDOCK:   -3.87 KCAL/MOL
REMARK 924 INTRA-LIGAND FREE ENERGY PREDICTED BY IDOCK:   -0.78 KCAL/MOL
REMARK 927      BINDING AFFINITY PREDICTED BY RF-SCORE:    0.00 PKD
ROOT
HETATM    1  C   UNL     1      -6.689   3.473  69.319  1.00  0.00    -0.037 C  
HETATM    2  N   UNL     1      -7.113   4.119  70.565  1.00  0.00    -0.037 NA 
HETATM    3  C   UNL     1      -5.933   4.492  71.347  1.00  0.00    -0.017 C  
ENDROOT
BRANCH   2   4
HETATM    4  C   UNL     1      -7.970   5.277  70.254  1.00  0.00    -0.084 C  
BRANCH   4   5
HETATM    5  C   UNL     1      -9.461   4.940  70.175  1.00  0.00    -0.240 C  
BRANCH   5   6
HETATM    6  C   UNL     1     -10.215   5.984  69.357  1.00  0.00    -0.211 C  
BRANCH   6   7
HETATM    7  O   UNL     1      -9.548   6.105  68.099  1.00  0.00    -0.116 OA 
BRANCH   7   8
HETATM    8  C   UNL     1      -9.769   7.287  67.485  1.00  0.00    -0.145 A  
HETATM    9  N   UNL     1     -10.635   8.161  67.993  1.00  0.00    -0.171 NA 
HETATM   10  N   UNL     1     -10.597   9.182  67.103  1.00  0.00    -0.251 NA 
HETATM   11  C   UNL     1      -7.783   8.005  64.327  1.00  0.00    -0.128 A  
HETATM   12  C   UNL     1      -9.700   8.986  66.071  1.00  0.00    -0.269 A  
HETATM   13  C   UNL     1      -9.340   9.766  64.963  1.00  0.00    -0.325 A  
HETATM   14  C   UNL     1      -9.129   7.739  66.314  1.00  0.00    -0.221 A  
HETATM   15  C   UNL     1      -8.155   7.234  65.434  1.00  0.00    -0.133 A  
HETATM   16  C   UNL     1      -8.368   9.249  64.096  1.00  0.00    -0.178 A  
BRANCH  10  17
HETATM   17  C   UNL     1     -11.408  10.368  67.352  1.00  0.00     0.037 C  
BRANCH  17  18
HETATM   18  C   UNL     1     -10.583  11.633  67.393  1.00  0.00    -0.257 A  
HETATM   19  C   UNL     1      -9.566  11.801  68.346  1.00  0.00    -0.191 A  
HETATM   20  C   UNL     1      -9.059  13.991  67.462  1.00  0.00    -0.196 A  
HETATM   21  C   UNL     1     -10.047  13.826  66.493  1.00  0.00    -0.286 A  
HETATM   22  C   UNL     1      -8.814  12.976  68.384  1.00  0.00    -0.123 A  
HETATM   23  C   UNL     1     -10.803  12.653  66.455  1.00  0.00    -0.285 A  
ENDBRANCH  17  18
ENDBRANCH  10  17
ENDBRANCH   7   8
ENDBRANCH   6   7
ENDBRANCH   5   6
ENDBRANCH   4   5
ENDBRANCH   2   4
TORSDOF 7
ENDMDL
MODEL      263
REMARK 921   NORMALIZED FREE ENERGY PREDICTED BY IDOCK:   -3.02 KCAL/MOL
REMARK 922        TOTAL FREE ENERGY PREDICTED BY IDOCK:   -4.64 KCAL/MOL
REMARK 923 INTER-LIGAND FREE ENERGY PREDICTED BY IDOCK:   -4.07 KCAL/MOL
REMARK 924 INTRA-LIGAND FREE ENERGY PREDICTED BY IDOCK:   -0.58 KCAL/MOL
REMARK 927      BINDING AFFINITY PREDICTED BY RF-SCORE:    0.00 PKD
ROOT
HETATM    1  C   UNL     1     -10.491   1.474  62.891  1.00  0.00    -0.119 C  
HETATM    2  N   UNL     1      -9.717   2.568  63.488  1.00  0.00    -0.111 NA 
HETATM    3  C   UNL     1     -10.505   3.801  63.451  1.00  0.00    -0.226 C  
ENDROOT
BRANCH   2   4
HETATM    4  C   UNL     1      -9.317   2.197  64.859  1.00  0.00    -0.091 C  
BRANCH   4   5
HETATM    5  C   UNL     1      -7.925   2.697  65.253  1.00  0.00    -0.082 C  
BRANCH   5   6
HETATM    6  C   UNL     1      -8.019   3.838  66.260  1.00  0.00    -0.089 C  
BRANCH   6   7
HETATM    7  O   UNL     1      -7.999   3.260  67.566  1.00  0.00    -0.076 OA 
BRANCH   7   8
HETATM    8  C   UNL     1      -8.774   3.916  68.456  1.00  0.00    -0.100 A  
HETATM    9  N   UNL     1      -9.577   4.901  68.057  1.00  0.00    -0.139 NA 
HETATM   10  N   UNL     1     -10.152   5.313  69.212  1.00  0.00    -0.214 NA 
HETATM   11  C   UNL     1      -8.597   2.790  72.080  1.00  0.00    -0.088 A  
HETATM   12  C   UNL     1      -9.760   4.586  70.319  1.00  0.00    -0.217 A  
HETATM   13  C   UNL     1     -10.102   4.662  71.677  1.00  0.00    -0.258 A  
HETATM   14  C   UNL     1      -8.855   3.644  69.835  1.00  0.00    -0.151 A  
HETATM   15  C   UNL     1      -8.261   2.729  70.723  1.00  0.00    -0.070 A  
HETATM   16  C   UNL     1      -9.501   3.744  72.547  1.00  0.00    -0.176 A  
BRANCH  10  17
HETATM   17  C   UNL     1     -11.145   6.380  69.166  1.00  0.00    -0.365 C  
BRANCH  17  18
HETATM   18  C   UNL     1     -10.631   7.619  68.473  1.00  0.00    -0.162 A  
HETATM   19  C   UNL     1     -10.634   7.718  67.073  1.00  0.00    -0.396 A  
HETATM   20  C   UNL     1      -9.669   9.929  67.197  1.00  0.00    -0.224 A  
HETATM   21  C   UNL     1      -9.685   9.855  68.589  1.00  0.00    -0.163 A  
HETATM   22  C   UNL     1     -10.149   8.864  66.440  1.00  0.00    -0.333 A  
HETATM   23  C   UNL     1     -10.166   8.710  69.224  1.00  0.00    -0.215 A  
ENDBRANCH  17  18
ENDBRANCH  10  17
ENDBRANCH   7   8
ENDBRANCH   6   7
ENDBRANCH   5   6
ENDBRANCH   4   5
ENDBRANCH   2   4
TORSDOF 7
ENDMDL
MODEL      264
REMARK 921   NORMALIZED FREE ENERGY PREDICTED BY IDOCK:   -2.95 KCAL/MOL
REMARK 922        TOTAL FREE ENERGY PREDICTED BY IDOCK:   -4.54 KCAL/MOL
REMARK 923 INTER-LIGAND FREE ENERGY PREDICTED BY IDOCK:   -4.17 KCAL/MOL
REMARK 924 INTRA-LIGAND FREE ENERGY PREDICTED BY IDOCK:   -0.38 KCAL/MOL
REMARK 927      BINDING AFFINITY PREDICTED BY RF-SCORE:    0.00 PKD
ROOT
HETATM    1  C   UNL     1      -9.584   5.543  72.969  1.00  0.00    -0.150 C  
HETATM    2  N   UNL     1      -9.499   6.812  72.237  1.00  0.00    -0.143 NA 
HETATM    3  C   UNL     1      -8.408   6.741  71.264  1.00  0.00    -0.120 C  
ENDROOT
BRANCH   2   4
HETATM    4  C   UNL     1     -10.798   7.106  71.606  1.00  0.00    -0.224 C  
BRANCH   4   5
HETATM    5  C   UNL     1     -10.692   7.509  70.133  1.00  0.00    -0.248 C  
BRANCH   5   6
HETATM    6  C   UNL     1     -10.683   6.280  69.229  1.00  0.00    -0.305 C  
BRANCH   6   7
HETATM    7  O   UNL     1     -11.278   6.658  67.987  1.00  0.00    -0.239 OA 
BRANCH   7   8
HETATM    8  C   UNL     1     -10.483   7.438  67.224  1.00  0.00    -0.315 A  
HETATM    9  N   UNL     1     -10.854   8.677  66.906  1.00  0.00    -0.069 NA 
HETATM   10  N   UNL     1      -9.833   9.114  66.132  1.00  0.00    -0.287 NA 
HETATM   11  C   UNL     1      -7.165   5.969  66.100  1.00  0.00    -0.076 A  
HETATM   12  C   UNL     1      -8.812   8.195  65.988  1.00  0.00    -0.172 A  
HETATM   13  C   UNL     1      -7.591   8.229  65.299  1.00  0.00    -0.094 A  
HETATM   14  C   UNL     1      -9.219   7.080  66.718  1.00  0.00    -0.181 A  
HETATM   15  C   UNL     1      -8.388   5.947  66.779  1.00  0.00    -0.109 A  
HETATM   16  C   UNL     1      -6.776   7.092  65.370  1.00  0.00    -0.051 A  
BRANCH  10  17
HETATM   17  C   UNL     1      -9.868  10.478  65.617  1.00  0.00    -0.252 C  
BRANCH  17  18
HETATM   18  C   UNL     1     -10.046  11.504  66.711  1.00  0.00    -0.245 A  
HETATM   19  C   UNL     1      -9.072  11.674  67.707  1.00  0.00    -0.175 A  
HETATM   20  C   UNL     1     -10.389  13.414  68.741  1.00  0.00    -0.164 A  
HETATM   21  C   UNL     1     -11.352  13.275  67.743  1.00  0.00    -0.327 A  
HETATM   22  C   UNL     1      -9.246  12.619  68.720  1.00  0.00     0.150 A  
HETATM   23  C   UNL     1     -11.181  12.329  66.731  1.00  0.00    -0.371 A  
ENDBRANCH  17  18
ENDBRANCH  10  17
ENDBRANCH   7   8
ENDBRANCH   6   7
ENDBRANCH   5   6
ENDBRANCH   4   5
ENDBRANCH   2   4
TORSDOF 7
ENDMDL
MODEL      265
REMARK 921   NORMALIZED FREE ENERGY PREDICTED BY IDOCK:   -2.69 KCAL/MOL
REMARK 922        TOTAL FREE ENERGY PREDICTED BY IDOCK:   -4.19 KCAL/MOL
REMARK 923 INTER-LIGAND FREE ENERGY PREDICTED BY IDOCK:   -3.36 KCAL/MOL
REMARK 924 INTRA-LIGAND FREE ENERGY PREDICTED BY IDOCK:   -0.83 KCAL/MOL
REMARK 927      BINDING AFFINITY PREDICTED BY RF-SCORE:    0.00 PKD
ROOT
HETATM    1  C   UNL     1      -9.564   5.529  72.947  1.00  0.00    -0.147 C  
HETATM    2  N   UNL     1      -9.300   6.680  72.078  1.00  0.00    -0.144 NA 
HETATM    3  C   UNL     1      -8.139   6.397  71.232  1.00  0.00    -0.117 C  
ENDROOT
BRANCH   2   4
HETATM    4  C   UNL     1     -10.506   6.991  71.290  1.00  0.00    -0.206 C  
BRANCH   4   5
HETATM    5  C   UNL     1     -10.254   7.086  69.784  1.00  0.00    -0.213 C  
BRANCH   5   6
HETATM    6  C   UNL     1     -10.957   5.955  69.039  1.00  0.00    -0.289 C  
BRANCH   6   7
HETATM    7  O   UNL     1     -11.236   6.421  67.718  1.00  0.00    -0.323 OA 
BRANCH   7   8
HETATM    8  C   UNL     1     -10.167   6.375  66.894  1.00  0.00    -0.215 A  
HETATM    9  N   UNL     1      -9.661   7.495  66.380  1.00  0.00    -0.156 NA 
HETATM   10  N   UNL     1      -8.644   7.044  65.607  1.00  0.00    -0.140 NA 
HETATM   11  C   UNL     1      -8.666   2.960  66.179  1.00  0.00    -0.133 A  
HETATM   12  C   UNL     1      -8.475   5.675  65.654  1.00  0.00    -0.147 A  
HETATM   13  C   UNL     1      -7.564   4.807  65.035  1.00  0.00    -0.077 A  
HETATM   14  C   UNL     1      -9.469   5.213  66.515  1.00  0.00    -0.153 A  
HETATM   15  C   UNL     1      -9.572   3.837  66.786  1.00  0.00    -0.205 A  
HETATM   16  C   UNL     1      -7.681   3.439  65.316  1.00  0.00    -0.081 A  
BRANCH  10  17
HETATM   17  C   UNL     1      -7.813   8.010  64.898  1.00  0.00    -0.129 C  
BRANCH  17  18
HETATM   18  C   UNL     1      -7.186   9.024  65.826  1.00  0.00    -0.089 A  
HETATM   19  C   UNL     1      -6.278   8.628  66.821  1.00  0.00    -0.059 A  
HETATM   20  C   UNL     1      -6.029  10.919  67.546  1.00  0.00    -0.045 A  
HETATM   21  C   UNL     1      -6.908  11.329  66.545  1.00  0.00    -0.101 A  
HETATM   22  C   UNL     1      -5.709   9.570  67.680  1.00  0.00    -0.040 A  
HETATM   23  C   UNL     1      -7.481  10.389  65.687  1.00  0.00    -0.149 A  
ENDBRANCH  17  18
ENDBRANCH  10  17
ENDBRANCH   7   8
ENDBRANCH   6   7
ENDBRANCH   5   6
ENDBRANCH   4   5
ENDBRANCH   2   4
TORSDOF 7
ENDMDL
MODEL      266
REMARK 921   NORMALIZED FREE ENERGY PREDICTED BY IDOCK:   -2.68 KCAL/MOL
REMARK 922        TOTAL FREE ENERGY PREDICTED BY IDOCK:   -4.17 KCAL/MOL
REMARK 923 INTER-LIGAND FREE ENERGY PREDICTED BY IDOCK:   -3.75 KCAL/MOL
REMARK 924 INTRA-LIGAND FREE ENERGY PREDICTED BY IDOCK:   -0.42 KCAL/MOL
REMARK 927      BINDING AFFINITY PREDICTED BY RF-SCORE:    0.00 PKD
ROOT
HETATM    1  C   UNL     1     -13.026  11.256  71.620  1.00  0.00    -0.432 C  
HETATM    2  N   UNL     1     -12.735   9.865  71.983  1.00  0.00    -0.387 NA 
HETATM    3  C   UNL     1     -13.986   9.172  72.298  1.00  0.00    -0.420 C  
ENDROOT
BRANCH   2   4
HETATM    4  C   UNL     1     -11.992   9.214  70.889  1.00  0.00    -0.242 C  
BRANCH   4   5
HETATM    5  C   UNL     1     -10.622   9.838  70.616  1.00  0.00    -0.382 C  
BRANCH   5   6
HETATM    6  C   UNL     1     -10.446  10.144  69.132  1.00  0.00    -0.222 C  
BRANCH   6   7
HETATM    7  O   UNL     1      -9.072  10.476  68.923  1.00  0.00    -0.161 OA 
BRANCH   7   8
HETATM    8  C   UNL     1      -8.344   9.460  68.414  1.00  0.00    -0.119 A  
HETATM    9  N   UNL     1      -7.999   8.426  69.180  1.00  0.00    -0.108 NA 
HETATM   10  N   UNL     1      -7.273   7.651  68.339  1.00  0.00    -0.087 NA 
HETATM   11  C   UNL     1      -7.398   9.663  64.741  1.00  0.00    -0.119 A  
HETATM   12  C   UNL     1      -7.187   8.153  67.055  1.00  0.00    -0.083 A  
HETATM   13  C   UNL     1      -6.559   7.687  65.891  1.00  0.00    -0.046 A  
HETATM   14  C   UNL     1      -7.904   9.347  67.081  1.00  0.00    -0.098 A  
HETATM   15  C   UNL     1      -8.016  10.119  65.910  1.00  0.00    -0.134 A  
HETATM   16  C   UNL     1      -6.680   8.467  64.734  1.00  0.00    -0.068 A  
BRANCH  10  17
HETATM   17  C   UNL     1      -6.747   6.381  68.824  1.00  0.00    -0.061 C  
BRANCH  17  18
HETATM   18  C   UNL     1      -7.232   6.047  70.215  1.00  0.00    -0.076 A  
HETATM   19  C   UNL     1      -8.528   5.550  70.427  1.00  0.00    -0.122 A  
HETATM   20  C   UNL     1      -8.125   5.433  72.806  1.00  0.00    -0.109 A  
HETATM   21  C   UNL     1      -6.827   5.901  72.607  1.00  0.00    -0.075 A  
HETATM   22  C   UNL     1      -8.973   5.252  71.716  1.00  0.00    -0.147 A  
HETATM   23  C   UNL     1      -6.381   6.203  71.319  1.00  0.00    -0.048 A  
ENDBRANCH  17  18
ENDBRANCH  10  17
ENDBRANCH   7   8
ENDBRANCH   6   7
ENDBRANCH   5   6
ENDBRANCH   4   5
ENDBRANCH   2   4
TORSDOF 7
ENDMDL
MODEL      267
REMARK 921   NORMALIZED FREE ENERGY PREDICTED BY IDOCK:   -2.66 KCAL/MOL
REMARK 922        TOTAL FREE ENERGY PREDICTED BY IDOCK:   -4.14 KCAL/MOL
REMARK 923 INTER-LIGAND FREE ENERGY PREDICTED BY IDOCK:   -3.87 KCAL/MOL
REMARK 924 INTRA-LIGAND FREE ENERGY PREDICTED BY IDOCK:   -0.27 KCAL/MOL
REMARK 927      BINDING AFFINITY PREDICTED BY RF-SCORE:    0.00 PKD
ROOT
HETATM    1  C   UNL     1      -9.624   5.755  73.204  1.00  0.00    -0.147 C  
HETATM    2  N   UNL     1      -9.169   6.729  72.205  1.00  0.00    -0.133 NA 
HETATM    3  C   UNL     1      -8.119   6.127  71.381  1.00  0.00    -0.118 C  
ENDROOT
BRANCH   2   4
HETATM    4  C   UNL     1     -10.319   7.187  71.404  1.00  0.00    -0.196 C  
BRANCH   4   5
HETATM    5  C   UNL     1      -9.932   8.083  70.225  1.00  0.00    -0.189 C  
BRANCH   5   6
HETATM    6  C   UNL     1      -8.926   9.147  70.653  1.00  0.00    -0.244 C  
BRANCH   6   7
HETATM    7  O   UNL     1      -8.063   9.391  69.541  1.00  0.00    -0.097 OA 
BRANCH   7   8
HETATM    8  C   UNL     1      -8.547  10.305  68.673  1.00  0.00    -0.128 A  
HETATM    9  N   UNL     1      -8.820  11.544  69.079  1.00  0.00     0.058 NA 
HETATM   10  N   UNL     1      -9.298  12.135  67.958  1.00  0.00    -0.192 NA 
HETATM   11  C   UNL     1      -9.025   9.203  65.070  1.00  0.00    -0.221 A  
HETATM   12  C   UNL     1      -9.294  11.310  66.850  1.00  0.00    -0.177 A  
HETATM   13  C   UNL     1      -9.682  11.505  65.517  1.00  0.00    -0.259 A  
HETATM   14  C   UNL     1      -8.786  10.094  67.302  1.00  0.00    -0.130 A  
HETATM   15  C   UNL     1      -8.646   9.020  66.404  1.00  0.00    -0.136 A  
HETATM   16  C   UNL     1      -9.537  10.426  64.636  1.00  0.00    -0.360 A  
BRANCH  10  17
HETATM   17  C   UNL     1      -9.674  13.543  68.006  1.00  0.00    -0.228 C  
BRANCH  17  18
HETATM   18  C   UNL     1      -8.475  14.461  68.030  1.00  0.00    -0.164 A  
HETATM   19  C   UNL     1      -8.402  15.575  67.178  1.00  0.00    -0.243 A  
HETATM   20  C   UNL     1      -6.239  16.160  68.081  1.00  0.00    -0.124 A  
HETATM   21  C   UNL     1      -6.311  15.074  68.951  1.00  0.00    -0.090 A  
HETATM   22  C   UNL     1      -7.287  16.414  67.199  1.00  0.00    -0.230 A  
HETATM   23  C   UNL     1      -7.424  14.231  68.929  1.00  0.00    -0.123 A  
ENDBRANCH  17  18
ENDBRANCH  10  17
ENDBRANCH   7   8
ENDBRANCH   6   7
ENDBRANCH   5   6
ENDBRANCH   4   5
ENDBRANCH   2   4
TORSDOF 7
ENDMDL
MODEL      268
REMARK 921   NORMALIZED FREE ENERGY PREDICTED BY IDOCK:   -2.63 KCAL/MOL
REMARK 922        TOTAL FREE ENERGY PREDICTED BY IDOCK:   -4.09 KCAL/MOL
REMARK 923 INTER-LIGAND FREE ENERGY PREDICTED BY IDOCK:   -3.52 KCAL/MOL
REMARK 924 INTRA-LIGAND FREE ENERGY PREDICTED BY IDOCK:   -0.57 KCAL/MOL
REMARK 927      BINDING AFFINITY PREDICTED BY RF-SCORE:    0.00 PKD
ROOT
HETATM    1  C   UNL     1     -14.403   7.715  71.336  1.00  0.00    -0.400 C  
HETATM    2  N   UNL     1     -13.324   8.533  70.772  1.00  0.00     0.331 NA 
HETATM    3  C   UNL     1     -13.428   9.900  71.287  1.00  0.00    -0.280 C  
ENDROOT
BRANCH   2   4
HETATM    4  C   UNL     1     -12.022   7.914  71.082  1.00  0.00    -0.285 C  
BRANCH   4   5
HETATM    5  C   UNL     1     -11.363   8.462  72.349  1.00  0.00    -0.448 C  
BRANCH   5   6
HETATM    6  C   UNL     1     -10.902   7.328  73.259  1.00  0.00    -0.358 C  
BRANCH   6   7
HETATM    7  O   UNL     1     -11.232   6.098  72.612  1.00  0.00    -0.260 OA 
BRANCH   7   8
HETATM    8  C   UNL     1     -10.154   5.421  72.161  1.00  0.00    -0.190 A  
HETATM    9  N   UNL     1      -9.153   6.065  71.563  1.00  0.00    -0.143 NA 
HETATM   10  N   UNL     1      -8.296   5.067  71.240  1.00  0.00    -0.114 NA 
HETATM   11  C   UNL     1     -10.093   1.666  72.728  1.00  0.00    -0.186 A  
HETATM   12  C   UNL     1      -8.716   3.818  71.655  1.00  0.00    -0.098 A  
HETATM   13  C   UNL     1      -8.153   2.539  71.544  1.00  0.00    -0.054 A  
HETATM   14  C   UNL     1      -9.942   4.034  72.281  1.00  0.00    -0.236 A  
HETATM   15  C   UNL     1     -10.647   2.947  72.829  1.00  0.00    -0.175 A  
HETATM   16  C   UNL     1      -8.867   1.467  72.093  1.00  0.00    -0.090 A  
BRANCH  10  17
HETATM   17  C   UNL     1      -7.034   5.400  70.590  1.00  0.00    -0.056 C  
BRANCH  17  18
HETATM   18  C   UNL     1      -7.185   5.596  69.100  1.00  0.00    -0.070 A  
HETATM   19  C   UNL     1      -7.648   6.814  68.575  1.00  0.00    -0.104 A  
HETATM   20  C   UNL     1      -7.465   5.948  66.328  1.00  0.00    -0.086 A  
HETATM   21  C   UNL     1      -6.979   4.743  66.834  1.00  0.00    -0.060 A  
HETATM   22  C   UNL     1      -7.793   6.985  67.198  1.00  0.00    -0.109 A  
HETATM   23  C   UNL     1      -6.836   4.569  68.211  1.00  0.00    -0.051 A  
ENDBRANCH  17  18
ENDBRANCH  10  17
ENDBRANCH   7   8
ENDBRANCH   6   7
ENDBRANCH   5   6
ENDBRANCH   4   5
ENDBRANCH   2   4
TORSDOF 7
ENDMDL
MODEL      269
REMARK 921   NORMALIZED FREE ENERGY PREDICTED BY IDOCK:   -2.32 KCAL/MOL
REMARK 922        TOTAL FREE ENERGY PREDICTED BY IDOCK:   -3.66 KCAL/MOL
REMARK 923 INTER-LIGAND FREE ENERGY PREDICTED BY IDOCK:   -2.97 KCAL/MOL
REMARK 924 INTRA-LIGAND FREE ENERGY PREDICTED BY IDOCK:   -0.69 KCAL/MOL
REMARK 927      BINDING AFFINITY PREDICTED BY RF-SCORE:    0.00 PKD
ROOT
HETATM    1  C   UNL     1      -7.503   4.004  70.711  1.00  0.00    -0.041 C  
HETATM    2  N   UNL     1      -7.730   4.800  71.922  1.00  0.00    -0.095 NA 
HETATM    3  C   UNL     1      -6.442   5.228  72.472  1.00  0.00    -0.051 C  
ENDROOT
BRANCH   2   4
HETATM    4  C   UNL     1      -8.613   5.938  71.607  1.00  0.00    -0.132 C  
BRANCH   4   5
HETATM    5  C   UNL     1     -10.093   5.668  71.888  1.00  0.00    -0.235 C  
BRANCH   5   6
HETATM    6  C   UNL     1     -10.950   6.003  70.672  1.00  0.00    -0.307 C  
BRANCH   6   7
HETATM    7  O   UNL     1     -10.402   5.301  69.555  1.00  0.00    -0.253 OA 
BRANCH   7   8
HETATM    8  C   UNL     1     -10.010   6.111  68.549  1.00  0.00    -0.147 A  
HETATM    9  N   UNL     1     -10.119   7.434  68.665  1.00  0.00    -0.174 NA 
HETATM   10  N   UNL     1      -9.661   7.884  67.473  1.00  0.00    -0.147 NA 
HETATM   11  C   UNL     1      -8.554   4.464  65.452  1.00  0.00    -0.122 A  
HETATM   12  C   UNL     1      -9.231   6.881  66.627  1.00  0.00    -0.157 A  
HETATM   13  C   UNL     1      -8.688   6.893  65.334  1.00  0.00     0.010 A  
HETATM   14  C   UNL     1      -9.442   5.696  67.330  1.00  0.00    -0.115 A  
HETATM   15  C   UNL     1      -9.100   4.466  66.739  1.00  0.00    -0.133 A  
HETATM   16  C   UNL     1      -8.354   5.659  64.762  1.00  0.00    -0.128 A  
BRANCH  10  17
HETATM   17  C   UNL     1      -9.591   9.322  67.239  1.00  0.00    -0.155 C  
BRANCH  17  18
HETATM   18  C   UNL     1      -8.412   9.964  67.932  1.00  0.00    -0.121 A  
HETATM   19  C   UNL     1      -8.282   9.916  69.329  1.00  0.00    -0.138 A  
HETATM   20  C   UNL     1      -6.217  11.163  69.209  1.00  0.00    -0.066 A  
HETATM   21  C   UNL     1      -6.320  11.195  67.819  1.00  0.00    -0.055 A  
HETATM   22  C   UNL     1      -7.194  10.518  69.963  1.00  0.00    -0.105 A  
HETATM   23  C   UNL     1      -7.408  10.596  67.183  1.00  0.00    -0.098 A  
ENDBRANCH  17  18
ENDBRANCH  10  17
ENDBRANCH   7   8
ENDBRANCH   6   7
ENDBRANCH   5   6
ENDBRANCH   4   5
ENDBRANCH   2   4
TORSDOF 7
ENDMDL
MODEL      270
REMARK 921   NORMALIZED FREE ENERGY PREDICTED BY IDOCK:   -2.26 KCAL/MOL
REMARK 922        TOTAL FREE ENERGY PREDICTED BY IDOCK:   -3.57 KCAL/MOL
REMARK 923 INTER-LIGAND FREE ENERGY PREDICTED BY IDOCK:   -3.10 KCAL/MOL
REMARK 924 INTRA-LIGAND FREE ENERGY PREDICTED BY IDOCK:   -0.47 KCAL/MOL
REMARK 927      BINDING AFFINITY PREDICTED BY RF-SCORE:    0.00 PKD
ROOT
HETATM    1  C   UNL     1     -12.807  11.152  71.671  1.00  0.00    -0.419 C  
HETATM    2  N   UNL     1     -12.830   9.777  72.182  1.00  0.00    -0.383 NA 
HETATM    3  C   UNL     1     -14.163   9.473  72.704  1.00  0.00     0.181 C  
ENDROOT
BRANCH   2   4
HETATM    4  C   UNL     1     -12.419   8.847  71.114  1.00  0.00    -0.214 C  
BRANCH   4   5
HETATM    5  C   UNL     1     -10.907   8.617  71.043  1.00  0.00    -0.302 C  
BRANCH   5   6
HETATM    6  C   UNL     1     -10.330   9.173  69.746  1.00  0.00    -0.215 C  
BRANCH   6   7
HETATM    7  O   UNL     1      -9.035   9.699  70.043  1.00  0.00    -0.207 OA 
BRANCH   7   8
HETATM    8  C   UNL     1      -8.141   9.523  69.047  1.00  0.00    -0.101 A  
HETATM    9  N   UNL     1      -7.889   8.305  68.572  1.00  0.00    -0.118 NA 
HETATM   10  N   UNL     1      -6.945   8.534  67.629  1.00  0.00    -0.077 NA 
HETATM   11  C   UNL     1      -6.456  12.628  67.652  1.00  0.00    -0.146 A  
HETATM   12  C   UNL     1      -6.627   9.869  67.472  1.00  0.00    -0.069 A  
HETATM   13  C   UNL     1      -5.733  10.541  66.627  1.00  0.00    -0.060 A  
HETATM   14  C   UNL     1      -7.422  10.544  68.397  1.00  0.00    -0.092 A  
HETATM   15  C   UNL     1      -7.340  11.945  68.493  1.00  0.00    -0.111 A  
HETATM   16  C   UNL     1      -5.665  11.936  66.736  1.00  0.00    -0.060 A  
BRANCH  10  17
HETATM   17  C   UNL     1      -6.439   7.411  66.847  1.00  0.00    -0.056 C  
BRANCH  17  18
HETATM   18  C   UNL     1      -7.316   6.187  66.959  1.00  0.00    -0.083 A  
HETATM   19  C   UNL     1      -8.567   6.134  66.324  1.00  0.00    -0.136 A  
HETATM   20  C   UNL     1      -8.940   3.905  67.177  1.00  0.00    -0.152 A  
HETATM   21  C   UNL     1      -7.689   3.933  67.790  1.00  0.00    -0.071 A  
HETATM   22  C   UNL     1      -9.376   5.002  66.439  1.00  0.00    -0.145 A  
HETATM   23  C   UNL     1      -6.879   5.065  67.680  1.00  0.00    -0.060 A  
ENDBRANCH  17  18
ENDBRANCH  10  17
ENDBRANCH   7   8
ENDBRANCH   6   7
ENDBRANCH   5   6
ENDBRANCH   4   5
ENDBRANCH   2   4
TORSDOF 7
ENDMDL
MODEL      271
REMARK 921   NORMALIZED FREE ENERGY PREDICTED BY IDOCK:   -2.16 KCAL/MOL
REMARK 922        TOTAL FREE ENERGY PREDICTED BY IDOCK:   -3.44 KCAL/MOL
REMARK 923 INTER-LIGAND FREE ENERGY PREDICTED BY IDOCK:   -2.80 KCAL/MOL
REMARK 924 INTRA-LIGAND FREE ENERGY PREDICTED BY IDOCK:   -0.64 KCAL/MOL
REMARK 927      BINDING AFFINITY PREDICTED BY RF-SCORE:    0.00 PKD
ROOT
HETATM    1  C   UNL     1     -13.069  10.788  71.662  1.00  0.00    -0.446 C  
HETATM    2  N   UNL     1     -12.567   9.455  72.011  1.00  0.00    -0.383 NA 
HETATM    3  C   UNL     1     -13.538   8.777  72.872  1.00  0.00    -0.009 C  
ENDROOT
BRANCH   2   4
HETATM    4  C   UNL     1     -12.284   8.697  70.778  1.00  0.00    -0.012 C  
BRANCH   4   5
HETATM    5  C   UNL     1     -10.945   9.053  70.127  1.00  0.00    -0.256 C  
BRANCH   5   6
HETATM    6  C   UNL     1     -11.141   9.493  68.680  1.00  0.00     0.012 C  
BRANCH   6   7
HETATM    7  O   UNL     1      -9.864   9.443  68.041  1.00  0.00    -0.154 OA 
BRANCH   7   8
HETATM    8  C   UNL     1      -9.023  10.421  68.440  1.00  0.00    -0.137 A  
HETATM    9  N   UNL     1      -9.360  11.702  68.296  1.00  0.00    -0.187 NA 
HETATM   10  N   UNL     1      -8.276  12.358  68.776  1.00  0.00     0.020 NA 
HETATM   11  C   UNL     1      -5.738   9.354  70.019  1.00  0.00    -0.035 A  
HETATM   12  C   UNL     1      -7.286  11.521  69.252  1.00  0.00    -0.048 A  
HETATM   13  C   UNL     1      -6.031  11.765  69.830  1.00  0.00    -0.126 A  
HETATM   14  C   UNL     1      -7.769  10.230  69.051  1.00  0.00    -0.110 A  
HETATM   15  C   UNL     1      -6.989   9.126  69.437  1.00  0.00    -0.052 A  
HETATM   16  C   UNL     1      -5.267  10.654  70.209  1.00  0.00    -0.055 A  
BRANCH  10  17
HETATM   17  C   UNL     1      -8.293  13.815  68.818  1.00  0.00     0.014 C  
BRANCH  17  18
HETATM   18  C   UNL     1      -9.662  14.386  68.535  1.00  0.00    -0.225 A  
HETATM   19  C   UNL     1     -10.571  14.633  69.576  1.00  0.00    -0.166 A  
HETATM   20  C   UNL     1     -12.207  15.445  67.996  1.00  0.00     0.350 A  
HETATM   21  C   UNL     1     -11.305  15.230  66.955  1.00  0.00    -0.209 A  
HETATM   22  C   UNL     1     -11.838  15.153  69.306  1.00  0.00    -0.347 A  
HETATM   23  C   UNL     1     -10.039  14.707  67.222  1.00  0.00    -0.236 A  
ENDBRANCH  17  18
ENDBRANCH  10  17
ENDBRANCH   7   8
ENDBRANCH   6   7
ENDBRANCH   5   6
ENDBRANCH   4   5
ENDBRANCH   2   4
TORSDOF 7
ENDMDL
MODEL      272
REMARK 921   NORMALIZED FREE ENERGY PREDICTED BY IDOCK:   -1.93 KCAL/MOL
REMARK 922        TOTAL FREE ENERGY PREDICTED BY IDOCK:   -3.11 KCAL/MOL
REMARK 923 INTER-LIGAND FREE ENERGY PREDICTED BY IDOCK:   -3.14 KCAL/MOL
REMARK 924 INTRA-LIGAND FREE ENERGY PREDICTED BY IDOCK:    0.03 KCAL/MOL
REMARK 927      BINDING AFFINITY PREDICTED BY RF-SCORE:    0.00 PKD
ROOT
HETATM    1  C   UNL     1     -10.724   5.657  71.381  1.00  0.00    -0.244 C  
HETATM    2  N   UNL     1      -9.392   5.357  70.845  1.00  0.00    -0.153 NA 
HETATM    3  C   UNL     1      -9.497   4.290  69.848  1.00  0.00    -0.189 C  
ENDROOT
BRANCH   2   4
HETATM    4  C   UNL     1      -8.795   6.586  70.292  1.00  0.00    -0.151 C  
BRANCH   4   5
HETATM    5  C   UNL     1      -9.531   7.866  70.693  1.00  0.00    -0.162 C  
BRANCH   5   6
HETATM    6  C   UNL     1      -8.752   9.104  70.260  1.00  0.00    -0.200 C  
BRANCH   6   7
HETATM    7  O   UNL     1      -8.253   8.856  68.944  1.00  0.00    -0.114 OA 
BRANCH   7   8
HETATM    8  C   UNL     1      -8.707   9.732  68.023  1.00  0.00    -0.118 A  
HETATM    9  N   UNL     1      -8.015   9.959  66.907  1.00  0.00    -0.109 NA 
HETATM   10  N   UNL     1      -8.761  10.892  66.269  1.00  0.00    -0.165 NA 
HETATM   11  C   UNL     1     -12.024  11.441  68.730  1.00  0.00    -0.353 A  
HETATM   12  C   UNL     1      -9.923  11.227  66.937  1.00  0.00    -0.207 A  
HETATM   13  C   UNL     1     -10.966  12.117  66.644  1.00  0.00    -0.325 A  
HETATM   14  C   UNL     1      -9.912  10.457  68.098  1.00  0.00    -0.170 A  
HETATM   15  C   UNL     1     -10.975  10.560  69.013  1.00  0.00    -0.289 A  
HETATM   16  C   UNL     1     -12.016  12.208  67.565  1.00  0.00    -0.175 A  
BRANCH  10  17
HETATM   17  C   UNL     1      -8.329  11.369  64.960  1.00  0.00     0.509 C  
BRANCH  17  18
HETATM   18  C   UNL     1      -7.899  10.245  64.048  1.00  0.00    -0.114 A  
HETATM   19  C   UNL     1      -8.662   9.071  63.939  1.00  0.00    -0.110 A  
HETATM   20  C   UNL     1      -7.087   8.160  62.350  1.00  0.00    -0.090 A  
HETATM   21  C   UNL     1      -6.335   9.331  62.428  1.00  0.00    -0.093 A  
HETATM   22  C   UNL     1      -8.253   8.033  63.100  1.00  0.00    -0.059 A  
HETATM   23  C   UNL     1      -6.739  10.369  63.268  1.00  0.00    -0.058 A  
ENDBRANCH  17  18
ENDBRANCH  10  17
ENDBRANCH   7   8
ENDBRANCH   6   7
ENDBRANCH   5   6
ENDBRANCH   4   5
ENDBRANCH   2   4
TORSDOF 7
ENDMDL
MODEL      273
REMARK 921   NORMALIZED FREE ENERGY PREDICTED BY IDOCK:   -1.42 KCAL/MOL
REMARK 922        TOTAL FREE ENERGY PREDICTED BY IDOCK:   -2.39 KCAL/MOL
REMARK 923 INTER-LIGAND FREE ENERGY PREDICTED BY IDOCK:   -3.87 KCAL/MOL
REMARK 924 INTRA-LIGAND FREE ENERGY PREDICTED BY IDOCK:    1.48 KCAL/MOL
REMARK 927      BINDING AFFINITY PREDICTED BY RF-SCORE:    0.00 PKD
ROOT
HETATM    1  C   UNL     1      -9.589  17.321  65.706  1.00  0.00     0.066 C  
HETATM    2  N   UNL     1      -8.220  17.348  66.231  1.00  0.00    -0.411 NA 
HETATM    3  C   UNL     1      -7.423  18.308  65.465  1.00  0.00     0.216 C  
ENDROOT
BRANCH   2   4
HETATM    4  C   UNL     1      -8.250  17.664  67.671  1.00  0.00    -0.224 C  
BRANCH   4   5
HETATM    5  C   UNL     1      -6.907  18.146  68.226  1.00  0.00    -0.229 C  
BRANCH   5   6
HETATM    6  C   UNL     1      -6.106  16.984  68.803  1.00  0.00    -0.152 C  
BRANCH   6   7
HETATM    7  O   UNL     1      -6.896  16.389  69.834  1.00  0.00    -0.103 OA 
BRANCH   7   8
HETATM    8  C   UNL     1      -7.653  15.357  69.405  1.00  0.00    -0.224 A  
HETATM    9  N   UNL     1      -7.093  14.184  69.113  1.00  0.00    -0.112 NA 
HETATM   10  N   UNL     1      -8.146  13.436  68.705  1.00  0.00    -0.091 NA 
HETATM   11  C   UNL     1     -11.396  15.938  69.134  1.00  0.00    -0.366 A  
HETATM   12  C   UNL     1      -9.357  14.098  68.770  1.00  0.00    -0.092 A  
HETATM   13  C   UNL     1     -10.669  13.713  68.461  1.00  0.00    -0.269 A  
HETATM   14  C   UNL     1      -9.052  15.371  69.246  1.00  0.00    -0.260 A  
HETATM   15  C   UNL     1     -10.082  16.310  69.433  1.00  0.00    -0.253 A  
HETATM   16  C   UNL     1     -11.683  14.660  68.653  1.00  0.00    -0.362 A  
BRANCH  10  17
HETATM   17  C   UNL     1      -7.923  12.044  68.332  1.00  0.00    -0.152 C  
BRANCH  17  18
HETATM   18  C   UNL     1      -8.966  11.528  67.370  1.00  0.00    -0.156 A  
HETATM   19  C   UNL     1      -9.860  10.514  67.749  1.00  0.00    -0.188 A  
HETATM   20  C   UNL     1     -10.901  10.576  65.570  1.00  0.00     0.077 A  
HETATM   21  C   UNL     1     -10.037  11.602  65.189  1.00  0.00    -0.304 A  
HETATM   22  C   UNL     1     -10.817  10.037  66.851  1.00  0.00    -0.152 A  
HETATM   23  C   UNL     1      -9.078  12.079  66.084  1.00  0.00    -0.129 A  
ENDBRANCH  17  18
ENDBRANCH  10  17
ENDBRANCH   7   8
ENDBRANCH   6   7
ENDBRANCH   5   6
ENDBRANCH   4   5
ENDBRANCH   2   4
TORSDOF 7
ENDMDL
MODEL      274
REMARK 921   NORMALIZED FREE ENERGY PREDICTED BY IDOCK:   19.49 KCAL/MOL
REMARK 922        TOTAL FREE ENERGY PREDICTED BY IDOCK:   27.07 KCAL/MOL
REMARK 923 INTER-LIGAND FREE ENERGY PREDICTED BY IDOCK:    7.65 KCAL/MOL
REMARK 924 INTRA-LIGAND FREE ENERGY PREDICTED BY IDOCK:   19.43 KCAL/MOL
REMARK 927      BINDING AFFINITY PREDICTED BY RF-SCORE:    0.00 PKD
ROOT
HETATM    1  C   UNL     1      -7.657  15.046  66.087  1.00  0.00     2.225 C  
HETATM    2  N   UNL     1      -6.982  16.139  66.796  1.00  0.00    -0.233 NA 
HETATM    3  C   UNL     1      -7.191  17.393  66.070  1.00  0.00    -0.234 C  
ENDROOT
BRANCH   2   4
HETATM    4  C   UNL     1      -7.474  16.204  68.184  1.00  0.00    -0.132 C  
BRANCH   4   5
HETATM    5  C   UNL     1      -6.683  17.165  69.076  1.00  0.00    -0.227 C  
BRANCH   5   6
HETATM    6  C   UNL     1      -5.242  16.692  69.245  1.00  0.00    -0.130 C  
BRANCH   6   7
HETATM    7  O   UNL     1      -5.188  15.903  70.435  1.00  0.00    -0.143 OA 
BRANCH   7   8
HETATM    8  C   UNL     1      -5.969  14.803  70.388  1.00  0.00    -0.159 A  
HETATM    9  N   UNL     1      -5.597  13.683  71.004  1.00  0.00    -0.194 NA 
HETATM   10  N   UNL     1      -6.602  12.824  70.711  1.00  0.00     0.581 NA 
HETATM   11  C   UNL     1      -9.252  15.079  68.497  1.00  0.00    -0.192 A  
HETATM   12  C   UNL     1      -7.614  13.388  69.960  1.00  0.00     1.500 A  
HETATM   13  C   UNL     1      -8.819  12.881  69.452  1.00  0.00     1.259 A  
HETATM   14  C   UNL     1      -7.219  14.707  69.747  1.00  0.00    -0.058 A  
HETATM   15  C   UNL     1      -8.045  15.571  69.006  1.00  0.00    -0.220 A  
HETATM   16  C   UNL     1      -9.629  13.754  68.716  1.00  0.00    -0.044 A  
BRANCH  10  17
HETATM   17  C   UNL     1      -6.561  11.473  71.260  1.00  0.00     2.381 C  
BRANCH  17  18
HETATM   18  C   UNL     1      -7.573  10.556  70.615  1.00  0.00     1.114 A  
HETATM   19  C   UNL     1      -8.431   9.765  71.395  1.00  0.00     1.257 A  
HETATM   20  C   UNL     1      -9.448   8.852  69.403  1.00  0.00    -0.161 A  
HETATM   21  C   UNL     1      -8.621   9.653  68.617  1.00  0.00    -0.120 A  
HETATM   22  C   UNL     1      -9.358   8.913  70.791  1.00  0.00    -0.280 A  
HETATM   23  C   UNL     1      -7.691  10.502  69.218  1.00  0.00    -0.144 A  
ENDBRANCH  17  18
ENDBRANCH  10  17
ENDBRANCH   7   8
ENDBRANCH   6   7
ENDBRANCH   5   6
ENDBRANCH   4   5
ENDBRANCH   2   4
TORSDOF 7
ENDMDL
