MODEL        1
REMARK 921   NORMALIZED FREE ENERGY PREDICTED BY IDOCK:   -6.39 KCAL/MOL
REMARK 922        TOTAL FREE ENERGY PREDICTED BY IDOCK:  -12.15 KCAL/MOL
REMARK 923 INTER-LIGAND FREE ENERGY PREDICTED BY IDOCK:  -10.88 KCAL/MOL
REMARK 924 INTRA-LIGAND FREE ENERGY PREDICTED BY IDOCK:   -1.27 KCAL/MOL
REMARK 927      BINDING AFFINITY PREDICTED BY RF-SCORE:    0.00 PKD
ROOT
HETATM    1  C   UNL     1     -11.034   6.658  66.962  1.00  0.00    -0.463 C  
HETATM    2  C   UNL     1      -9.904   7.539  67.511  1.00  0.00    -0.209 C  
HETATM    3  C   UNL     1      -8.756   6.658  68.022  1.00  0.00    -0.117 C  
HETATM    4  C   UNL     1      -9.346   8.341  66.304  1.00  0.00    -0.267 C  
ENDROOT
BRANCH   2   5
HETATM    5  C   UNL     1     -10.394   8.577  68.572  1.00  0.00    -0.230 C  
BRANCH   5   6
HETATM    6  C   UNL     1     -10.627   8.258  70.099  1.00  0.00    -0.233 C  
HETATM    7  C   UNL     1      -9.316   8.247  70.917  1.00  0.00    -0.187 C  
HETATM    8  C   UNL     1     -11.298   6.886  70.313  1.00  0.00    -0.373 C  
BRANCH   6   9
HETATM    9  C   UNL     1     -11.510   9.402  70.669  1.00  0.00    -0.344 A  
HETATM   10  C   UNL     1     -11.418  10.736  70.234  1.00  0.00    -0.406 A  
HETATM   11  C   UNL     1     -12.233  11.735  70.769  1.00  0.00    -0.424 A  
HETATM   12  C   UNL     1     -13.155  11.436  71.764  1.00  0.00    -0.418 A  
HETATM   13  C   UNL     1     -12.447   9.127  71.688  1.00  0.00    -0.434 A  
HETATM   14  C   UNL     1     -13.256  10.130  72.234  1.00  0.00    -0.359 A  
BRANCH  12  15
HETATM   15  O   UNL     1     -13.870  12.509  72.221  1.00  0.00    -0.406 OA 
BRANCH  15  16
HETATM   16  C   UNL     1     -13.166  13.741  72.302  1.00  0.00    -0.467 C  
BRANCH  16  17
HETATM   17  C   UNL     1     -13.971  14.797  71.540  1.00  0.00    -0.467 C  
BRANCH  17  18
HETATM   18  O   UNL     1     -13.204  15.672  70.705  1.00  0.00    -0.487 OA 
BRANCH  18  19
HETATM   19  C   UNL     1     -11.940  15.194  70.253  1.00  0.00    -0.319 C  
BRANCH  19  20
HETATM   20  C   UNL     1     -11.646  15.641  68.815  1.00  0.00    -0.384 C  
BRANCH  20  21
HETATM   21  N   UNL     1     -10.918  14.612  67.938  1.00  0.00    -0.269 N  
HETATM   22  C   UNL     1     -10.482  15.348  66.664  1.00  0.00    -0.293 C  
HETATM   23  C   UNL     1      -9.664  14.108  68.643  1.00  0.00    -0.196 C  
BRANCH  21  24
HETATM   24  C   UNL     1     -11.873  13.446  67.569  1.00  0.00    -0.366 C  
BRANCH  24  25
HETATM   25  C   UNL     1     -11.680  12.867  66.193  1.00  0.00    -0.451 A  
HETATM   26  C   UNL     1     -10.741  11.844  65.988  1.00  0.00    -0.326 A  
HETATM   27  C   UNL     1     -10.445  11.408  64.698  1.00  0.00    -0.373 A  
HETATM   28  C   UNL     1     -11.096  11.973  63.605  1.00  0.00    -0.525 A  
HETATM   29  C   UNL     1     -12.072  12.947  63.799  1.00  0.00    -0.583 A  
HETATM   30  C   UNL     1     -12.375  13.384  65.089  1.00  0.00    -0.501 A  
ENDBRANCH  24  25
ENDBRANCH  21  24
ENDBRANCH  20  21
ENDBRANCH  19  20
ENDBRANCH  18  19
ENDBRANCH  17  18
ENDBRANCH  16  17
ENDBRANCH  15  16
ENDBRANCH  12  15
ENDBRANCH   6   9
ENDBRANCH   5   6
ENDBRANCH   2   5
TORSDOF 12
ENDMDL
MODEL        2
REMARK 921   NORMALIZED FREE ENERGY PREDICTED BY IDOCK:   -6.12 KCAL/MOL
REMARK 922        TOTAL FREE ENERGY PREDICTED BY IDOCK:  -11.68 KCAL/MOL
REMARK 923 INTER-LIGAND FREE ENERGY PREDICTED BY IDOCK:  -10.41 KCAL/MOL
REMARK 924 INTRA-LIGAND FREE ENERGY PREDICTED BY IDOCK:   -1.28 KCAL/MOL
REMARK 927      BINDING AFFINITY PREDICTED BY RF-SCORE:    0.00 PKD
ROOT
HETATM    1  C   UNL     1     -10.290   8.766  71.890  1.00  0.00    -0.414 C  
HETATM    2  C   UNL     1     -11.585   8.940  71.085  1.00  0.00    -0.360 C  
HETATM    3  C   UNL     1     -12.112   7.568  70.642  1.00  0.00    -0.116 C  
HETATM    4  C   UNL     1     -12.637   9.526  72.064  1.00  0.00    -0.456 C  
ENDROOT
BRANCH   2   5
HETATM    5  C   UNL     1     -11.441   9.949  69.899  1.00  0.00    -0.234 C  
BRANCH   5   6
HETATM    6  C   UNL     1     -10.321   9.878  68.792  1.00  0.00    -0.222 C  
HETATM    7  C   UNL     1     -10.139   8.458  68.211  1.00  0.00    -0.232 C  
HETATM    8  C   UNL     1      -8.943  10.321  69.326  1.00  0.00    -0.190 C  
BRANCH   6   9
HETATM    9  C   UNL     1     -10.782  10.793  67.624  1.00  0.00    -0.305 A  
HETATM   10  C   UNL     1     -10.394  10.589  66.288  1.00  0.00    -0.276 A  
HETATM   11  C   UNL     1     -10.835  11.430  65.265  1.00  0.00    -0.297 A  
HETATM   12  C   UNL     1     -11.663  12.510  65.546  1.00  0.00    -0.409 A  
HETATM   13  C   UNL     1     -11.615  11.901  67.884  1.00  0.00    -0.393 A  
HETATM   14  C   UNL     1     -12.046  12.753  66.861  1.00  0.00    -0.267 A  
BRANCH  12  15
HETATM   15  O   UNL     1     -11.998  13.271  64.460  1.00  0.00    -0.366 OA 
BRANCH  15  16
HETATM   16  C   UNL     1     -12.180  14.659  64.700  1.00  0.00    -0.434 C  
BRANCH  16  17
HETATM   17  C   UNL     1     -10.796  15.303  64.821  1.00  0.00    -0.358 C  
BRANCH  17  18
HETATM   18  O   UNL     1     -10.793  16.717  65.051  1.00  0.00    -0.653 OA 
BRANCH  18  19
HETATM   19  C   UNL     1     -10.279  17.170  66.300  1.00  0.00    -0.334 C  
BRANCH  19  20
HETATM   20  C   UNL     1     -10.128  16.017  67.302  1.00  0.00    -0.266 C  
BRANCH  20  21
HETATM   21  N   UNL     1     -10.391  16.379  68.771  1.00  0.00    -0.257 N  
HETATM   22  C   UNL     1      -9.551  15.417  69.620  1.00  0.00    -0.229 C  
HETATM   23  C   UNL     1      -9.918  17.798  69.060  1.00  0.00    -0.264 C  
BRANCH  21  24
HETATM   24  C   UNL     1     -11.896  16.199  69.109  1.00  0.00    -0.178 C  
BRANCH  24  25
HETATM   25  C   UNL     1     -12.183  15.525  70.424  1.00  0.00    -0.443 A  
HETATM   26  C   UNL     1     -12.780  14.255  70.446  1.00  0.00    -0.355 A  
HETATM   27  C   UNL     1     -13.189  13.690  71.651  1.00  0.00    -0.447 A  
HETATM   28  C   UNL     1     -12.987  14.375  72.846  1.00  0.00    -0.575 A  
HETATM   29  C   UNL     1     -12.342  15.609  72.844  1.00  0.00    -0.552 A  
HETATM   30  C   UNL     1     -11.927  16.178  71.640  1.00  0.00    -0.528 A  
ENDBRANCH  24  25
ENDBRANCH  21  24
ENDBRANCH  20  21
ENDBRANCH  19  20
ENDBRANCH  18  19
ENDBRANCH  17  18
ENDBRANCH  16  17
ENDBRANCH  15  16
ENDBRANCH  12  15
ENDBRANCH   6   9
ENDBRANCH   5   6
ENDBRANCH   2   5
TORSDOF 12
ENDMDL
MODEL        3
REMARK 921   NORMALIZED FREE ENERGY PREDICTED BY IDOCK:   -6.12 KCAL/MOL
REMARK 922        TOTAL FREE ENERGY PREDICTED BY IDOCK:  -11.68 KCAL/MOL
REMARK 923 INTER-LIGAND FREE ENERGY PREDICTED BY IDOCK:   -9.83 KCAL/MOL
REMARK 924 INTRA-LIGAND FREE ENERGY PREDICTED BY IDOCK:   -1.85 KCAL/MOL
REMARK 927      BINDING AFFINITY PREDICTED BY RF-SCORE:    0.00 PKD
ROOT
HETATM    1  C   UNL     1     -11.033   6.830  67.157  1.00  0.00    -0.458 C  
HETATM    2  C   UNL     1      -9.996   7.317  68.178  1.00  0.00    -0.181 C  
HETATM    3  C   UNL     1      -9.549   6.148  69.066  1.00  0.00    -0.144 C  
HETATM    4  C   UNL     1      -8.751   7.760  67.363  1.00  0.00    -0.128 C  
ENDROOT
BRANCH   2   5
HETATM    5  C   UNL     1     -10.478   8.557  69.000  1.00  0.00    -0.216 C  
BRANCH   5   6
HETATM    6  C   UNL     1     -11.004   8.499  70.485  1.00  0.00    -0.263 C  
HETATM    7  C   UNL     1      -9.865   8.359  71.521  1.00  0.00    -0.274 C  
HETATM    8  C   UNL     1     -11.966   7.317  70.719  1.00  0.00    -0.311 C  
BRANCH   6   9
HETATM    9  C   UNL     1     -11.711   9.853  70.767  1.00  0.00    -0.424 A  
HETATM   10  C   UNL     1     -12.662  10.027  71.788  1.00  0.00    -0.526 A  
HETATM   11  C   UNL     1     -13.272  11.262  72.013  1.00  0.00    -0.437 A  
HETATM   12  C   UNL     1     -12.964  12.358  71.215  1.00  0.00    -0.203 A  
HETATM   13  C   UNL     1     -11.423  10.978  69.965  1.00  0.00    -0.398 A  
HETATM   14  C   UNL     1     -12.045  12.213  70.181  1.00  0.00    -0.368 A  
BRANCH  12  15
HETATM   15  O   UNL     1     -13.653  13.499  71.523  1.00  0.00    -0.295 OA 
BRANCH  15  16
HETATM   16  C   UNL     1     -13.278  14.150  72.729  1.00  0.00    -0.509 C  
BRANCH  16  17
HETATM   17  C   UNL     1     -12.502  15.417  72.361  1.00  0.00    -0.379 C  
BRANCH  17  18
HETATM   18  O   UNL     1     -12.577  15.807  70.984  1.00  0.00    -0.451 OA 
BRANCH  18  19
HETATM   19  C   UNL     1     -11.346  15.962  70.286  1.00  0.00    -0.372 C  
BRANCH  19  20
HETATM   20  C   UNL     1     -11.559  16.013  68.767  1.00  0.00    -0.351 C  
BRANCH  20  21
HETATM   21  N   UNL     1     -10.382  16.569  67.952  1.00  0.00    -0.284 N  
HETATM   22  C   UNL     1     -10.647  18.068  67.761  1.00  0.00    -0.394 C  
HETATM   23  C   UNL     1      -9.080  16.416  68.730  1.00  0.00    -0.244 C  
BRANCH  21  24
HETATM   24  C   UNL     1     -10.306  15.869  66.568  1.00  0.00    -0.300 C  
BRANCH  24  25
HETATM   25  C   UNL     1     -10.527  14.381  66.588  1.00  0.00    -0.274 A  
HETATM   26  C   UNL     1      -9.488  13.522  66.980  1.00  0.00    -0.251 A  
HETATM   27  C   UNL     1      -9.631  12.142  66.856  1.00  0.00    -0.210 A  
HETATM   28  C   UNL     1     -10.816  11.606  66.361  1.00  0.00    -0.333 A  
HETATM   29  C   UNL     1     -11.877  12.444  66.026  1.00  0.00    -0.459 A  
HETATM   30  C   UNL     1     -11.740  13.826  66.151  1.00  0.00    -0.392 A  
ENDBRANCH  24  25
ENDBRANCH  21  24
ENDBRANCH  20  21
ENDBRANCH  19  20
ENDBRANCH  18  19
ENDBRANCH  17  18
ENDBRANCH  16  17
ENDBRANCH  15  16
ENDBRANCH  12  15
ENDBRANCH   6   9
ENDBRANCH   5   6
ENDBRANCH   2   5
TORSDOF 12
ENDMDL
MODEL        4
REMARK 921   NORMALIZED FREE ENERGY PREDICTED BY IDOCK:   -6.11 KCAL/MOL
REMARK 922        TOTAL FREE ENERGY PREDICTED BY IDOCK:  -11.66 KCAL/MOL
REMARK 923 INTER-LIGAND FREE ENERGY PREDICTED BY IDOCK:  -10.79 KCAL/MOL
REMARK 924 INTRA-LIGAND FREE ENERGY PREDICTED BY IDOCK:   -0.87 KCAL/MOL
REMARK 927      BINDING AFFINITY PREDICTED BY RF-SCORE:    0.00 PKD
ROOT
HETATM    1  C   UNL     1      -8.671   7.063  72.351  1.00  0.00    -0.136 C  
HETATM    2  C   UNL     1     -10.056   6.750  72.933  1.00  0.00    -0.201 C  
HETATM    3  C   UNL     1     -10.534   5.379  72.435  1.00  0.00    -0.267 C  
HETATM    4  C   UNL     1      -9.870   6.626  74.469  1.00  0.00    -0.324 C  
ENDROOT
BRANCH   2   5
HETATM    5  C   UNL     1     -11.100   7.887  72.681  1.00  0.00    -0.447 C  
BRANCH   5   6
HETATM    6  C   UNL     1     -11.860   8.123  71.320  1.00  0.00    -0.317 C  
HETATM    7  C   UNL     1     -13.206   7.368  71.245  1.00  0.00    -0.342 C  
HETATM    8  C   UNL     1     -11.028   7.672  70.102  1.00  0.00    -0.255 C  
BRANCH   6   9
HETATM    9  C   UNL     1     -12.183   9.640  71.241  1.00  0.00    -0.452 A  
HETATM   10  C   UNL     1     -13.133  10.269  72.065  1.00  0.00    -0.529 A  
HETATM   11  C   UNL     1     -13.391  11.637  71.967  1.00  0.00    -0.405 A  
HETATM   12  C   UNL     1     -12.721  12.417  71.032  1.00  0.00    -0.223 A  
HETATM   13  C   UNL     1     -11.524  10.452  70.294  1.00  0.00    -0.406 A  
HETATM   14  C   UNL     1     -11.793  11.821  70.184  1.00  0.00    -0.408 A  
BRANCH  12  15
HETATM   15  O   UNL     1     -13.088  13.735  71.019  1.00  0.00    -0.286 OA 
BRANCH  15  16
HETATM   16  C   UNL     1     -12.741  14.491  72.171  1.00  0.00    -0.333 C  
BRANCH  16  17
HETATM   17  C   UNL     1     -11.953  15.720  71.710  1.00  0.00    -0.467 C  
BRANCH  17  18
HETATM   18  O   UNL     1     -10.786  15.444  70.926  1.00  0.00    -0.323 OA 
BRANCH  18  19
HETATM   19  C   UNL     1     -10.603  16.215  69.743  1.00  0.00    -0.312 C  
BRANCH  19  20
HETATM   20  C   UNL     1     -11.579  15.795  68.636  1.00  0.00    -0.386 C  
BRANCH  20  21
HETATM   21  N   UNL     1     -11.024  14.799  67.607  1.00  0.00    -0.282 N  
HETATM   22  C   UNL     1     -10.606  15.620  66.380  1.00  0.00    -0.308 C  
HETATM   23  C   UNL     1      -9.783  14.106  68.156  1.00  0.00    -0.225 C  
BRANCH  21  24
HETATM   24  C   UNL     1     -12.119  13.774  67.204  1.00  0.00    -0.378 C  
BRANCH  24  25
HETATM   25  C   UNL     1     -11.834  12.989  65.952  1.00  0.00    -0.468 A  
HETATM   26  C   UNL     1     -10.955  11.897  65.993  1.00  0.00    -0.355 A  
HETATM   27  C   UNL     1     -10.567  11.259  64.817  1.00  0.00    -0.376 A  
HETATM   28  C   UNL     1     -11.068  11.693  63.592  1.00  0.00    -0.506 A  
HETATM   29  C   UNL     1     -11.988  12.737  63.543  1.00  0.00    -0.633 A  
HETATM   30  C   UNL     1     -12.382  13.375  64.719  1.00  0.00    -0.444 A  
ENDBRANCH  24  25
ENDBRANCH  21  24
ENDBRANCH  20  21
ENDBRANCH  19  20
ENDBRANCH  18  19
ENDBRANCH  17  18
ENDBRANCH  16  17
ENDBRANCH  15  16
ENDBRANCH  12  15
ENDBRANCH   6   9
ENDBRANCH   5   6
ENDBRANCH   2   5
TORSDOF 12
ENDMDL
MODEL        5
REMARK 921   NORMALIZED FREE ENERGY PREDICTED BY IDOCK:   -6.10 KCAL/MOL
REMARK 922        TOTAL FREE ENERGY PREDICTED BY IDOCK:  -11.65 KCAL/MOL
REMARK 923 INTER-LIGAND FREE ENERGY PREDICTED BY IDOCK:   -9.45 KCAL/MOL
REMARK 924 INTRA-LIGAND FREE ENERGY PREDICTED BY IDOCK:   -2.21 KCAL/MOL
REMARK 927      BINDING AFFINITY PREDICTED BY RF-SCORE:    0.00 PKD
ROOT
HETATM    1  C   UNL     1     -11.148   6.351  68.241  1.00  0.00    -0.359 C  
HETATM    2  C   UNL     1     -10.307   6.516  69.514  1.00  0.00    -0.237 C  
HETATM    3  C   UNL     1     -10.571   5.345  70.470  1.00  0.00    -0.312 C  
HETATM    4  C   UNL     1      -8.821   6.409  69.077  1.00  0.00    -0.129 C  
ENDROOT
BRANCH   2   5
HETATM    5  C   UNL     1     -10.491   7.911  70.196  1.00  0.00    -0.231 C  
BRANCH   5   6
HETATM    6  C   UNL     1     -11.644   8.271  71.208  1.00  0.00    -0.318 C  
HETATM    7  C   UNL     1     -11.229   8.081  72.684  1.00  0.00    -0.462 C  
HETATM    8  C   UNL     1     -12.905   7.410  70.987  1.00  0.00    -0.226 C  
BRANCH   6   9
HETATM    9  C   UNL     1     -11.962   9.779  71.015  1.00  0.00    -0.440 A  
HETATM   10  C   UNL     1     -11.447  10.544  69.953  1.00  0.00    -0.384 A  
HETATM   11  C   UNL     1     -11.760  11.896  69.811  1.00  0.00    -0.403 A  
HETATM   12  C   UNL     1     -12.584  12.532  70.732  1.00  0.00    -0.212 A  
HETATM   13  C   UNL     1     -12.787  10.450  71.942  1.00  0.00    -0.519 A  
HETATM   14  C   UNL     1     -13.090  11.809  71.808  1.00  0.00    -0.480 A  
BRANCH  12  15
HETATM   15  O   UNL     1     -12.787  13.863  70.493  1.00  0.00    -0.284 OA 
BRANCH  15  16
HETATM   16  C   UNL     1     -11.798  14.748  71.000  1.00  0.00    -0.329 C  
BRANCH  16  17
HETATM   17  C   UNL     1     -11.328  15.640  69.848  1.00  0.00    -0.337 C  
BRANCH  17  18
HETATM   18  O   UNL     1     -12.016  15.455  68.605  1.00  0.00    -0.319 OA 
BRANCH  18  19
HETATM   19  C   UNL     1     -11.247  14.991  67.501  1.00  0.00    -0.330 C  
BRANCH  19  20
HETATM   20  C   UNL     1     -11.911  13.791  66.812  1.00  0.00    -0.420 C  
BRANCH  20  21
HETATM   21  N   UNL     1     -11.615  13.641  65.312  1.00  0.00    -0.313 N  
HETATM   22  C   UNL     1     -12.653  12.660  64.753  1.00  0.00    -0.454 C  
HETATM   23  C   UNL     1     -11.797  14.977  64.601  1.00  0.00    -0.375 C  
BRANCH  21  24
HETATM   24  C   UNL     1     -10.186  13.072  65.099  1.00  0.00    -0.272 C  
BRANCH  24  25
HETATM   25  C   UNL     1      -9.811  11.925  65.999  1.00  0.00    -0.258 A  
HETATM   26  C   UNL     1      -8.958  12.141  67.092  1.00  0.00    -0.189 A  
HETATM   27  C   UNL     1      -8.483  11.065  67.839  1.00  0.00    -0.128 A  
HETATM   28  C   UNL     1      -8.870   9.768  67.515  1.00  0.00    -0.129 A  
HETATM   29  C   UNL     1      -9.764   9.545  66.470  1.00  0.00    -0.284 A  
HETATM   30  C   UNL     1     -10.245  10.619  65.722  1.00  0.00    -0.317 A  
ENDBRANCH  24  25
ENDBRANCH  21  24
ENDBRANCH  20  21
ENDBRANCH  19  20
ENDBRANCH  18  19
ENDBRANCH  17  18
ENDBRANCH  16  17
ENDBRANCH  15  16
ENDBRANCH  12  15
ENDBRANCH   6   9
ENDBRANCH   5   6
ENDBRANCH   2   5
TORSDOF 12
ENDMDL
MODEL        6
REMARK 921   NORMALIZED FREE ENERGY PREDICTED BY IDOCK:   -6.09 KCAL/MOL
REMARK 922        TOTAL FREE ENERGY PREDICTED BY IDOCK:  -11.64 KCAL/MOL
REMARK 923 INTER-LIGAND FREE ENERGY PREDICTED BY IDOCK:  -10.74 KCAL/MOL
REMARK 924 INTRA-LIGAND FREE ENERGY PREDICTED BY IDOCK:   -0.90 KCAL/MOL
REMARK 927      BINDING AFFINITY PREDICTED BY RF-SCORE:    0.00 PKD
ROOT
HETATM    1  C   UNL     1     -10.993   6.425  68.502  1.00  0.00    -0.396 C  
HETATM    2  C   UNL     1      -9.921   6.339  69.597  1.00  0.00    -0.201 C  
HETATM    3  C   UNL     1      -9.955   4.952  70.253  1.00  0.00    -0.321 C  
HETATM    4  C   UNL     1      -8.549   6.459  68.880  1.00  0.00    -0.123 C  
ENDROOT
BRANCH   2   5
HETATM    5  C   UNL     1     -10.007   7.505  70.634  1.00  0.00    -0.183 C  
BRANCH   5   6
HETATM    6  C   UNL     1     -11.257   7.804  71.548  1.00  0.00    -0.278 C  
HETATM    7  C   UNL     1     -10.933   7.719  73.056  1.00  0.00    -0.442 C  
HETATM    8  C   UNL     1     -12.419   6.824  71.286  1.00  0.00    -0.365 C  
BRANCH   6   9
HETATM    9  C   UNL     1     -11.690   9.267  71.256  1.00  0.00    -0.416 A  
HETATM   10  C   UNL     1     -11.135  10.043  70.223  1.00  0.00    -0.381 A  
HETATM   11  C   UNL     1     -11.555  11.353  69.990  1.00  0.00    -0.382 A  
HETATM   12  C   UNL     1     -12.530  11.936  70.790  1.00  0.00    -0.291 A  
HETATM   13  C   UNL     1     -12.672   9.885  72.060  1.00  0.00    -0.456 A  
HETATM   14  C   UNL     1     -13.083  11.203  71.836  1.00  0.00    -0.513 A  
BRANCH  12  15
HETATM   15  O   UNL     1     -12.829  13.232  70.473  1.00  0.00    -0.137 OA 
BRANCH  15  16
HETATM   16  C   UNL     1     -13.171  14.079  71.562  1.00  0.00    -0.359 C  
BRANCH  16  17
HETATM   17  C   UNL     1     -13.041  15.530  71.092  1.00  0.00    -0.507 C  
BRANCH  17  18
HETATM   18  O   UNL     1     -11.741  16.113  71.246  1.00  0.00    -0.434 OA 
BRANCH  18  19
HETATM   19  C   UNL     1     -10.799  15.882  70.204  1.00  0.00    -0.353 C  
BRANCH  19  20
HETATM   20  C   UNL     1     -11.481  15.789  68.833  1.00  0.00    -0.378 C  
BRANCH  20  21
HETATM   21  N   UNL     1     -10.843  14.805  67.841  1.00  0.00    -0.263 N  
HETATM   22  C   UNL     1     -10.298  15.642  66.678  1.00  0.00    -0.289 C  
HETATM   23  C   UNL     1      -9.670  14.083  68.493  1.00  0.00    -0.215 C  
BRANCH  21  24
HETATM   24  C   UNL     1     -11.908  13.805  67.315  1.00  0.00    -0.401 C  
BRANCH  24  25
HETATM   25  C   UNL     1     -11.603  13.188  65.977  1.00  0.00    -0.393 A  
HETATM   26  C   UNL     1     -12.182  13.716  64.812  1.00  0.00    -0.440 A  
HETATM   27  C   UNL     1     -12.030  13.063  63.591  1.00  0.00    -0.608 A  
HETATM   28  C   UNL     1     -11.284  11.891  63.516  1.00  0.00    -0.501 A  
HETATM   29  C   UNL     1     -10.654  11.389  64.653  1.00  0.00    -0.380 A  
HETATM   30  C   UNL     1     -10.800  12.041  65.877  1.00  0.00    -0.329 A  
ENDBRANCH  24  25
ENDBRANCH  21  24
ENDBRANCH  20  21
ENDBRANCH  19  20
ENDBRANCH  18  19
ENDBRANCH  17  18
ENDBRANCH  16  17
ENDBRANCH  15  16
ENDBRANCH  12  15
ENDBRANCH   6   9
ENDBRANCH   5   6
ENDBRANCH   2   5
TORSDOF 12
ENDMDL
MODEL        7
REMARK 921   NORMALIZED FREE ENERGY PREDICTED BY IDOCK:   -6.08 KCAL/MOL
REMARK 922        TOTAL FREE ENERGY PREDICTED BY IDOCK:  -11.62 KCAL/MOL
REMARK 923 INTER-LIGAND FREE ENERGY PREDICTED BY IDOCK:   -9.52 KCAL/MOL
REMARK 924 INTRA-LIGAND FREE ENERGY PREDICTED BY IDOCK:   -2.10 KCAL/MOL
REMARK 927      BINDING AFFINITY PREDICTED BY RF-SCORE:    0.00 PKD
ROOT
HETATM    1  C   UNL     1     -10.425   8.087  72.829  1.00  0.00    -0.415 C  
HETATM    2  C   UNL     1     -11.585   7.802  71.866  1.00  0.00    -0.330 C  
HETATM    3  C   UNL     1     -12.066   6.355  72.040  1.00  0.00    -0.353 C  
HETATM    4  C   UNL     1     -12.759   8.718  72.308  1.00  0.00    -0.466 C  
ENDROOT
BRANCH   2   5
HETATM    5  C   UNL     1     -11.253   8.158  70.380  1.00  0.00    -0.221 C  
BRANCH   5   6
HETATM    6  C   UNL     1     -10.308   7.311  69.444  1.00  0.00    -0.212 C  
HETATM    7  C   UNL     1     -11.029   6.109  68.793  1.00  0.00    -0.421 C  
HETATM    8  C   UNL     1      -9.091   6.743  70.202  1.00  0.00    -0.155 C  
BRANCH   6   9
HETATM    9  C   UNL     1      -9.855   8.249  68.291  1.00  0.00    -0.192 A  
HETATM   10  C   UNL     1     -10.367   8.164  66.984  1.00  0.00    -0.403 A  
HETATM   11  C   UNL     1      -9.938   9.030  65.977  1.00  0.00    -0.246 A  
HETATM   12  C   UNL     1      -8.974   9.995  66.238  1.00  0.00    -0.148 A  
HETATM   13  C   UNL     1      -8.871   9.231  68.528  1.00  0.00    -0.129 A  
HETATM   14  C   UNL     1      -8.430  10.090  67.515  1.00  0.00    -0.118 A  
BRANCH  12  15
HETATM   15  O   UNL     1      -8.622  10.758  65.158  1.00  0.00    -0.178 OA 
BRANCH  15  16
HETATM   16  C   UNL     1      -9.022  10.264  63.887  1.00  0.00    -0.237 C  
BRANCH  16  17
HETATM   17  C   UNL     1      -9.805  11.371  63.176  1.00  0.00    -0.388 C  
BRANCH  17  18
HETATM   18  O   UNL     1     -11.207  11.418  63.468  1.00  0.00    -0.391 OA 
BRANCH  18  19
HETATM   19  C   UNL     1     -11.695  12.588  64.118  1.00  0.00    -0.399 C  
BRANCH  19  20
HETATM   20  C   UNL     1     -10.560  13.563  64.458  1.00  0.00    -0.424 C  
BRANCH  20  21
HETATM   21  N   UNL     1     -10.733  14.351  65.764  1.00  0.00    -0.296 N  
HETATM   22  C   UNL     1      -9.569  13.949  66.679  1.00  0.00    -0.289 C  
HETATM   23  C   UNL     1     -10.628  15.848  65.499  1.00  0.00    -0.401 C  
BRANCH  21  24
HETATM   24  C   UNL     1     -12.082  13.984  66.440  1.00  0.00    -0.455 C  
BRANCH  24  25
HETATM   25  C   UNL     1     -11.969  13.361  67.805  1.00  0.00    -0.363 A  
HETATM   26  C   UNL     1     -11.828  11.971  67.933  1.00  0.00    -0.320 A  
HETATM   27  C   UNL     1     -11.876  11.370  69.189  1.00  0.00    -0.413 A  
HETATM   28  C   UNL     1     -12.043  12.151  70.328  1.00  0.00    -0.385 A  
HETATM   29  C   UNL     1     -12.124  13.538  70.221  1.00  0.00    -0.425 A  
HETATM   30  C   UNL     1     -12.073  14.144  68.966  1.00  0.00    -0.348 A  
ENDBRANCH  24  25
ENDBRANCH  21  24
ENDBRANCH  20  21
ENDBRANCH  19  20
ENDBRANCH  18  19
ENDBRANCH  17  18
ENDBRANCH  16  17
ENDBRANCH  15  16
ENDBRANCH  12  15
ENDBRANCH   6   9
ENDBRANCH   5   6
ENDBRANCH   2   5
TORSDOF 12
ENDMDL
MODEL        8
REMARK 921   NORMALIZED FREE ENERGY PREDICTED BY IDOCK:   -6.06 KCAL/MOL
REMARK 922        TOTAL FREE ENERGY PREDICTED BY IDOCK:  -11.58 KCAL/MOL
REMARK 923 INTER-LIGAND FREE ENERGY PREDICTED BY IDOCK:  -10.73 KCAL/MOL
REMARK 924 INTRA-LIGAND FREE ENERGY PREDICTED BY IDOCK:   -0.85 KCAL/MOL
REMARK 927      BINDING AFFINITY PREDICTED BY RF-SCORE:    0.00 PKD
ROOT
HETATM    1  C   UNL     1      -8.438  18.389  66.341  1.00  0.00    -0.264 C  
HETATM    2  C   UNL     1      -9.329  18.897  67.482  1.00  0.00    -0.327 C  
HETATM    3  C   UNL     1      -8.478  19.163  68.731  1.00  0.00    -0.376 C  
HETATM    4  C   UNL     1      -9.891  20.270  67.024  1.00  0.00    -0.607 C  
ENDROOT
BRANCH   2   5
HETATM    5  C   UNL     1     -10.553  17.966  67.767  1.00  0.00    -0.399 C  
BRANCH   5   6
HETATM    6  C   UNL     1     -10.450  16.444  68.164  1.00  0.00    -0.302 C  
HETATM    7  C   UNL     1     -11.299  16.088  69.405  1.00  0.00    -0.355 C  
HETATM    8  C   UNL     1      -9.001  16.019  68.479  1.00  0.00    -0.200 C  
BRANCH   6   9
HETATM    9  C   UNL     1     -11.020  15.626  66.972  1.00  0.00    -0.261 A  
HETATM   10  C   UNL     1     -10.755  15.940  65.627  1.00  0.00    -0.350 A  
HETATM   11  C   UNL     1     -11.282  15.177  64.584  1.00  0.00    -0.352 A  
HETATM   12  C   UNL     1     -12.103  14.088  64.850  1.00  0.00    -0.420 A  
HETATM   13  C   UNL     1     -11.864  14.522  67.215  1.00  0.00    -0.419 A  
HETATM   14  C   UNL     1     -12.405  13.766  66.169  1.00  0.00    -0.496 A  
BRANCH  12  15
HETATM   15  O   UNL     1     -12.576  13.445  63.739  1.00  0.00    -0.692 OA 
BRANCH  15  16
HETATM   16  C   UNL     1     -12.191  12.085  63.593  1.00  0.00    -0.538 C  
BRANCH  16  17
HETATM   17  C   UNL     1     -10.662  12.021  63.622  1.00  0.00    -0.449 C  
BRANCH  17  18
HETATM   18  O   UNL     1     -10.096  10.719  63.423  1.00  0.00    -0.331 OA 
BRANCH  18  19
HETATM   19  C   UNL     1      -9.313  10.184  64.485  1.00  0.00    -0.289 C  
BRANCH  19  20
HETATM   20  C   UNL     1      -9.403  11.050  65.749  1.00  0.00    -0.211 C  
BRANCH  20  21
HETATM   21  N   UNL     1      -9.417  10.281  67.078  1.00  0.00    -0.161 N  
HETATM   22  C   UNL     1     -10.516   9.217  66.960  1.00  0.00    -0.240 C  
HETATM   23  C   UNL     1      -8.089   9.565  67.290  1.00  0.00    -0.110 C  
BRANCH  21  24
HETATM   24  C   UNL     1      -9.741  11.242  68.253  1.00  0.00    -0.198 C  
BRANCH  24  25
HETATM   25  C   UNL     1     -10.607  10.661  69.338  1.00  0.00    -0.270 A  
HETATM   26  C   UNL     1     -11.918  11.131  69.518  1.00  0.00    -0.425 A  
HETATM   27  C   UNL     1     -12.673  10.712  70.610  1.00  0.00    -0.445 A  
HETATM   28  C   UNL     1     -12.137   9.806  71.521  1.00  0.00    -0.493 A  
HETATM   29  C   UNL     1     -10.860   9.287  71.323  1.00  0.00    -0.417 A  
HETATM   30  C   UNL     1     -10.102   9.701  70.228  1.00  0.00    -0.331 A  
ENDBRANCH  24  25
ENDBRANCH  21  24
ENDBRANCH  20  21
ENDBRANCH  19  20
ENDBRANCH  18  19
ENDBRANCH  17  18
ENDBRANCH  16  17
ENDBRANCH  15  16
ENDBRANCH  12  15
ENDBRANCH   6   9
ENDBRANCH   5   6
ENDBRANCH   2   5
TORSDOF 12
ENDMDL
MODEL        9
REMARK 921   NORMALIZED FREE ENERGY PREDICTED BY IDOCK:   -6.01 KCAL/MOL
REMARK 922        TOTAL FREE ENERGY PREDICTED BY IDOCK:  -11.50 KCAL/MOL
REMARK 923 INTER-LIGAND FREE ENERGY PREDICTED BY IDOCK:   -9.65 KCAL/MOL
REMARK 924 INTRA-LIGAND FREE ENERGY PREDICTED BY IDOCK:   -1.85 KCAL/MOL
REMARK 927      BINDING AFFINITY PREDICTED BY RF-SCORE:    0.00 PKD
ROOT
HETATM    1  C   UNL     1     -10.404   7.597  73.162  1.00  0.00    -0.411 C  
HETATM    2  C   UNL     1     -10.704   6.837  71.863  1.00  0.00    -0.250 C  
HETATM    3  C   UNL     1      -9.444   6.106  71.382  1.00  0.00    -0.170 C  
HETATM    4  C   UNL     1     -11.745   5.743  72.224  1.00  0.00    -0.265 C  
ENDROOT
BRANCH   2   5
HETATM    5  C   UNL     1     -11.344   7.740  70.758  1.00  0.00    -0.291 C  
BRANCH   5   6
HETATM    6  C   UNL     1     -10.644   8.994  70.107  1.00  0.00    -0.250 C  
HETATM    7  C   UNL     1     -10.604   8.925  68.564  1.00  0.00    -0.183 C  
HETATM    8  C   UNL     1      -9.187   9.162  70.582  1.00  0.00    -0.310 C  
BRANCH   6   9
HETATM    9  C   UNL     1     -11.498  10.235  70.486  1.00  0.00    -0.427 A  
HETATM   10  C   UNL     1     -11.363  11.484  69.854  1.00  0.00    -0.267 A  
HETATM   11  C   UNL     1     -12.153  12.575  70.219  1.00  0.00    -0.373 A  
HETATM   12  C   UNL     1     -13.091  12.457  71.238  1.00  0.00    -0.126 A  
HETATM   13  C   UNL     1     -12.451  10.145  71.522  1.00  0.00    -0.526 A  
HETATM   14  C   UNL     1     -13.234  11.242  71.899  1.00  0.00    -0.491 A  
BRANCH  12  15
HETATM   15  O   UNL     1     -13.778  13.607  71.516  1.00  0.00    -0.282 OA 
BRANCH  15  16
HETATM   16  C   UNL     1     -13.409  14.282  72.711  1.00  0.00    -0.525 C  
BRANCH  16  17
HETATM   17  C   UNL     1     -12.888  15.669  72.329  1.00  0.00    -0.441 C  
BRANCH  17  18
HETATM   18  O   UNL     1     -11.608  15.690  71.685  1.00  0.00    -0.368 OA 
BRANCH  18  19
HETATM   19  C   UNL     1     -11.571  16.129  70.331  1.00  0.00    -0.277 C  
BRANCH  19  20
HETATM   20  C   UNL     1     -10.369  15.543  69.577  1.00  0.00    -0.271 C  
BRANCH  20  21
HETATM   21  N   UNL     1      -9.717  16.475  68.545  1.00  0.00    -0.231 N  
HETATM   22  C   UNL     1     -10.093  17.907  68.944  1.00  0.00    -0.348 C  
HETATM   23  C   UNL     1      -8.199  16.352  68.605  1.00  0.00    -0.223 C  
BRANCH  21  24
HETATM   24  C   UNL     1     -10.258  16.166  67.123  1.00  0.00    -0.281 C  
BRANCH  24  25
HETATM   25  C   UNL     1     -10.615  14.726  66.870  1.00  0.00    -0.294 A  
HETATM   26  C   UNL     1      -9.601  13.765  66.734  1.00  0.00    -0.283 A  
HETATM   27  C   UNL     1      -9.912  12.463  66.349  1.00  0.00    -0.254 A  
HETATM   28  C   UNL     1     -11.236  12.103  66.117  1.00  0.00    -0.386 A  
HETATM   29  C   UNL     1     -12.257  13.031  66.306  1.00  0.00    -0.390 A  
HETATM   30  C   UNL     1     -11.951  14.334  66.695  1.00  0.00    -0.454 A  
ENDBRANCH  24  25
ENDBRANCH  21  24
ENDBRANCH  20  21
ENDBRANCH  19  20
ENDBRANCH  18  19
ENDBRANCH  17  18
ENDBRANCH  16  17
ENDBRANCH  15  16
ENDBRANCH  12  15
ENDBRANCH   6   9
ENDBRANCH   5   6
ENDBRANCH   2   5
TORSDOF 12
ENDMDL
MODEL       10
REMARK 921   NORMALIZED FREE ENERGY PREDICTED BY IDOCK:   -6.00 KCAL/MOL
REMARK 922        TOTAL FREE ENERGY PREDICTED BY IDOCK:  -11.48 KCAL/MOL
REMARK 923 INTER-LIGAND FREE ENERGY PREDICTED BY IDOCK:   -9.94 KCAL/MOL
REMARK 924 INTRA-LIGAND FREE ENERGY PREDICTED BY IDOCK:   -1.54 KCAL/MOL
REMARK 927      BINDING AFFINITY PREDICTED BY RF-SCORE:    0.00 PKD
ROOT
HETATM    1  C   UNL     1     -10.724   8.818  72.079  1.00  0.00    -0.417 C  
HETATM    2  C   UNL     1      -9.839   8.254  70.960  1.00  0.00    -0.225 C  
HETATM    3  C   UNL     1      -8.706   9.239  70.643  1.00  0.00    -0.282 C  
HETATM    4  C   UNL     1      -9.170   6.974  71.530  1.00  0.00    -0.153 C  
ENDROOT
BRANCH   2   5
HETATM    5  C   UNL     1     -10.648   7.829  69.691  1.00  0.00    -0.242 C  
BRANCH   5   6
HETATM    6  C   UNL     1     -10.006   7.301  68.351  1.00  0.00    -0.172 C  
HETATM    7  C   UNL     1     -10.811   6.146  67.714  1.00  0.00    -0.413 C  
HETATM    8  C   UNL     1      -8.569   6.781  68.558  1.00  0.00    -0.125 C  
BRANCH   6   9
HETATM    9  C   UNL     1     -10.028   8.483  67.343  1.00  0.00    -0.275 A  
HETATM   10  C   UNL     1      -9.272   8.498  66.158  1.00  0.00    -0.269 A  
HETATM   11  C   UNL     1      -9.323   9.577  65.274  1.00  0.00    -0.317 A  
HETATM   12  C   UNL     1     -10.119  10.681  65.554  1.00  0.00    -0.280 A  
HETATM   13  C   UNL     1     -10.821   9.620  67.608  1.00  0.00    -0.276 A  
HETATM   14  C   UNL     1     -10.862  10.708  66.730  1.00  0.00    -0.233 A  
BRANCH  12  15
HETATM   15  O   UNL     1     -10.056  11.681  64.622  1.00  0.00    -0.242 OA 
BRANCH  15  16
HETATM   16  C   UNL     1     -11.045  11.647  63.602  1.00  0.00    -0.425 C  
BRANCH  16  17
HETATM   17  C   UNL     1     -11.846  12.950  63.677  1.00  0.00    -0.532 C  
BRANCH  17  18
HETATM   18  O   UNL     1     -12.790  13.032  64.751  1.00  0.00    -0.708 OA 
BRANCH  18  19
HETATM   19  C   UNL     1     -12.713  14.175  65.597  1.00  0.00    -0.441 C  
BRANCH  19  20
HETATM   20  C   UNL     1     -12.409  13.786  67.050  1.00  0.00    -0.247 C  
BRANCH  20  21
HETATM   21  N   UNL     1     -11.164  14.443  67.665  1.00  0.00    -0.300 N  
HETATM   22  C   UNL     1     -10.104  14.499  66.558  1.00  0.00    -0.274 C  
HETATM   23  C   UNL     1     -11.475  15.872  68.093  1.00  0.00    -0.281 C  
BRANCH  21  24
HETATM   24  C   UNL     1     -10.638  13.593  68.853  1.00  0.00    -0.190 C  
BRANCH  24  25
HETATM   25  C   UNL     1     -11.666  13.237  69.893  1.00  0.00    -0.330 A  
HETATM   26  C   UNL     1     -12.266  14.247  70.661  1.00  0.00    -0.427 A  
HETATM   27  C   UNL     1     -13.102  13.919  71.726  1.00  0.00    -0.458 A  
HETATM   28  C   UNL     1     -13.362  12.584  72.022  1.00  0.00    -0.528 A  
HETATM   29  C   UNL     1     -12.821  11.574  71.231  1.00  0.00    -0.463 A  
HETATM   30  C   UNL     1     -11.987  11.897  70.161  1.00  0.00    -0.413 A  
ENDBRANCH  24  25
ENDBRANCH  21  24
ENDBRANCH  20  21
ENDBRANCH  19  20
ENDBRANCH  18  19
ENDBRANCH  17  18
ENDBRANCH  16  17
ENDBRANCH  15  16
ENDBRANCH  12  15
ENDBRANCH   6   9
ENDBRANCH   5   6
ENDBRANCH   2   5
TORSDOF 12
ENDMDL
MODEL       11
REMARK 921   NORMALIZED FREE ENERGY PREDICTED BY IDOCK:   -6.00 KCAL/MOL
REMARK 922        TOTAL FREE ENERGY PREDICTED BY IDOCK:  -11.47 KCAL/MOL
REMARK 923 INTER-LIGAND FREE ENERGY PREDICTED BY IDOCK:  -10.51 KCAL/MOL
REMARK 924 INTRA-LIGAND FREE ENERGY PREDICTED BY IDOCK:   -0.95 KCAL/MOL
REMARK 927      BINDING AFFINITY PREDICTED BY RF-SCORE:    0.00 PKD
ROOT
HETATM    1  C   UNL     1     -11.094   7.797  73.000  1.00  0.00    -0.419 C  
HETATM    2  C   UNL     1     -12.086   8.206  71.904  1.00  0.00    -0.368 C  
HETATM    3  C   UNL     1     -12.852   6.972  71.406  1.00  0.00    -0.407 C  
HETATM    4  C   UNL     1     -13.130   9.136  72.578  1.00  0.00    -0.445 C  
ENDROOT
BRANCH   2   5
HETATM    5  C   UNL     1     -11.421   9.018  70.745  1.00  0.00    -0.331 C  
BRANCH   5   6
HETATM    6  C   UNL     1     -10.189   8.523  69.894  1.00  0.00    -0.204 C  
HETATM    7  C   UNL     1     -10.184   6.993  69.679  1.00  0.00    -0.212 C  
HETATM    8  C   UNL     1      -8.842   8.885  70.551  1.00  0.00    -0.221 C  
BRANCH   6   9
HETATM    9  C   UNL     1     -10.316   9.180  68.491  1.00  0.00    -0.236 A  
HETATM   10  C   UNL     1      -9.694   8.663  67.341  1.00  0.00    -0.227 A  
HETATM   11  C   UNL     1      -9.837   9.280  66.097  1.00  0.00    -0.363 A  
HETATM   12  C   UNL     1     -10.591  10.439  65.965  1.00  0.00    -0.065 A  
HETATM   13  C   UNL     1     -11.068  10.363  68.333  1.00  0.00    -0.322 A  
HETATM   14  C   UNL     1     -11.200  10.990  67.089  1.00  0.00    -0.290 A  
BRANCH  12  15
HETATM   15  O   UNL     1     -10.626  10.957  64.700  1.00  0.00    -0.334 OA 
BRANCH  15  16
HETATM   16  C   UNL     1     -10.301  12.335  64.579  1.00  0.00    -0.311 C  
BRANCH  16  17
HETATM   17  C   UNL     1     -11.514  13.057  63.989  1.00  0.00    -0.421 C  
BRANCH  17  18
HETATM   18  O   UNL     1     -11.957  14.211  64.714  1.00  0.00    -0.386 OA 
BRANCH  18  19
HETATM   19  C   UNL     1     -11.235  14.552  65.893  1.00  0.00    -0.331 C  
BRANCH  19  20
HETATM   20  C   UNL     1     -12.109  14.432  67.149  1.00  0.00    -0.333 C  
BRANCH  20  21
HETATM   21  N   UNL     1     -11.408  14.755  68.476  1.00  0.00    -0.276 N  
HETATM   22  C   UNL     1      -9.904  14.562  68.240  1.00  0.00    -0.229 C  
HETATM   23  C   UNL     1     -11.642  16.211  68.859  1.00  0.00    -0.298 C  
BRANCH  21  24
HETATM   24  C   UNL     1     -11.892  13.787  69.590  1.00  0.00    -0.333 C  
BRANCH  24  25
HETATM   25  C   UNL     1     -12.402  14.451  70.841  1.00  0.00    -0.419 A  
HETATM   26  C   UNL     1     -13.780  14.487  71.104  1.00  0.00    -0.333 A  
HETATM   27  C   UNL     1     -14.274  15.228  72.176  1.00  0.00    -0.667 A  
HETATM   28  C   UNL     1     -13.397  15.922  73.005  1.00  0.00    -0.663 A  
HETATM   29  C   UNL     1     -12.023  15.847  72.790  1.00  0.00    -0.616 A  
HETATM   30  C   UNL     1     -11.524  15.103  71.721  1.00  0.00    -0.452 A  
ENDBRANCH  24  25
ENDBRANCH  21  24
ENDBRANCH  20  21
ENDBRANCH  19  20
ENDBRANCH  18  19
ENDBRANCH  17  18
ENDBRANCH  16  17
ENDBRANCH  15  16
ENDBRANCH  12  15
ENDBRANCH   6   9
ENDBRANCH   5   6
ENDBRANCH   2   5
TORSDOF 12
ENDMDL
MODEL       12
REMARK 921   NORMALIZED FREE ENERGY PREDICTED BY IDOCK:   -5.94 KCAL/MOL
REMARK 922        TOTAL FREE ENERGY PREDICTED BY IDOCK:  -11.37 KCAL/MOL
REMARK 923 INTER-LIGAND FREE ENERGY PREDICTED BY IDOCK:  -10.01 KCAL/MOL
REMARK 924 INTRA-LIGAND FREE ENERGY PREDICTED BY IDOCK:   -1.35 KCAL/MOL
REMARK 927      BINDING AFFINITY PREDICTED BY RF-SCORE:    0.00 PKD
ROOT
HETATM    1  C   UNL     1     -12.458   7.176  71.114  1.00  0.00    -0.400 C  
HETATM    2  C   UNL     1     -12.112   8.619  71.501  1.00  0.00    -0.369 C  
HETATM    3  C   UNL     1     -13.242   9.219  72.348  1.00  0.00    -0.501 C  
HETATM    4  C   UNL     1     -10.861   8.542  72.417  1.00  0.00    -0.378 C  
ENDROOT
BRANCH   2   5
HETATM    5  C   UNL     1     -11.733   9.510  70.273  1.00  0.00    -0.168 C  
BRANCH   5   6
HETATM    6  C   UNL     1     -10.461   9.296  69.366  1.00  0.00    -0.229 C  
HETATM    7  C   UNL     1     -10.327   7.844  68.853  1.00  0.00    -0.225 C  
HETATM    8  C   UNL     1      -9.151   9.628  70.109  1.00  0.00    -0.280 C  
BRANCH   6   9
HETATM    9  C   UNL     1     -10.637  10.205  68.118  1.00  0.00    -0.262 A  
HETATM   10  C   UNL     1     -11.441  11.359  68.115  1.00  0.00    -0.375 A  
HETATM   11  C   UNL     1     -11.569  12.153  66.974  1.00  0.00    -0.406 A  
HETATM   12  C   UNL     1     -10.912  11.812  65.798  1.00  0.00    -0.301 A  
HETATM   13  C   UNL     1      -9.989   9.875  66.910  1.00  0.00    -0.268 A  
HETATM   14  C   UNL     1     -10.128  10.663  65.762  1.00  0.00    -0.327 A  
BRANCH  12  15
HETATM   15  O   UNL     1     -11.145  12.657  64.748  1.00  0.00    -0.283 OA 
BRANCH  15  16
HETATM   16  C   UNL     1     -11.972  13.780  65.021  1.00  0.00    -0.383 C  
BRANCH  16  17
HETATM   17  C   UNL     1     -11.121  15.043  64.866  1.00  0.00    -0.415 C  
BRANCH  17  18
HETATM   18  O   UNL     1      -9.795  14.961  65.402  1.00  0.00    -0.342 OA 
BRANCH  18  19
HETATM   19  C   UNL     1      -9.472  15.849  66.468  1.00  0.00    -0.273 C  
BRANCH  19  20
HETATM   20  C   UNL     1      -9.671  15.186  67.838  1.00  0.00    -0.208 C  
BRANCH  20  21
HETATM   21  N   UNL     1     -10.726  15.840  68.742  1.00  0.00    -0.240 N  
HETATM   22  C   UNL     1     -10.494  17.355  68.666  1.00  0.00    -0.355 C  
HETATM   23  C   UNL     1     -12.127  15.551  68.216  1.00  0.00     0.119 C  
BRANCH  21  24
HETATM   24  C   UNL     1     -10.555  15.356  70.207  1.00  0.00    -0.277 C  
BRANCH  24  25
HETATM   25  C   UNL     1     -11.812  14.866  70.873  1.00  0.00    -0.375 A  
HETATM   26  C   UNL     1     -12.651  15.771  71.541  1.00  0.00    -0.517 A  
HETATM   27  C   UNL     1     -13.733  15.310  72.288  1.00  0.00    -0.614 A  
HETATM   28  C   UNL     1     -13.999  13.946  72.358  1.00  0.00    -0.633 A  
HETATM   29  C   UNL     1     -13.210  13.041  71.651  1.00  0.00    -0.426 A  
HETATM   30  C   UNL     1     -12.129  13.499  70.899  1.00  0.00    -0.301 A  
ENDBRANCH  24  25
ENDBRANCH  21  24
ENDBRANCH  20  21
ENDBRANCH  19  20
ENDBRANCH  18  19
ENDBRANCH  17  18
ENDBRANCH  16  17
ENDBRANCH  15  16
ENDBRANCH  12  15
ENDBRANCH   6   9
ENDBRANCH   5   6
ENDBRANCH   2   5
TORSDOF 12
ENDMDL
MODEL       13
REMARK 921   NORMALIZED FREE ENERGY PREDICTED BY IDOCK:   -5.87 KCAL/MOL
REMARK 922        TOTAL FREE ENERGY PREDICTED BY IDOCK:  -11.25 KCAL/MOL
REMARK 923 INTER-LIGAND FREE ENERGY PREDICTED BY IDOCK:   -9.90 KCAL/MOL
REMARK 924 INTRA-LIGAND FREE ENERGY PREDICTED BY IDOCK:   -1.35 KCAL/MOL
REMARK 927      BINDING AFFINITY PREDICTED BY RF-SCORE:    0.00 PKD
ROOT
HETATM    1  C   UNL     1      -9.561   6.542  71.540  1.00  0.00    -0.169 C  
HETATM    2  C   UNL     1      -9.724   7.642  72.597  1.00  0.00    -0.251 C  
HETATM    3  C   UNL     1     -10.466   7.084  73.820  1.00  0.00    -0.392 C  
HETATM    4  C   UNL     1      -8.294   8.011  73.074  1.00  0.00    -0.243 C  
ENDROOT
BRANCH   2   5
HETATM    5  C   UNL     1     -10.377   8.946  72.033  1.00  0.00    -0.378 C  
BRANCH   5   6
HETATM    6  C   UNL     1     -11.723   8.994  71.213  1.00  0.00    -0.382 C  
HETATM    7  C   UNL     1     -12.756   9.974  71.812  1.00  0.00    -0.526 C  
HETATM    8  C   UNL     1     -12.410   7.615  71.137  1.00  0.00    -0.293 C  
BRANCH   6   9
HETATM    9  C   UNL     1     -11.369   9.516  69.793  1.00  0.00    -0.117 A  
HETATM   10  C   UNL     1     -10.563   8.801  68.889  1.00  0.00    -0.178 A  
HETATM   11  C   UNL     1     -10.272   9.303  67.620  1.00  0.00    -0.285 A  
HETATM   12  C   UNL     1     -10.762  10.540  67.219  1.00  0.00    -0.277 A  
HETATM   13  C   UNL     1     -11.846  10.773  69.366  1.00  0.00    -0.370 A  
HETATM   14  C   UNL     1     -11.543  11.283  68.098  1.00  0.00    -0.359 A  
BRANCH  12  15
HETATM   15  O   UNL     1     -10.379  10.926  65.964  1.00  0.00    -0.243 OA 
BRANCH  15  16
HETATM   16  C   UNL     1      -9.836  12.234  65.851  1.00  0.00    -0.251 C  
BRANCH  16  17
HETATM   17  C   UNL     1     -10.576  12.957  64.722  1.00  0.00    -0.342 C  
BRANCH  17  18
HETATM   18  O   UNL     1     -10.958  14.309  65.004  1.00  0.00    -0.344 OA 
BRANCH  18  19
HETATM   19  C   UNL     1     -11.389  14.598  66.330  1.00  0.00    -0.348 C  
BRANCH  19  20
HETATM   20  C   UNL     1     -10.535  15.699  66.976  1.00  0.00    -0.303 C  
BRANCH  20  21
HETATM   21  N   UNL     1     -10.552  15.734  68.511  1.00  0.00    -0.244 N  
HETATM   22  C   UNL     1      -9.862  14.450  68.989  1.00  0.00    -0.101 C  
HETATM   23  C   UNL     1      -9.745  16.922  69.022  1.00  0.00    -0.231 C  
BRANCH  21  24
HETATM   24  C   UNL     1     -12.013  15.770  69.033  1.00  0.00    -0.278 C  
BRANCH  24  25
HETATM   25  C   UNL     1     -12.196  15.333  70.462  1.00  0.00    -0.415 A  
HETATM   26  C   UNL     1     -12.778  14.087  70.745  1.00  0.00    -0.396 A  
HETATM   27  C   UNL     1     -13.091  13.738  72.057  1.00  0.00    -0.485 A  
HETATM   28  C   UNL     1     -12.808  14.618  73.098  1.00  0.00    -0.586 A  
HETATM   29  C   UNL     1     -12.176  15.832  72.837  1.00  0.00    -0.586 A  
HETATM   30  C   UNL     1     -11.857  16.183  71.526  1.00  0.00    -0.528 A  
ENDBRANCH  24  25
ENDBRANCH  21  24
ENDBRANCH  20  21
ENDBRANCH  19  20
ENDBRANCH  18  19
ENDBRANCH  17  18
ENDBRANCH  16  17
ENDBRANCH  15  16
ENDBRANCH  12  15
ENDBRANCH   6   9
ENDBRANCH   5   6
ENDBRANCH   2   5
TORSDOF 12
ENDMDL
MODEL       14
REMARK 921   NORMALIZED FREE ENERGY PREDICTED BY IDOCK:   -5.84 KCAL/MOL
REMARK 922        TOTAL FREE ENERGY PREDICTED BY IDOCK:  -11.20 KCAL/MOL
REMARK 923 INTER-LIGAND FREE ENERGY PREDICTED BY IDOCK:   -9.21 KCAL/MOL
REMARK 924 INTRA-LIGAND FREE ENERGY PREDICTED BY IDOCK:   -1.99 KCAL/MOL
REMARK 927      BINDING AFFINITY PREDICTED BY RF-SCORE:    0.00 PKD
ROOT
HETATM    1  C   UNL     1     -11.972  14.309  64.220  1.00  0.00    -0.449 C  
HETATM    2  C   UNL     1     -11.724  12.811  64.436  1.00  0.00    -0.426 C  
HETATM    3  C   UNL     1     -12.670  11.991  63.549  1.00  0.00    -0.567 C  
HETATM    4  C   UNL     1     -10.283  12.527  63.933  1.00  0.00    -0.386 C  
ENDROOT
BRANCH   2   5
HETATM    5  C   UNL     1     -11.782  12.389  65.941  1.00  0.00    -0.476 C  
BRANCH   5   6
HETATM    6  C   UNL     1     -11.278  13.277  67.142  1.00  0.00    -0.327 C  
HETATM    7  C   UNL     1     -11.967  14.659  67.198  1.00  0.00    -0.310 C  
HETATM    8  C   UNL     1      -9.759  13.539  67.078  1.00  0.00    -0.251 C  
BRANCH   6   9
HETATM    9  C   UNL     1     -11.656  12.526  68.449  1.00  0.00    -0.368 A  
HETATM   10  C   UNL     1     -11.737  11.125  68.535  1.00  0.00    -0.368 A  
HETATM   11  C   UNL     1     -12.075  10.487  69.730  1.00  0.00    -0.285 A  
HETATM   12  C   UNL     1     -12.359  11.229  70.870  1.00  0.00    -0.388 A  
HETATM   13  C   UNL     1     -11.958  13.256  69.618  1.00  0.00    -0.376 A  
HETATM   14  C   UNL     1     -12.311  12.618  70.812  1.00  0.00    -0.372 A  
BRANCH  12  15
HETATM   15  O   UNL     1     -12.704  10.483  71.964  1.00  0.00    -0.384 OA 
BRANCH  15  16
HETATM   16  C   UNL     1     -13.560   9.376  71.722  1.00  0.00    -0.388 C  
BRANCH  16  17
HETATM   17  C   UNL     1     -12.807   8.101  72.110  1.00  0.00    -0.281 C  
BRANCH  17  18
HETATM   18  O   UNL     1     -11.561   8.305  72.787  1.00  0.00    -0.395 OA 
BRANCH  18  19
HETATM   19  C   UNL     1     -10.504   7.400  72.487  1.00  0.00    -0.236 C  
BRANCH  19  20
HETATM   20  C   UNL     1      -9.881   7.690  71.115  1.00  0.00    -0.173 C  
BRANCH  20  21
HETATM   21  N   UNL     1      -9.848   6.506  70.138  1.00  0.00    -0.166 N  
HETATM   22  C   UNL     1      -9.535   5.256  70.971  1.00  0.00    -0.161 C  
HETATM   23  C   UNL     1     -11.216   6.312  69.494  1.00  0.00    -0.430 C  
BRANCH  21  24
HETATM   24  C   UNL     1      -8.740   6.717  69.072  1.00  0.00    -0.129 C  
BRANCH  24  25
HETATM   25  C   UNL     1      -8.904   7.938  68.207  1.00  0.00    -0.129 A  
HETATM   26  C   UNL     1      -9.779   7.908  67.110  1.00  0.00    -0.249 A  
HETATM   27  C   UNL     1      -9.825   8.976  66.216  1.00  0.00    -0.361 A  
HETATM   28  C   UNL     1      -9.015  10.090  66.420  1.00  0.00    -0.164 A  
HETATM   29  C   UNL     1      -8.187  10.158  67.538  1.00  0.00    -0.114 A  
HETATM   30  C   UNL     1      -8.141   9.093  68.437  1.00  0.00    -0.104 A  
ENDBRANCH  24  25
ENDBRANCH  21  24
ENDBRANCH  20  21
ENDBRANCH  19  20
ENDBRANCH  18  19
ENDBRANCH  17  18
ENDBRANCH  16  17
ENDBRANCH  15  16
ENDBRANCH  12  15
ENDBRANCH   6   9
ENDBRANCH   5   6
ENDBRANCH   2   5
TORSDOF 12
ENDMDL
MODEL       15
REMARK 921   NORMALIZED FREE ENERGY PREDICTED BY IDOCK:   -5.82 KCAL/MOL
REMARK 922        TOTAL FREE ENERGY PREDICTED BY IDOCK:  -11.17 KCAL/MOL
REMARK 923 INTER-LIGAND FREE ENERGY PREDICTED BY IDOCK:   -9.93 KCAL/MOL
REMARK 924 INTRA-LIGAND FREE ENERGY PREDICTED BY IDOCK:   -1.24 KCAL/MOL
REMARK 927      BINDING AFFINITY PREDICTED BY RF-SCORE:    0.00 PKD
ROOT
HETATM    1  C   UNL     1     -13.262  13.203  72.177  1.00  0.00    -0.561 C  
HETATM    2  C   UNL     1     -12.781  14.409  71.361  1.00  0.00    -0.413 C  
HETATM    3  C   UNL     1     -13.944  15.386  71.137  1.00  0.00    -0.410 C  
HETATM    4  C   UNL     1     -11.740  15.151  72.242  1.00  0.00    -0.496 C  
ENDROOT
BRANCH   2   5
HETATM    5  C   UNL     1     -12.061  14.005  70.033  1.00  0.00    -0.412 C  
BRANCH   5   6
HETATM    6  C   UNL     1     -11.177  14.975  69.159  1.00  0.00    -0.293 C  
HETATM    7  C   UNL     1      -9.674  14.899  69.513  1.00  0.00    -0.046 C  
HETATM    8  C   UNL     1     -11.597  16.450  69.318  1.00  0.00    -0.084 C  
BRANCH   6   9
HETATM    9  C   UNL     1     -11.321  14.512  67.683  1.00  0.00    -0.354 A  
HETATM   10  C   UNL     1     -10.739  15.197  66.602  1.00  0.00    -0.310 A  
HETATM   11  C   UNL     1     -10.887  14.746  65.289  1.00  0.00    -0.395 A  
HETATM   12  C   UNL     1     -11.634  13.607  65.014  1.00  0.00    -0.332 A  
HETATM   13  C   UNL     1     -12.082  13.365  67.376  1.00  0.00    -0.338 A  
HETATM   14  C   UNL     1     -12.243  12.920  66.059  1.00  0.00    -0.431 A  
BRANCH  12  15
HETATM   15  O   UNL     1     -11.725  13.291  63.686  1.00  0.00    -0.440 OA 
BRANCH  15  16
HETATM   16  C   UNL     1     -11.670  11.908  63.368  1.00  0.00    -0.403 C  
BRANCH  16  17
HETATM   17  C   UNL     1     -10.200  11.481  63.362  1.00  0.00    -0.420 C  
BRANCH  17  18
HETATM   18  O   UNL     1      -9.899  10.296  64.108  1.00  0.00    -0.317 OA 
BRANCH  18  19
HETATM   19  C   UNL     1      -9.289  10.470  65.383  1.00  0.00    -0.211 C  
BRANCH  19  20
HETATM   20  C   UNL     1     -10.221  10.035  66.522  1.00  0.00    -0.224 C  
BRANCH  20  21
HETATM   21  N   UNL     1      -9.522   9.551  67.801  1.00  0.00    -0.131 N  
HETATM   22  C   UNL     1     -10.176   8.218  68.185  1.00  0.00    -0.210 C  
HETATM   23  C   UNL     1      -8.045   9.290  67.531  1.00  0.00    -0.107 C  
BRANCH  21  24
HETATM   24  C   UNL     1      -9.720  10.581  68.946  1.00  0.00    -0.199 C  
BRANCH  24  25
HETATM   25  C   UNL     1     -10.722  10.188  69.997  1.00  0.00    -0.356 A  
HETATM   26  C   UNL     1     -10.347   9.323  71.036  1.00  0.00    -0.388 A  
HETATM   27  C   UNL     1     -11.301   8.833  71.925  1.00  0.00    -0.431 A  
HETATM   28  C   UNL     1     -12.633   9.218  71.798  1.00  0.00    -0.461 A  
HETATM   29  C   UNL     1     -13.009  10.123  70.809  1.00  0.00    -0.380 A  
HETATM   30  C   UNL     1     -12.056  10.619  69.919  1.00  0.00    -0.372 A  
ENDBRANCH  24  25
ENDBRANCH  21  24
ENDBRANCH  20  21
ENDBRANCH  19  20
ENDBRANCH  18  19
ENDBRANCH  17  18
ENDBRANCH  16  17
ENDBRANCH  15  16
ENDBRANCH  12  15
ENDBRANCH   6   9
ENDBRANCH   5   6
ENDBRANCH   2   5
TORSDOF 12
ENDMDL
MODEL       16
REMARK 921   NORMALIZED FREE ENERGY PREDICTED BY IDOCK:   -5.79 KCAL/MOL
REMARK 922        TOTAL FREE ENERGY PREDICTED BY IDOCK:  -11.11 KCAL/MOL
REMARK 923 INTER-LIGAND FREE ENERGY PREDICTED BY IDOCK:   -9.14 KCAL/MOL
REMARK 924 INTRA-LIGAND FREE ENERGY PREDICTED BY IDOCK:   -1.97 KCAL/MOL
REMARK 927      BINDING AFFINITY PREDICTED BY RF-SCORE:    0.00 PKD
ROOT
HETATM    1  C   UNL     1     -10.069  13.299  65.218  1.00  0.00    -0.254 C  
HETATM    2  C   UNL     1     -11.209  14.262  65.570  1.00  0.00    -0.320 C  
HETATM    3  C   UNL     1     -10.713  15.712  65.486  1.00  0.00    -0.403 C  
HETATM    4  C   UNL     1     -12.285  14.094  64.463  1.00  0.00    -0.468 C  
ENDROOT
BRANCH   2   5
HETATM    5  C   UNL     1     -11.894  13.931  66.937  1.00  0.00    -0.453 C  
BRANCH   5   6
HETATM    6  C   UNL     1     -11.291  14.282  68.351  1.00  0.00    -0.309 C  
HETATM    7  C   UNL     1     -11.761  15.656  68.880  1.00  0.00    -0.396 C  
HETATM    8  C   UNL     1      -9.749  14.315  68.337  1.00  0.00    -0.225 C  
BRANCH   6   9
HETATM    9  C   UNL     1     -11.813  13.208  69.344  1.00  0.00    -0.383 A  
HETATM   10  C   UNL     1     -12.383  13.525  70.590  1.00  0.00    -0.432 A  
HETATM   11  C   UNL     1     -12.846  12.530  71.453  1.00  0.00    -0.359 A  
HETATM   12  C   UNL     1     -12.740  11.189  71.106  1.00  0.00    -0.408 A  
HETATM   13  C   UNL     1     -11.709  11.839  69.020  1.00  0.00    -0.390 A  
HETATM   14  C   UNL     1     -12.160  10.841  69.891  1.00  0.00    -0.410 A  
BRANCH  12  15
HETATM   15  O   UNL     1     -13.205  10.316  72.052  1.00  0.00    -0.450 OA 
BRANCH  15  16
HETATM   16  C   UNL     1     -13.852   9.149  71.562  1.00  0.00    -0.294 C  
BRANCH  16  17
HETATM   17  C   UNL     1     -12.932   7.954  71.824  1.00  0.00    -0.325 C  
BRANCH  17  18
HETATM   18  O   UNL     1     -11.889   8.177  72.781  1.00  0.00    -0.389 OA 
BRANCH  18  19
HETATM   19  C   UNL     1     -10.555   8.229  72.286  1.00  0.00    -0.323 C  
BRANCH  19  20
HETATM   20  C   UNL     1     -10.495   7.919  70.784  1.00  0.00    -0.210 C  
BRANCH  20  21
HETATM   21  N   UNL     1      -9.596   6.738  70.388  1.00  0.00    -0.169 N  
HETATM   22  C   UNL     1      -8.914   6.252  71.672  1.00  0.00    -0.144 C  
HETATM   23  C   UNL     1     -10.439   5.592  69.839  1.00  0.00    -0.308 C  
BRANCH  21  24
HETATM   24  C   UNL     1      -8.523   7.198  69.365  1.00  0.00    -0.134 C  
BRANCH  24  25
HETATM   25  C   UNL     1      -8.947   8.311  68.445  1.00  0.00    -0.136 A  
HETATM   26  C   UNL     1      -9.825   8.048  67.382  1.00  0.00    -0.244 A  
HETATM   27  C   UNL     1     -10.103   9.032  66.437  1.00  0.00    -0.351 A  
HETATM   28  C   UNL     1      -9.525  10.293  66.554  1.00  0.00    -0.212 A  
HETATM   29  C   UNL     1      -8.699  10.586  67.637  1.00  0.00    -0.121 A  
HETATM   30  C   UNL     1      -8.421   9.605  68.588  1.00  0.00    -0.119 A  
ENDBRANCH  24  25
ENDBRANCH  21  24
ENDBRANCH  20  21
ENDBRANCH  19  20
ENDBRANCH  18  19
ENDBRANCH  17  18
ENDBRANCH  16  17
ENDBRANCH  15  16
ENDBRANCH  12  15
ENDBRANCH   6   9
ENDBRANCH   5   6
ENDBRANCH   2   5
TORSDOF 12
ENDMDL
MODEL       17
REMARK 921   NORMALIZED FREE ENERGY PREDICTED BY IDOCK:   -5.74 KCAL/MOL
REMARK 922        TOTAL FREE ENERGY PREDICTED BY IDOCK:  -11.04 KCAL/MOL
REMARK 923 INTER-LIGAND FREE ENERGY PREDICTED BY IDOCK:  -10.40 KCAL/MOL
REMARK 924 INTRA-LIGAND FREE ENERGY PREDICTED BY IDOCK:   -0.65 KCAL/MOL
REMARK 927      BINDING AFFINITY PREDICTED BY RF-SCORE:    0.00 PKD
ROOT
HETATM    1  C   UNL     1      -8.923   7.357  71.543  1.00  0.00    -0.132 C  
HETATM    2  C   UNL     1     -10.355   7.431  70.997  1.00  0.00    -0.201 C  
HETATM    3  C   UNL     1     -10.977   6.028  70.972  1.00  0.00    -0.350 C  
HETATM    4  C   UNL     1     -11.174   8.263  72.021  1.00  0.00    -0.389 C  
ENDROOT
BRANCH   2   5
HETATM    5  C   UNL     1     -10.451   8.165  69.620  1.00  0.00    -0.224 C  
BRANCH   5   6
HETATM    6  C   UNL     1     -10.007   7.546  68.240  1.00  0.00    -0.193 C  
HETATM    7  C   UNL     1     -10.982   6.463  67.725  1.00  0.00    -0.425 C  
HETATM    8  C   UNL     1      -8.613   6.889  68.316  1.00  0.00    -0.125 C  
BRANCH   6   9
HETATM    9  C   UNL     1     -10.020   8.701  67.201  1.00  0.00    -0.297 A  
HETATM   10  C   UNL     1      -9.369   8.624  65.957  1.00  0.00    -0.284 A  
HETATM   11  C   UNL     1      -9.408   9.683  65.048  1.00  0.00    -0.319 A  
HETATM   12  C   UNL     1     -10.084  10.856  65.359  1.00  0.00    -0.277 A  
HETATM   13  C   UNL     1     -10.691   9.906  67.496  1.00  0.00    -0.333 A  
HETATM   14  C   UNL     1     -10.719  10.973  66.591  1.00  0.00    -0.305 A  
BRANCH  12  15
HETATM   15  O   UNL     1     -10.021  11.824  64.394  1.00  0.00    -0.256 OA 
BRANCH  15  16
HETATM   16  C   UNL     1     -11.261  12.224  63.827  1.00  0.00    -0.440 C  
BRANCH  16  17
HETATM   17  C   UNL     1     -11.450  13.717  64.108  1.00  0.00    -0.329 C  
BRANCH  17  18
HETATM   18  O   UNL     1     -12.579  14.051  64.924  1.00  0.00    -0.587 OA 
BRANCH  18  19
HETATM   19  C   UNL     1     -12.455  13.827  66.325  1.00  0.00    -0.391 C  
BRANCH  19  20
HETATM   20  C   UNL     1     -11.421  14.766  66.961  1.00  0.00    -0.353 C  
BRANCH  20  21
HETATM   21  N   UNL     1     -11.209  14.592  68.471  1.00  0.00    -0.253 N  
HETATM   22  C   UNL     1     -11.979  13.330  68.882  1.00  0.00    -0.297 C  
HETATM   23  C   UNL     1      -9.733  14.363  68.776  1.00  0.00    -0.190 C  
BRANCH  21  24
HETATM   24  C   UNL     1     -11.767  15.820  69.239  1.00  0.00    -0.374 C  
BRANCH  24  25
HETATM   25  C   UNL     1     -12.299  15.529  70.617  1.00  0.00    -0.462 A  
HETATM   26  C   UNL     1     -13.655  15.211  70.792  1.00  0.00    -0.299 A  
HETATM   27  C   UNL     1     -14.190  15.090  72.073  1.00  0.00    -0.649 A  
HETATM   28  C   UNL     1     -13.375  15.265  73.188  1.00  0.00    -0.585 A  
HETATM   29  C   UNL     1     -12.016  15.522  73.027  1.00  0.00    -0.571 A  
HETATM   30  C   UNL     1     -11.475  15.640  71.747  1.00  0.00    -0.505 A  
ENDBRANCH  24  25
ENDBRANCH  21  24
ENDBRANCH  20  21
ENDBRANCH  19  20
ENDBRANCH  18  19
ENDBRANCH  17  18
ENDBRANCH  16  17
ENDBRANCH  15  16
ENDBRANCH  12  15
ENDBRANCH   6   9
ENDBRANCH   5   6
ENDBRANCH   2   5
TORSDOF 12
ENDMDL
MODEL       18
REMARK 921   NORMALIZED FREE ENERGY PREDICTED BY IDOCK:   -5.74 KCAL/MOL
REMARK 922        TOTAL FREE ENERGY PREDICTED BY IDOCK:  -11.03 KCAL/MOL
REMARK 923 INTER-LIGAND FREE ENERGY PREDICTED BY IDOCK:   -9.29 KCAL/MOL
REMARK 924 INTRA-LIGAND FREE ENERGY PREDICTED BY IDOCK:   -1.74 KCAL/MOL
REMARK 927      BINDING AFFINITY PREDICTED BY RF-SCORE:    0.00 PKD
ROOT
HETATM    1  C   UNL     1     -11.087  15.664  67.500  1.00  0.00    -0.289 C  
HETATM    2  C   UNL     1     -11.122  14.241  68.073  1.00  0.00    -0.286 C  
HETATM    3  C   UNL     1      -9.696  13.768  68.384  1.00  0.00    -0.219 C  
HETATM    4  C   UNL     1     -11.868  14.331  69.431  1.00  0.00    -0.372 C  
ENDROOT
BRANCH   2   5
HETATM    5  C   UNL     1     -11.914  13.237  67.173  1.00  0.00    -0.400 C  
BRANCH   5   6
HETATM    6  C   UNL     1     -11.460  12.766  65.738  1.00  0.00    -0.388 C  
HETATM    7  C   UNL     1     -10.414  13.707  65.100  1.00  0.00    -0.388 C  
HETATM    8  C   UNL     1     -12.642  12.681  64.751  1.00  0.00    -0.530 C  
BRANCH   6   9
HETATM    9  C   UNL     1     -10.781  11.380  65.911  1.00  0.00    -0.311 A  
HETATM   10  C   UNL     1      -9.977  10.788  64.921  1.00  0.00    -0.374 A  
HETATM   11  C   UNL     1      -9.379   9.542  65.117  1.00  0.00    -0.316 A  
HETATM   12  C   UNL     1      -9.579   8.841  66.300  1.00  0.00    -0.259 A  
HETATM   13  C   UNL     1     -10.976  10.643  67.099  1.00  0.00    -0.312 A  
HETATM   14  C   UNL     1     -10.389   9.387  67.290  1.00  0.00    -0.325 A  
BRANCH  12  15
HETATM   15  O   UNL     1      -8.961   7.621  66.352  1.00  0.00    -0.153 OA 
BRANCH  15  16
HETATM   16  C   UNL     1      -7.596   7.628  66.745  1.00  0.00    -0.098 C  
BRANCH  16  17
HETATM   17  C   UNL     1      -7.392   6.501  67.762  1.00  0.00    -0.096 C  
BRANCH  17  18
HETATM   18  O   UNL     1      -8.533   6.185  68.568  1.00  0.00    -0.113 OA 
BRANCH  18  19
HETATM   19  C   UNL     1      -8.581   6.751  69.874  1.00  0.00    -0.141 C  
BRANCH  19  20
HETATM   20  C   UNL     1      -9.228   5.793  70.883  1.00  0.00    -0.156 C  
BRANCH  20  21
HETATM   21  N   UNL     1     -10.545   6.278  71.506  1.00  0.00    -0.230 N  
HETATM   22  C   UNL     1     -11.544   6.441  70.354  1.00  0.00    -0.373 C  
HETATM   23  C   UNL     1     -11.097   5.228  72.463  1.00  0.00    -0.229 C  
BRANCH  21  24
HETATM   24  C   UNL     1     -10.335   7.642  72.216  1.00  0.00    -0.224 C  
BRANCH  24  25
HETATM   25  C   UNL     1     -11.269   8.741  71.785  1.00  0.00    -0.410 A  
HETATM   26  C   UNL     1     -10.835   9.711  70.867  1.00  0.00    -0.409 A  
HETATM   27  C   UNL     1     -11.634  10.815  70.578  1.00  0.00    -0.425 A  
HETATM   28  C   UNL     1     -12.879  10.952  71.186  1.00  0.00    -0.508 A  
HETATM   29  C   UNL     1     -13.346   9.967  72.053  1.00  0.00    -0.532 A  
HETATM   30  C   UNL     1     -12.552   8.858  72.342  1.00  0.00    -0.423 A  
ENDBRANCH  24  25
ENDBRANCH  21  24
ENDBRANCH  20  21
ENDBRANCH  19  20
ENDBRANCH  18  19
ENDBRANCH  17  18
ENDBRANCH  16  17
ENDBRANCH  15  16
ENDBRANCH  12  15
ENDBRANCH   6   9
ENDBRANCH   5   6
ENDBRANCH   2   5
TORSDOF 12
ENDMDL
MODEL       19
REMARK 921   NORMALIZED FREE ENERGY PREDICTED BY IDOCK:   -5.74 KCAL/MOL
REMARK 922        TOTAL FREE ENERGY PREDICTED BY IDOCK:  -11.03 KCAL/MOL
REMARK 923 INTER-LIGAND FREE ENERGY PREDICTED BY IDOCK:   -9.01 KCAL/MOL
REMARK 924 INTRA-LIGAND FREE ENERGY PREDICTED BY IDOCK:   -2.01 KCAL/MOL
REMARK 927      BINDING AFFINITY PREDICTED BY RF-SCORE:    0.00 PKD
ROOT
HETATM    1  C   UNL     1     -10.325  12.440  63.780  1.00  0.00    -0.454 C  
HETATM    2  C   UNL     1     -11.719  12.758  64.336  1.00  0.00    -0.426 C  
HETATM    3  C   UNL     1     -12.087  14.214  64.022  1.00  0.00    -0.382 C  
HETATM    4  C   UNL     1     -12.720  11.866  63.552  1.00  0.00    -0.530 C  
ENDROOT
BRANCH   2   5
HETATM    5  C   UNL     1     -11.872  12.405  65.852  1.00  0.00    -0.467 C  
BRANCH   5   6
HETATM    6  C   UNL     1     -11.314  13.281  67.038  1.00  0.00    -0.346 C  
HETATM    7  C   UNL     1     -11.952  14.687  67.098  1.00  0.00    -0.310 C  
HETATM    8  C   UNL     1      -9.789  13.488  66.944  1.00  0.00    -0.257 C  
BRANCH   6   9
HETATM    9  C   UNL     1     -11.695  12.551  68.356  1.00  0.00    -0.375 A  
HETATM   10  C   UNL     1     -11.967  13.227  69.559  1.00  0.00    -0.366 A  
HETATM   11  C   UNL     1     -12.310  12.536  70.721  1.00  0.00    -0.376 A  
HETATM   12  C   UNL     1     -12.378  11.148  70.724  1.00  0.00    -0.406 A  
HETATM   13  C   UNL     1     -11.761  11.142  68.387  1.00  0.00    -0.349 A  
HETATM   14  C   UNL     1     -12.092  10.448  69.556  1.00  0.00    -0.125 A  
BRANCH  12  15
HETATM   15  O   UNL     1     -12.697  10.594  71.933  1.00  0.00    -0.412 OA 
BRANCH  15  16
HETATM   16  C   UNL     1     -13.613   9.508  71.901  1.00  0.00    -0.391 C  
BRANCH  16  17
HETATM   17  C   UNL     1     -12.830   8.221  72.171  1.00  0.00    -0.315 C  
BRANCH  17  18
HETATM   18  O   UNL     1     -11.592   8.388  72.872  1.00  0.00    -0.294 OA 
BRANCH  18  19
HETATM   19  C   UNL     1     -10.501   7.569  72.465  1.00  0.00    -0.249 C  
BRANCH  19  20
HETATM   20  C   UNL     1     -10.140   7.796  70.991  1.00  0.00    -0.185 C  
BRANCH  20  21
HETATM   21  N   UNL     1     -10.073   6.530  70.124  1.00  0.00    -0.173 N  
HETATM   22  C   UNL     1      -9.889   5.347  71.083  1.00  0.00    -0.185 C  
HETATM   23  C   UNL     1     -11.386   6.330  69.375  1.00  0.00    -0.378 C  
BRANCH  21  24
HETATM   24  C   UNL     1      -8.867   6.607  69.149  1.00  0.00    -0.129 C  
BRANCH  24  25
HETATM   25  C   UNL     1      -8.911   7.742  68.162  1.00  0.00    -0.127 A  
HETATM   26  C   UNL     1      -8.153   8.901  68.390  1.00  0.00    -0.109 A  
HETATM   27  C   UNL     1      -8.302  10.014  67.566  1.00  0.00    -0.118 A  
HETATM   28  C   UNL     1      -9.192   9.974  66.496  1.00  0.00    -0.182 A  
HETATM   29  C   UNL     1      -9.906   8.810  66.223  1.00  0.00    -0.342 A  
HETATM   30  C   UNL     1      -9.757   7.692  67.043  1.00  0.00    -0.255 A  
ENDBRANCH  24  25
ENDBRANCH  21  24
ENDBRANCH  20  21
ENDBRANCH  19  20
ENDBRANCH  18  19
ENDBRANCH  17  18
ENDBRANCH  16  17
ENDBRANCH  15  16
ENDBRANCH  12  15
ENDBRANCH   6   9
ENDBRANCH   5   6
ENDBRANCH   2   5
TORSDOF 12
ENDMDL
MODEL       20
REMARK 921   NORMALIZED FREE ENERGY PREDICTED BY IDOCK:   -5.73 KCAL/MOL
REMARK 922        TOTAL FREE ENERGY PREDICTED BY IDOCK:  -11.01 KCAL/MOL
REMARK 923 INTER-LIGAND FREE ENERGY PREDICTED BY IDOCK:  -10.27 KCAL/MOL
REMARK 924 INTRA-LIGAND FREE ENERGY PREDICTED BY IDOCK:   -0.74 KCAL/MOL
REMARK 927      BINDING AFFINITY PREDICTED BY RF-SCORE:    0.00 PKD
ROOT
HETATM    1  C   UNL     1      -9.911   8.369  72.353  1.00  0.00    -0.378 C  
HETATM    2  C   UNL     1     -11.166   8.139  71.500  1.00  0.00    -0.307 C  
HETATM    3  C   UNL     1     -11.537   6.650  71.509  1.00  0.00    -0.357 C  
HETATM    4  C   UNL     1     -12.324   8.891  72.209  1.00  0.00    -0.430 C  
ENDROOT
BRANCH   2   5
HETATM    5  C   UNL     1     -11.044   8.728  70.057  1.00  0.00    -0.169 C  
BRANCH   5   6
HETATM    6  C   UNL     1     -10.236   8.060  68.879  1.00  0.00    -0.220 C  
HETATM    7  C   UNL     1     -10.859   6.728  68.403  1.00  0.00    -0.284 C  
HETATM    8  C   UNL     1      -8.777   7.752  69.273  1.00  0.00    -0.139 C  
BRANCH   6   9
HETATM    9  C   UNL     1     -10.291   9.043  67.678  1.00  0.00    -0.317 A  
HETATM   10  C   UNL     1      -9.676   8.782  66.441  1.00  0.00    -0.335 A  
HETATM   11  C   UNL     1      -9.753   9.690  65.383  1.00  0.00    -0.365 A  
HETATM   12  C   UNL     1     -10.432  10.893  65.533  1.00  0.00    -0.219 A  
HETATM   13  C   UNL     1     -10.966  10.275  67.807  1.00  0.00    -0.360 A  
HETATM   14  C   UNL     1     -11.031  11.192  66.752  1.00  0.00    -0.309 A  
BRANCH  12  15
HETATM   15  O   UNL     1     -10.406  11.703  64.431  1.00  0.00    -0.271 OA 
BRANCH  15  16
HETATM   16  C   UNL     1     -11.528  11.615  63.564  1.00  0.00    -0.329 C  
BRANCH  16  17
HETATM   17  C   UNL     1     -12.118  13.020  63.410  1.00  0.00    -0.515 C  
BRANCH  17  18
HETATM   18  O   UNL     1     -12.676  13.587  64.601  1.00  0.00    -0.641 OA 
BRANCH  18  19
HETATM   19  C   UNL     1     -12.022  14.730  65.142  1.00  0.00    -0.278 C  
BRANCH  19  20
HETATM   20  C   UNL     1     -11.727  14.560  66.639  1.00  0.00    -0.371 C  
BRANCH  20  21
HETATM   21  N   UNL     1     -10.527  15.355  67.172  1.00  0.00    -0.284 N  
HETATM   22  C   UNL     1      -9.738  14.405  68.082  1.00  0.00    -0.223 C  
HETATM   23  C   UNL     1      -9.615  15.772  66.024  1.00  0.00    -0.353 C  
BRANCH  21  24
HETATM   24  C   UNL     1     -11.013  16.582  67.989  1.00  0.00    -0.320 C  
BRANCH  24  25
HETATM   25  C   UNL     1     -10.217  17.843  67.789  1.00  0.00    -0.372 A  
HETATM   26  C   UNL     1      -9.017  18.035  68.492  1.00  0.00    -0.297 A  
HETATM   27  C   UNL     1      -8.353  19.258  68.431  1.00  0.00    -0.383 A  
HETATM   28  C   UNL     1      -8.867  20.292  67.655  1.00  0.00    -0.368 A  
HETATM   29  C   UNL     1     -10.025  20.096  66.906  1.00  0.00    -0.600 A  
HETATM   30  C   UNL     1     -10.691  18.872  66.960  1.00  0.00    -0.477 A  
ENDBRANCH  24  25
ENDBRANCH  21  24
ENDBRANCH  20  21
ENDBRANCH  19  20
ENDBRANCH  18  19
ENDBRANCH  17  18
ENDBRANCH  16  17
ENDBRANCH  15  16
ENDBRANCH  12  15
ENDBRANCH   6   9
ENDBRANCH   5   6
ENDBRANCH   2   5
TORSDOF 12
ENDMDL
MODEL       21
REMARK 921   NORMALIZED FREE ENERGY PREDICTED BY IDOCK:   -5.69 KCAL/MOL
REMARK 922        TOTAL FREE ENERGY PREDICTED BY IDOCK:  -10.96 KCAL/MOL
REMARK 923 INTER-LIGAND FREE ENERGY PREDICTED BY IDOCK:   -9.15 KCAL/MOL
REMARK 924 INTRA-LIGAND FREE ENERGY PREDICTED BY IDOCK:   -1.81 KCAL/MOL
REMARK 927      BINDING AFFINITY PREDICTED BY RF-SCORE:    0.00 PKD
ROOT
HETATM    1  C   UNL     1     -11.026  16.145  67.870  1.00  0.00    -0.318 C  
HETATM    2  C   UNL     1     -11.107  14.665  68.266  1.00  0.00    -0.283 C  
HETATM    3  C   UNL     1      -9.696  14.113  68.512  1.00  0.00    -0.219 C  
HETATM    4  C   UNL     1     -11.850  14.614  69.628  1.00  0.00    -0.367 C  
ENDROOT
BRANCH   2   5
HETATM    5  C   UNL     1     -11.930  13.803  67.254  1.00  0.00    -0.436 C  
BRANCH   5   6
HETATM    6  C   UNL     1     -11.416  13.350  65.834  1.00  0.00    -0.344 C  
HETATM    7  C   UNL     1     -10.210  14.179  65.339  1.00  0.00    -0.380 C  
HETATM    8  C   UNL     1     -12.510  13.467  64.753  1.00  0.00    -0.402 C  
BRANCH   6   9
HETATM    9  C   UNL     1     -10.933  11.880  65.976  1.00  0.00    -0.355 A  
HETATM   10  C   UNL     1     -11.159  11.103  67.125  1.00  0.00    -0.352 A  
HETATM   11  C   UNL     1     -10.713   9.784  67.212  1.00  0.00    -0.296 A  
HETATM   12  C   UNL     1     -10.013   9.204  66.161  1.00  0.00    -0.268 A  
HETATM   13  C   UNL     1     -10.212  11.272  64.926  1.00  0.00    -0.341 A  
HETATM   14  C   UNL     1      -9.751   9.954  65.018  1.00  0.00    -0.359 A  
BRANCH  12  15
HETATM   15  O   UNL     1      -9.608   7.917  66.385  1.00  0.00    -0.209 OA 
BRANCH  15  16
HETATM   16  C   UNL     1     -10.226   7.248  67.476  1.00  0.00    -0.221 C  
BRANCH  16  17
HETATM   17  C   UNL     1      -9.121   6.729  68.400  1.00  0.00    -0.125 C  
BRANCH  17  18
HETATM   18  O   UNL     1      -8.544   7.704  69.277  1.00  0.00    -0.134 OA 
BRANCH  18  19
HETATM   19  C   UNL     1      -8.417   7.346  70.650  1.00  0.00    -0.136 C  
BRANCH  19  20
HETATM   20  C   UNL     1      -9.405   6.238  71.041  1.00  0.00    -0.161 C  
BRANCH  20  21
HETATM   21  N   UNL     1     -10.579   6.681  71.926  1.00  0.00    -0.209 N  
HETATM   22  C   UNL     1     -11.039   5.440  72.702  1.00  0.00    -0.278 C  
HETATM   23  C   UNL     1     -10.116   7.724  72.937  1.00  0.00    -0.301 C  
BRANCH  21  24
HETATM   24  C   UNL     1     -11.744   7.213  71.049  1.00  0.00    -0.320 C  
BRANCH  24  25
HETATM   25  C   UNL     1     -12.115   8.653  71.279  1.00  0.00    -0.333 A  
HETATM   26  C   UNL     1     -13.163   8.977  72.154  1.00  0.00    -0.504 A  
HETATM   27  C   UNL     1     -13.615  10.291  72.258  1.00  0.00    -0.165 A  
HETATM   28  C   UNL     1     -13.012  11.296  71.506  1.00  0.00    -0.520 A  
HETATM   29  C   UNL     1     -11.931  10.998  70.678  1.00  0.00    -0.464 A  
HETATM   30  C   UNL     1     -11.474   9.684  70.575  1.00  0.00    -0.352 A  
ENDBRANCH  24  25
ENDBRANCH  21  24
ENDBRANCH  20  21
ENDBRANCH  19  20
ENDBRANCH  18  19
ENDBRANCH  17  18
ENDBRANCH  16  17
ENDBRANCH  15  16
ENDBRANCH  12  15
ENDBRANCH   6   9
ENDBRANCH   5   6
ENDBRANCH   2   5
TORSDOF 12
ENDMDL
MODEL       22
REMARK 921   NORMALIZED FREE ENERGY PREDICTED BY IDOCK:   -5.67 KCAL/MOL
REMARK 922        TOTAL FREE ENERGY PREDICTED BY IDOCK:  -10.91 KCAL/MOL
REMARK 923 INTER-LIGAND FREE ENERGY PREDICTED BY IDOCK:   -9.78 KCAL/MOL
REMARK 924 INTRA-LIGAND FREE ENERGY PREDICTED BY IDOCK:   -1.13 KCAL/MOL
REMARK 927      BINDING AFFINITY PREDICTED BY RF-SCORE:    0.00 PKD
ROOT
HETATM    1  C   UNL     1      -9.264   5.946  72.295  1.00  0.00    -0.149 C  
HETATM    2  C   UNL     1     -10.556   6.249  73.064  1.00  0.00    -0.263 C  
HETATM    3  C   UNL     1     -11.521   5.061  72.954  1.00  0.00    -0.306 C  
HETATM    4  C   UNL     1     -10.160   6.365  74.561  1.00  0.00    -0.358 C  
ENDROOT
BRANCH   2   5
HETATM    5  C   UNL     1     -11.212   7.607  72.652  1.00  0.00    -0.419 C  
BRANCH   5   6
HETATM    6  C   UNL     1     -12.128   7.813  71.385  1.00  0.00    -0.335 C  
HETATM    7  C   UNL     1     -13.570   7.298  71.596  1.00  0.00    -0.435 C  
HETATM    8  C   UNL     1     -11.575   7.089  70.140  1.00  0.00    -0.273 C  
BRANCH   6   9
HETATM    9  C   UNL     1     -12.222   9.344  71.139  1.00  0.00    -0.402 A  
HETATM   10  C   UNL     1     -11.489  10.010  70.141  1.00  0.00    -0.344 A  
HETATM   11  C   UNL     1     -11.606  11.387  69.948  1.00  0.00    -0.402 A  
HETATM   12  C   UNL     1     -12.445  12.145  70.756  1.00  0.00    -0.271 A  
HETATM   13  C   UNL     1     -13.060  10.137  71.952  1.00  0.00    -0.571 A  
HETATM   14  C   UNL     1     -13.166  11.521  71.768  1.00  0.00    -0.456 A  
BRANCH  12  15
HETATM   15  O   UNL     1     -12.445  13.485  70.481  1.00  0.00    -0.332 OA 
BRANCH  15  16
HETATM   16  C   UNL     1     -12.183  13.847  69.132  1.00  0.00    -0.267 C  
BRANCH  16  17
HETATM   17  C   UNL     1     -10.933  14.729  69.113  1.00  0.00    -0.267 C  
BRANCH  17  18
HETATM   18  O   UNL     1     -10.095  14.584  67.960  1.00  0.00    -0.220 OA 
BRANCH  18  19
HETATM   19  C   UNL     1      -8.925  13.785  68.106  1.00  0.00    -0.190 C  
BRANCH  19  20
HETATM   20  C   UNL     1      -8.679  12.909  66.870  1.00  0.00    -0.161 C  
BRANCH  20  21
HETATM   21  N   UNL     1      -8.489  11.410  67.149  1.00  0.00    -0.147 N  
HETATM   22  C   UNL     1      -7.353  10.932  66.236  1.00  0.00    -0.127 C  
HETATM   23  C   UNL     1      -8.056  11.191  68.594  1.00  0.00    -0.150 C  
BRANCH  21  24
HETATM   24  C   UNL     1      -9.791  10.632  66.818  1.00  0.00    -0.198 C  
BRANCH  24  25
HETATM   25  C   UNL     1     -10.641  11.233  65.732  1.00  0.00    -0.306 A  
HETATM   26  C   UNL     1     -10.342  10.977  64.384  1.00  0.00    -0.424 A  
HETATM   27  C   UNL     1     -11.024  11.648  63.372  1.00  0.00    -0.442 A  
HETATM   28  C   UNL     1     -12.024  12.562  63.693  1.00  0.00    -0.621 A  
HETATM   29  C   UNL     1     -12.371  12.781  65.024  1.00  0.00    -0.559 A  
HETATM   30  C   UNL     1     -11.693  12.109  66.041  1.00  0.00    -0.388 A  
ENDBRANCH  24  25
ENDBRANCH  21  24
ENDBRANCH  20  21
ENDBRANCH  19  20
ENDBRANCH  18  19
ENDBRANCH  17  18
ENDBRANCH  16  17
ENDBRANCH  15  16
ENDBRANCH  12  15
ENDBRANCH   6   9
ENDBRANCH   5   6
ENDBRANCH   2   5
TORSDOF 12
ENDMDL
MODEL       23
REMARK 921   NORMALIZED FREE ENERGY PREDICTED BY IDOCK:   -5.63 KCAL/MOL
REMARK 922        TOTAL FREE ENERGY PREDICTED BY IDOCK:  -10.85 KCAL/MOL
REMARK 923 INTER-LIGAND FREE ENERGY PREDICTED BY IDOCK:   -9.39 KCAL/MOL
REMARK 924 INTRA-LIGAND FREE ENERGY PREDICTED BY IDOCK:   -1.46 KCAL/MOL
REMARK 927      BINDING AFFINITY PREDICTED BY RF-SCORE:    0.00 PKD
ROOT
HETATM    1  C   UNL     1      -9.925   5.756  72.045  1.00  0.00    -0.208 C  
HETATM    2  C   UNL     1     -10.180   6.950  72.976  1.00  0.00    -0.243 C  
HETATM    3  C   UNL     1      -9.847   6.564  74.423  1.00  0.00    -0.355 C  
HETATM    4  C   UNL     1      -9.168   8.053  72.564  1.00  0.00    -0.280 C  
ENDROOT
BRANCH   2   5
HETATM    5  C   UNL     1     -11.614   7.554  72.821  1.00  0.00    -0.299 C  
BRANCH   5   6
HETATM    6  C   UNL     1     -12.359   7.758  71.447  1.00  0.00    -0.346 C  
HETATM    7  C   UNL     1     -13.860   7.396  71.518  1.00  0.00    -0.483 C  
HETATM    8  C   UNL     1     -11.749   6.901  70.319  1.00  0.00    -0.344 C  
BRANCH   6   9
HETATM    9  C   UNL     1     -12.271   9.270  71.104  1.00  0.00    -0.373 A  
HETATM   10  C   UNL     1     -13.051  10.251  71.743  1.00  0.00    -0.570 A  
HETATM   11  C   UNL     1     -12.938  11.601  71.410  1.00  0.00    -0.426 A  
HETATM   12  C   UNL     1     -12.055  12.014  70.419  1.00  0.00    -0.321 A  
HETATM   13  C   UNL     1     -11.389   9.713  70.096  1.00  0.00    -0.275 A  
HETATM   14  C   UNL     1     -11.286  11.066  69.752  1.00  0.00    -0.366 A  
BRANCH  12  15
HETATM   15  O   UNL     1     -12.063  13.359  70.171  1.00  0.00    -0.333 OA 
BRANCH  15  16
HETATM   16  C   UNL     1     -12.028  13.743  68.803  1.00  0.00    -0.365 C  
BRANCH  16  17
HETATM   17  C   UNL     1     -10.828  14.672  68.604  1.00  0.00    -0.255 C  
BRANCH  17  18
HETATM   18  O   UNL     1     -10.594  15.094  67.255  1.00  0.00    -0.274 OA 
BRANCH  18  19
HETATM   19  C   UNL     1     -11.498  14.622  66.262  1.00  0.00    -0.351 C  
BRANCH  19  20
HETATM   20  C   UNL     1     -10.764  14.193  64.984  1.00  0.00    -0.416 C  
BRANCH  20  21
HETATM   21  N   UNL     1     -11.090  12.781  64.476  1.00  0.00    -0.312 N  
HETATM   22  C   UNL     1     -12.285  12.919  63.525  1.00  0.00    -0.512 C  
HETATM   23  C   UNL     1      -9.917  12.220  63.681  1.00  0.00    -0.264 C  
BRANCH  21  24
HETATM   24  C   UNL     1     -11.469  11.855  65.664  1.00  0.00    -0.255 C  
BRANCH  24  25
HETATM   25  C   UNL     1     -10.320  11.114  66.293  1.00  0.00    -0.299 A  
HETATM   26  C   UNL     1     -10.327   9.711  66.332  1.00  0.00    -0.246 A  
HETATM   27  C   UNL     1      -9.348   9.021  67.044  1.00  0.00    -0.190 A  
HETATM   28  C   UNL     1      -8.343   9.722  67.704  1.00  0.00    -0.114 A  
HETATM   29  C   UNL     1      -8.289  11.112  67.623  1.00  0.00    -0.122 A  
HETATM   30  C   UNL     1      -9.265  11.806  66.908  1.00  0.00    -0.189 A  
ENDBRANCH  24  25
ENDBRANCH  21  24
ENDBRANCH  20  21
ENDBRANCH  19  20
ENDBRANCH  18  19
ENDBRANCH  17  18
ENDBRANCH  16  17
ENDBRANCH  15  16
ENDBRANCH  12  15
ENDBRANCH   6   9
ENDBRANCH   5   6
ENDBRANCH   2   5
TORSDOF 12
ENDMDL
MODEL       24
REMARK 921   NORMALIZED FREE ENERGY PREDICTED BY IDOCK:   -5.62 KCAL/MOL
REMARK 922        TOTAL FREE ENERGY PREDICTED BY IDOCK:  -10.83 KCAL/MOL
REMARK 923 INTER-LIGAND FREE ENERGY PREDICTED BY IDOCK:  -10.31 KCAL/MOL
REMARK 924 INTRA-LIGAND FREE ENERGY PREDICTED BY IDOCK:   -0.52 KCAL/MOL
REMARK 927      BINDING AFFINITY PREDICTED BY RF-SCORE:    0.00 PKD
ROOT
HETATM    1  C   UNL     1      -9.865   5.237  69.134  1.00  0.00    -0.257 C  
HETATM    2  C   UNL     1     -10.087   6.049  70.417  1.00  0.00    -0.249 C  
HETATM    3  C   UNL     1     -10.510   5.116  71.560  1.00  0.00    -0.256 C  
HETATM    4  C   UNL     1      -8.705   6.638  70.810  1.00  0.00    -0.143 C  
ENDROOT
BRANCH   2   5
HETATM    5  C   UNL     1     -11.065   7.253  70.220  1.00  0.00    -0.289 C  
BRANCH   5   6
HETATM    6  C   UNL     1     -11.963   7.876  71.357  1.00  0.00    -0.331 C  
HETATM    7  C   UNL     1     -11.331   7.743  72.761  1.00  0.00    -0.446 C  
HETATM    8  C   UNL     1     -13.354   7.213  71.431  1.00  0.00    -0.380 C  
BRANCH   6   9
HETATM    9  C   UNL     1     -12.088   9.394  71.055  1.00  0.00    -0.373 A  
HETATM   10  C   UNL     1     -12.950  10.251  71.761  1.00  0.00    -0.574 A  
HETATM   11  C   UNL     1     -13.030  11.612  71.462  1.00  0.00    -0.463 A  
HETATM   12  C   UNL     1     -12.263  12.157  70.440  1.00  0.00    -0.294 A  
HETATM   13  C   UNL     1     -11.327   9.970  70.015  1.00  0.00    -0.334 A  
HETATM   14  C   UNL     1     -11.416  11.332  69.706  1.00  0.00    -0.386 A  
BRANCH  12  15
HETATM   15  O   UNL     1     -12.456  13.495  70.231  1.00  0.00    -0.302 OA 
BRANCH  15  16
HETATM   16  C   UNL     1     -13.081  14.209  71.289  1.00  0.00    -0.350 C  
BRANCH  16  17
HETATM   17  C   UNL     1     -12.569  15.651  71.255  1.00  0.00    -0.463 C  
BRANCH  17  18
HETATM   18  O   UNL     1     -11.201  15.808  70.859  1.00  0.00    -0.333 OA 
BRANCH  18  19
HETATM   19  C   UNL     1     -10.958  16.413  69.593  1.00  0.00    -0.329 C  
BRANCH  19  20
HETATM   20  C   UNL     1      -9.629  15.944  68.986  1.00  0.00    -0.247 C  
BRANCH  20  21
HETATM   21  N   UNL     1      -9.721  15.338  67.578  1.00  0.00    -0.205 N  
HETATM   22  C   UNL     1      -9.056  13.957  67.647  1.00  0.00    -0.197 C  
HETATM   23  C   UNL     1     -11.180  15.139  67.182  1.00  0.00    -0.320 C  
BRANCH  21  24
HETATM   24  C   UNL     1      -8.970  16.232  66.556  1.00  0.00    -0.278 C  
BRANCH  24  25
HETATM   25  C   UNL     1      -9.178  17.714  66.723  1.00  0.00    -0.281 A  
HETATM   26  C   UNL     1      -8.221  18.485  67.402  1.00  0.00    -0.259 A  
HETATM   27  C   UNL     1      -8.474  19.823  67.695  1.00  0.00    -0.361 A  
HETATM   28  C   UNL     1      -9.673  20.409  67.297  1.00  0.00    -0.602 A  
HETATM   29  C   UNL     1     -10.605  19.671  66.570  1.00  0.00    -0.591 A  
HETATM   30  C   UNL     1     -10.354  18.332  66.271  1.00  0.00    -0.422 A  
ENDBRANCH  24  25
ENDBRANCH  21  24
ENDBRANCH  20  21
ENDBRANCH  19  20
ENDBRANCH  18  19
ENDBRANCH  17  18
ENDBRANCH  16  17
ENDBRANCH  15  16
ENDBRANCH  12  15
ENDBRANCH   6   9
ENDBRANCH   5   6
ENDBRANCH   2   5
TORSDOF 12
ENDMDL
MODEL       25
REMARK 921   NORMALIZED FREE ENERGY PREDICTED BY IDOCK:   -5.62 KCAL/MOL
REMARK 922        TOTAL FREE ENERGY PREDICTED BY IDOCK:  -10.83 KCAL/MOL
REMARK 923 INTER-LIGAND FREE ENERGY PREDICTED BY IDOCK:  -10.26 KCAL/MOL
REMARK 924 INTRA-LIGAND FREE ENERGY PREDICTED BY IDOCK:   -0.57 KCAL/MOL
REMARK 927      BINDING AFFINITY PREDICTED BY RF-SCORE:    0.00 PKD
ROOT
HETATM    1  C   UNL     1      -9.696   7.299  66.617  1.00  0.00    -0.249 C  
HETATM    2  C   UNL     1      -9.412   7.261  68.124  1.00  0.00    -0.134 C  
HETATM    3  C   UNL     1      -9.426   5.809  68.622  1.00  0.00    -0.144 C  
HETATM    4  C   UNL     1      -7.962   7.783  68.313  1.00  0.00    -0.122 C  
ENDROOT
BRANCH   2   5
HETATM    5  C   UNL     1     -10.354   8.197  68.950  1.00  0.00    -0.225 C  
BRANCH   5   6
HETATM    6  C   UNL     1     -10.820   7.921  70.431  1.00  0.00    -0.244 C  
HETATM    7  C   UNL     1      -9.639   7.786  71.417  1.00  0.00    -0.182 C  
HETATM    8  C   UNL     1     -11.649   6.625  70.550  1.00  0.00    -0.448 C  
BRANCH   6   9
HETATM    9  C   UNL     1     -11.651   9.154  70.881  1.00  0.00    -0.350 A  
HETATM   10  C   UNL     1     -11.460  10.444  70.354  1.00  0.00    -0.420 A  
HETATM   11  C   UNL     1     -12.231  11.526  70.781  1.00  0.00    -0.463 A  
HETATM   12  C   UNL     1     -13.205  11.358  71.757  1.00  0.00    -0.367 A  
HETATM   13  C   UNL     1     -12.639   9.012  71.877  1.00  0.00    -0.452 A  
HETATM   14  C   UNL     1     -13.403  10.099  72.316  1.00  0.00    -0.337 A  
BRANCH  12  15
HETATM   15  O   UNL     1     -13.868  12.503  72.105  1.00  0.00    -0.343 OA 
BRANCH  15  16
HETATM   16  C   UNL     1     -13.086  13.688  72.155  1.00  0.00    -0.396 C  
BRANCH  16  17
HETATM   17  C   UNL     1     -13.898  14.818  71.517  1.00  0.00    -0.450 C  
BRANCH  17  18
HETATM   18  O   UNL     1     -13.153  15.722  70.694  1.00  0.00    -0.497 OA 
BRANCH  18  19
HETATM   19  C   UNL     1     -11.981  15.212  70.066  1.00  0.00    -0.336 C  
BRANCH  19  20
HETATM   20  C   UNL     1     -11.809  15.768  68.646  1.00  0.00    -0.275 C  
BRANCH  20  21
HETATM   21  N   UNL     1     -10.820  15.006  67.752  1.00  0.00    -0.276 N  
HETATM   22  C   UNL     1     -10.270  13.846  68.591  1.00  0.00    -0.218 C  
HETATM   23  C   UNL     1     -11.543  14.414  66.547  1.00  0.00    -0.378 C  
BRANCH  21  24
HETATM   24  C   UNL     1      -9.658  15.939  67.318  1.00  0.00    -0.217 C  
BRANCH  24  25
HETATM   25  C   UNL     1      -9.949  17.413  67.405  1.00  0.00    -0.305 A  
HETATM   26  C   UNL     1     -10.408  18.105  66.274  1.00  0.00    -0.407 A  
HETATM   27  C   UNL     1     -10.535  19.492  66.300  1.00  0.00    -0.609 A  
HETATM   28  C   UNL     1     -10.226  20.198  67.460  1.00  0.00    -0.520 A  
HETATM   29  C   UNL     1      -9.827  19.517  68.608  1.00  0.00    -0.530 A  
HETATM   30  C   UNL     1      -9.703  18.128  68.587  1.00  0.00    -0.367 A  
ENDBRANCH  24  25
ENDBRANCH  21  24
ENDBRANCH  20  21
ENDBRANCH  19  20
ENDBRANCH  18  19
ENDBRANCH  17  18
ENDBRANCH  16  17
ENDBRANCH  15  16
ENDBRANCH  12  15
ENDBRANCH   6   9
ENDBRANCH   5   6
ENDBRANCH   2   5
TORSDOF 12
ENDMDL
MODEL       26
REMARK 921   NORMALIZED FREE ENERGY PREDICTED BY IDOCK:   -5.61 KCAL/MOL
REMARK 922        TOTAL FREE ENERGY PREDICTED BY IDOCK:  -10.81 KCAL/MOL
REMARK 923 INTER-LIGAND FREE ENERGY PREDICTED BY IDOCK:   -8.55 KCAL/MOL
REMARK 924 INTRA-LIGAND FREE ENERGY PREDICTED BY IDOCK:   -2.27 KCAL/MOL
REMARK 927      BINDING AFFINITY PREDICTED BY RF-SCORE:    0.00 PKD
ROOT
HETATM    1  C   UNL     1     -10.308  12.133  63.789  1.00  0.00    -0.465 C  
HETATM    2  C   UNL     1     -11.680  12.650  64.240  1.00  0.00    -0.446 C  
HETATM    3  C   UNL     1     -11.839  14.124  63.842  1.00  0.00    -0.211 C  
HETATM    4  C   UNL     1     -12.739  11.853  63.432  1.00  0.00    -0.496 C  
ENDROOT
BRANCH   2   5
HETATM    5  C   UNL     1     -11.965  12.395  65.756  1.00  0.00    -0.437 C  
BRANCH   5   6
HETATM    6  C   UNL     1     -11.217  13.114  66.944  1.00  0.00    -0.328 C  
HETATM    7  C   UNL     1     -11.765  14.530  67.230  1.00  0.00    -0.429 C  
HETATM    8  C   UNL     1      -9.706  13.268  66.674  1.00  0.00    -0.270 C  
BRANCH   6   9
HETATM    9  C   UNL     1     -11.469  12.262  68.218  1.00  0.00    -0.367 A  
HETATM   10  C   UNL     1     -11.286  10.869  68.260  1.00  0.00    -0.347 A  
HETATM   11  C   UNL     1     -11.517  10.139  69.427  1.00  0.00    -0.202 A  
HETATM   12  C   UNL     1     -11.954  10.774  70.583  1.00  0.00    -0.367 A  
HETATM   13  C   UNL     1     -11.922  12.882  69.402  1.00  0.00    -0.327 A  
HETATM   14  C   UNL     1     -12.168  12.149  70.568  1.00  0.00    -0.392 A  
BRANCH  12  15
HETATM   15  O   UNL     1     -12.171   9.941  71.646  1.00  0.00    -0.382 OA 
BRANCH  15  16
HETATM   16  C   UNL     1     -11.251   8.869  71.797  1.00  0.00    -0.362 C  
BRANCH  16  17
HETATM   17  C   UNL     1     -12.055   7.573  71.937  1.00  0.00    -0.305 C  
BRANCH  17  18
HETATM   18  O   UNL     1     -11.498   6.430  71.277  1.00  0.00    -0.295 OA 
BRANCH  18  19
HETATM   19  C   UNL     1     -11.574   6.401  69.855  1.00  0.00    -0.353 C  
BRANCH  19  20
HETATM   20  C   UNL     1     -10.390   5.643  69.239  1.00  0.00    -0.270 C  
BRANCH  20  21
HETATM   21  N   UNL     1      -9.977   6.093  67.831  1.00  0.00    -0.126 N  
HETATM   22  C   UNL     1     -10.082   4.860  66.924  1.00  0.00    -0.222 C  
HETATM   23  C   UNL     1     -10.945   7.148  67.306  1.00  0.00    -0.263 C  
BRANCH  21  24
HETATM   24  C   UNL     1      -8.515   6.615  67.839  1.00  0.00    -0.119 C  
BRANCH  24  25
HETATM   25  C   UNL     1      -8.347   8.049  68.262  1.00  0.00    -0.123 A  
HETATM   26  C   UNL     1      -8.156   9.049  67.295  1.00  0.00    -0.103 A  
HETATM   27  C   UNL     1      -7.848  10.352  67.679  1.00  0.00    -0.105 A  
HETATM   28  C   UNL     1      -7.748  10.674  69.030  1.00  0.00    -0.130 A  
HETATM   29  C   UNL     1      -7.994   9.706  70.000  1.00  0.00    -0.182 A  
HETATM   30  C   UNL     1      -8.306   8.401  69.620  1.00  0.00    -0.122 A  
ENDBRANCH  24  25
ENDBRANCH  21  24
ENDBRANCH  20  21
ENDBRANCH  19  20
ENDBRANCH  18  19
ENDBRANCH  17  18
ENDBRANCH  16  17
ENDBRANCH  15  16
ENDBRANCH  12  15
ENDBRANCH   6   9
ENDBRANCH   5   6
ENDBRANCH   2   5
TORSDOF 12
ENDMDL
MODEL       27
REMARK 921   NORMALIZED FREE ENERGY PREDICTED BY IDOCK:   -5.61 KCAL/MOL
REMARK 922        TOTAL FREE ENERGY PREDICTED BY IDOCK:  -10.81 KCAL/MOL
REMARK 923 INTER-LIGAND FREE ENERGY PREDICTED BY IDOCK:   -8.98 KCAL/MOL
REMARK 924 INTRA-LIGAND FREE ENERGY PREDICTED BY IDOCK:   -1.83 KCAL/MOL
REMARK 927      BINDING AFFINITY PREDICTED BY RF-SCORE:    0.00 PKD
ROOT
HETATM    1  C   UNL     1     -11.871   7.118  70.764  1.00  0.00    -0.367 C  
HETATM    2  C   UNL     1     -11.520   8.193  71.802  1.00  0.00    -0.337 C  
HETATM    3  C   UNL     1     -12.794   8.926  72.245  1.00  0.00    -0.475 C  
HETATM    4  C   UNL     1     -10.981   7.442  73.049  1.00  0.00    -0.422 C  
ENDROOT
BRANCH   2   5
HETATM    5  C   UNL     1     -10.394   9.166  71.322  1.00  0.00    -0.405 C  
BRANCH   5   6
HETATM    6  C   UNL     1      -9.165   8.746  70.428  1.00  0.00    -0.204 C  
HETATM    7  C   UNL     1      -9.161   7.239  70.083  1.00  0.00    -0.148 C  
HETATM    8  C   UNL     1      -7.816   9.049  71.110  1.00  0.00    -0.154 C  
BRANCH   6   9
HETATM    9  C   UNL     1      -9.295   9.520  69.088  1.00  0.00    -0.163 A  
HETATM   10  C   UNL     1      -8.548  10.673  68.790  1.00  0.00    -0.150 A  
HETATM   11  C   UNL     1      -8.691  11.338  67.571  1.00  0.00    -0.138 A  
HETATM   12  C   UNL     1      -9.594  10.882  66.618  1.00  0.00    -0.185 A  
HETATM   13  C   UNL     1     -10.212   9.083  68.108  1.00  0.00    -0.247 A  
HETATM   14  C   UNL     1     -10.365   9.757  66.892  1.00  0.00    -0.301 A  
BRANCH  12  15
HETATM   15  O   UNL     1      -9.656  11.640  65.481  1.00  0.00    -0.226 OA 
BRANCH  15  16
HETATM   16  C   UNL     1     -10.950  12.079  65.092  1.00  0.00    -0.310 C  
BRANCH  16  17
HETATM   17  C   UNL     1     -10.796  13.413  64.357  1.00  0.00    -0.406 C  
BRANCH  17  18
HETATM   18  O   UNL     1     -11.080  14.582  65.136  1.00  0.00    -0.330 OA 
BRANCH  18  19
HETATM   19  C   UNL     1      -9.970  15.375  65.543  1.00  0.00    -0.344 C  
BRANCH  19  20
HETATM   20  C   UNL     1      -9.471  14.977  66.939  1.00  0.00    -0.238 C  
BRANCH  20  21
HETATM   21  N   UNL     1      -9.990  15.840  68.098  1.00  0.00    -0.213 N  
HETATM   22  C   UNL     1      -9.246  15.380  69.358  1.00  0.00    -0.268 C  
HETATM   23  C   UNL     1      -9.650  17.307  67.860  1.00  0.00    -0.269 C  
BRANCH  21  24
HETATM   24  C   UNL     1     -11.517  15.631  68.284  1.00  0.00    -0.350 C  
BRANCH  24  25
HETATM   25  C   UNL     1     -11.904  14.460  69.147  1.00  0.00    -0.359 A  
HETATM   26  C   UNL     1     -12.421  14.677  70.434  1.00  0.00    -0.410 A  
HETATM   27  C   UNL     1     -12.640  13.605  71.295  1.00  0.00    -0.435 A  
HETATM   28  C   UNL     1     -12.365  12.306  70.875  1.00  0.00    -0.363 A  
HETATM   29  C   UNL     1     -11.908  12.072  69.580  1.00  0.00    -0.401 A  
HETATM   30  C   UNL     1     -11.692  13.142  68.713  1.00  0.00    -0.363 A  
ENDBRANCH  24  25
ENDBRANCH  21  24
ENDBRANCH  20  21
ENDBRANCH  19  20
ENDBRANCH  18  19
ENDBRANCH  17  18
ENDBRANCH  16  17
ENDBRANCH  15  16
ENDBRANCH  12  15
ENDBRANCH   6   9
ENDBRANCH   5   6
ENDBRANCH   2   5
TORSDOF 12
ENDMDL
MODEL       28
REMARK 921   NORMALIZED FREE ENERGY PREDICTED BY IDOCK:   -5.58 KCAL/MOL
REMARK 922        TOTAL FREE ENERGY PREDICTED BY IDOCK:  -10.77 KCAL/MOL
REMARK 923 INTER-LIGAND FREE ENERGY PREDICTED BY IDOCK:   -9.56 KCAL/MOL
REMARK 924 INTRA-LIGAND FREE ENERGY PREDICTED BY IDOCK:   -1.21 KCAL/MOL
REMARK 927      BINDING AFFINITY PREDICTED BY RF-SCORE:    0.00 PKD
ROOT
HETATM    1  C   UNL     1      -9.341   5.333  72.547  1.00  0.00    -0.154 C  
HETATM    2  C   UNL     1      -9.531   5.690  71.067  1.00  0.00    -0.200 C  
HETATM    3  C   UNL     1      -8.200   6.167  70.470  1.00  0.00    -0.114 C  
HETATM    4  C   UNL     1      -9.898   4.369  70.339  1.00  0.00    -0.286 C  
ENDROOT
BRANCH   2   5
HETATM    5  C   UNL     1     -10.703   6.696  70.823  1.00  0.00    -0.282 C  
BRANCH   5   6
HETATM    6  C   UNL     1     -10.705   8.202  71.288  1.00  0.00    -0.270 C  
HETATM    7  C   UNL     1      -9.385   8.620  71.975  1.00  0.00    -0.362 C  
HETATM    8  C   UNL     1     -11.841   8.504  72.286  1.00  0.00    -0.453 C  
BRANCH   6   9
HETATM    9  C   UNL     1     -10.846   9.070  70.007  1.00  0.00    -0.247 A  
HETATM   10  C   UNL     1     -11.478  10.327  69.996  1.00  0.00    -0.367 A  
HETATM   11  C   UNL     1     -11.581  11.079  68.824  1.00  0.00    -0.386 A  
HETATM   12  C   UNL     1     -11.071  10.594  67.626  1.00  0.00    -0.319 A  
HETATM   13  C   UNL     1     -10.345   8.596  68.777  1.00  0.00    -0.228 A  
HETATM   14  C   UNL     1     -10.461   9.344  67.599  1.00  0.00    -0.328 A  
BRANCH  12  15
HETATM   15  O   UNL     1     -11.263  11.416  66.550  1.00  0.00    -0.296 OA 
BRANCH  15  16
HETATM   16  C   UNL     1     -11.942  12.637  66.808  1.00  0.00    -0.292 C  
BRANCH  16  17
HETATM   17  C   UNL     1     -12.170  13.344  65.470  1.00  0.00    -0.455 C  
BRANCH  17  18
HETATM   18  O   UNL     1     -11.189  14.327  65.118  1.00  0.00    -0.315 OA 
BRANCH  18  19
HETATM   19  C   UNL     1     -10.030  14.409  65.941  1.00  0.00    -0.328 C  
BRANCH  19  20
HETATM   20  C   UNL     1      -9.896  15.791  66.596  1.00  0.00    -0.252 C  
BRANCH  20  21
HETATM   21  N   UNL     1      -9.963  15.805  68.130  1.00  0.00    -0.213 N  
HETATM   22  C   UNL     1      -9.475  14.430  68.606  1.00  0.00    -0.193 C  
HETATM   23  C   UNL     1      -9.018  16.860  68.693  1.00  0.00    -0.266 C  
BRANCH  21  24
HETATM   24  C   UNL     1     -11.423  16.036  68.604  1.00  0.00    -0.377 C  
BRANCH  24  25
HETATM   25  C   UNL     1     -11.749  15.497  69.971  1.00  0.00    -0.363 A  
HETATM   26  C   UNL     1     -12.487  14.311  70.100  1.00  0.00    -0.393 A  
HETATM   27  C   UNL     1     -12.924  13.885  71.353  1.00  0.00    -0.430 A  
HETATM   28  C   UNL     1     -12.611  14.627  72.488  1.00  0.00    -0.415 A  
HETATM   29  C   UNL     1     -11.828  15.775  72.381  1.00  0.00    -0.606 A  
HETATM   30  C   UNL     1     -11.386  16.202  71.129  1.00  0.00    -0.368 A  
ENDBRANCH  24  25
ENDBRANCH  21  24
ENDBRANCH  20  21
ENDBRANCH  19  20
ENDBRANCH  18  19
ENDBRANCH  17  18
ENDBRANCH  16  17
ENDBRANCH  15  16
ENDBRANCH  12  15
ENDBRANCH   6   9
ENDBRANCH   5   6
ENDBRANCH   2   5
TORSDOF 12
ENDMDL
MODEL       29
REMARK 921   NORMALIZED FREE ENERGY PREDICTED BY IDOCK:   -5.56 KCAL/MOL
REMARK 922        TOTAL FREE ENERGY PREDICTED BY IDOCK:  -10.72 KCAL/MOL
REMARK 923 INTER-LIGAND FREE ENERGY PREDICTED BY IDOCK:   -9.52 KCAL/MOL
REMARK 924 INTRA-LIGAND FREE ENERGY PREDICTED BY IDOCK:   -1.20 KCAL/MOL
REMARK 927      BINDING AFFINITY PREDICTED BY RF-SCORE:    0.00 PKD
ROOT
HETATM    1  C   UNL     1     -10.851  16.416  64.851  1.00  0.00    -0.268 C  
HETATM    2  C   UNL     1     -10.261  16.335  66.265  1.00  0.00    -0.339 C  
HETATM    3  C   UNL     1      -8.752  16.063  66.186  1.00  0.00    -0.348 C  
HETATM    4  C   UNL     1     -10.428  17.744  66.894  1.00  0.00    -0.308 C  
ENDROOT
BRANCH   2   5
HETATM    5  C   UNL     1     -11.014  15.322  67.188  1.00  0.00    -0.331 C  
BRANCH   5   6
HETATM    6  C   UNL     1     -11.348  13.831  66.801  1.00  0.00    -0.345 C  
HETATM    7  C   UNL     1     -10.153  13.097  66.151  1.00  0.00    -0.291 C  
HETATM    8  C   UNL     1     -12.523  13.735  65.806  1.00  0.00    -0.527 C  
BRANCH   6   9
HETATM    9  C   UNL     1     -11.677  13.083  68.122  1.00  0.00    -0.391 A  
HETATM   10  C   UNL     1     -11.721  11.681  68.223  1.00  0.00    -0.374 A  
HETATM   11  C   UNL     1     -12.016  11.047  69.431  1.00  0.00    -0.408 A  
HETATM   12  C   UNL     1     -12.292  11.792  70.571  1.00  0.00    -0.299 A  
HETATM   13  C   UNL     1     -11.970  13.816  69.291  1.00  0.00    -0.399 A  
HETATM   14  C   UNL     1     -12.280  13.181  70.499  1.00  0.00    -0.405 A  
BRANCH  12  15
HETATM   15  O   UNL     1     -12.593  11.049  71.679  1.00  0.00    -0.358 OA 
BRANCH  15  16
HETATM   16  C   UNL     1     -13.372   9.881  71.456  1.00  0.00    -0.375 C  
BRANCH  16  17
HETATM   17  C   UNL     1     -12.899   8.804  72.436  1.00  0.00    -0.371 C  
BRANCH  17  18
HETATM   18  O   UNL     1     -11.532   8.400  72.294  1.00  0.00    -0.342 OA 
BRANCH  18  19
HETATM   19  C   UNL     1     -11.289   7.040  71.949  1.00  0.00    -0.257 C  
BRANCH  19  20
HETATM   20  C   UNL     1     -11.663   6.750  70.489  1.00  0.00    -0.375 C  
BRANCH  20  21
HETATM   21  N   UNL     1     -10.509   6.283  69.591  1.00  0.00    -0.215 N  
HETATM   22  C   UNL     1      -9.390   7.322  69.735  1.00  0.00    -0.150 C  
HETATM   23  C   UNL     1      -9.971   4.941  70.073  1.00  0.00    -0.253 C  
BRANCH  21  24
HETATM   24  C   UNL     1     -10.973   6.214  68.111  1.00  0.00    -0.307 C  
BRANCH  24  25
HETATM   25  C   UNL     1     -10.212   7.095  67.157  1.00  0.00    -0.327 A  
HETATM   26  C   UNL     1      -9.075   6.600  66.499  1.00  0.00    -0.167 A  
HETATM   27  C   UNL     1      -8.277   7.448  65.734  1.00  0.00    -0.135 A  
HETATM   28  C   UNL     1      -8.617   8.792  65.603  1.00  0.00    -0.195 A  
HETATM   29  C   UNL     1      -9.775   9.283  66.202  1.00  0.00    -0.349 A  
HETATM   30  C   UNL     1     -10.578   8.436  66.965  1.00  0.00    -0.316 A  
ENDBRANCH  24  25
ENDBRANCH  21  24
ENDBRANCH  20  21
ENDBRANCH  19  20
ENDBRANCH  18  19
ENDBRANCH  17  18
ENDBRANCH  16  17
ENDBRANCH  15  16
ENDBRANCH  12  15
ENDBRANCH   6   9
ENDBRANCH   5   6
ENDBRANCH   2   5
TORSDOF 12
ENDMDL
MODEL       30
REMARK 921   NORMALIZED FREE ENERGY PREDICTED BY IDOCK:   -5.54 KCAL/MOL
REMARK 922        TOTAL FREE ENERGY PREDICTED BY IDOCK:  -10.69 KCAL/MOL
REMARK 923 INTER-LIGAND FREE ENERGY PREDICTED BY IDOCK:  -10.05 KCAL/MOL
REMARK 924 INTRA-LIGAND FREE ENERGY PREDICTED BY IDOCK:   -0.64 KCAL/MOL
REMARK 927      BINDING AFFINITY PREDICTED BY RF-SCORE:    0.00 PKD
ROOT
HETATM    1  C   UNL     1      -8.182   5.669  72.909  1.00  0.00    -0.119 C  
HETATM    2  C   UNL     1      -8.601   7.082  72.482  1.00  0.00    -0.132 C  
HETATM    3  C   UNL     1      -9.363   7.768  73.624  1.00  0.00    -0.336 C  
HETATM    4  C   UNL     1      -7.289   7.886  72.275  1.00  0.00    -0.100 C  
ENDROOT
BRANCH   2   5
HETATM    5  C   UNL     1      -9.380   7.108  71.127  1.00  0.00    -0.157 C  
BRANCH   5   6
HETATM    6  C   UNL     1     -10.946   6.981  70.989  1.00  0.00    -0.279 C  
HETATM    7  C   UNL     1     -11.591   6.211  72.163  1.00  0.00    -0.369 C  
HETATM    8  C   UNL     1     -11.361   6.250  69.696  1.00  0.00    -0.492 C  
BRANCH   6   9
HETATM    9  C   UNL     1     -11.521   8.424  71.020  1.00  0.00    -0.302 A  
HETATM   10  C   UNL     1     -10.948   9.496  70.313  1.00  0.00    -0.317 A  
HETATM   11  C   UNL     1     -11.498  10.777  70.362  1.00  0.00    -0.397 A  
HETATM   12  C   UNL     1     -12.627  11.033  71.130  1.00  0.00    -0.418 A  
HETATM   13  C   UNL     1     -12.661   8.711  71.800  1.00  0.00    -0.396 A  
HETATM   14  C   UNL     1     -13.204   9.999  71.861  1.00  0.00    -0.557 A  
BRANCH  12  15
HETATM   15  O   UNL     1     -13.047  12.335  71.114  1.00  0.00    -0.207 OA 
BRANCH  15  16
HETATM   16  C   UNL     1     -13.604  12.827  72.325  1.00  0.00    -0.465 C  
BRANCH  16  17
HETATM   17  C   UNL     1     -13.413  14.346  72.350  1.00  0.00    -0.462 C  
BRANCH  17  18
HETATM   18  O   UNL     1     -13.577  15.008  71.090  1.00  0.00    -0.415 OA 
BRANCH  18  19
HETATM   19  C   UNL     1     -12.424  15.627  70.528  1.00  0.00    -0.398 C  
BRANCH  19  20
HETATM   20  C   UNL     1     -12.150  15.126  69.103  1.00  0.00    -0.224 C  
BRANCH  20  21
HETATM   21  N   UNL     1     -10.817  15.576  68.488  1.00  0.00    -0.260 N  
HETATM   22  C   UNL     1      -9.762  14.550  68.922  1.00  0.00    -0.169 C  
HETATM   23  C   UNL     1     -10.900  15.551  66.966  1.00  0.00    -0.314 C  
BRANCH  21  24
HETATM   24  C   UNL     1     -10.428  16.983  69.016  1.00  0.00    -0.337 C  
BRANCH  24  25
HETATM   25  C   UNL     1      -9.942  17.950  67.970  1.00  0.00    -0.333 A  
HETATM   26  C   UNL     1      -8.615  17.884  67.516  1.00  0.00    -0.239 A  
HETATM   27  C   UNL     1      -8.111  18.865  66.665  1.00  0.00    -0.290 A  
HETATM   28  C   UNL     1      -8.931  19.907  66.242  1.00  0.00    -0.419 A  
HETATM   29  C   UNL     1     -10.267  19.952  66.636  1.00  0.00    -0.609 A  
HETATM   30  C   UNL     1     -10.776  18.969  67.485  1.00  0.00    -0.532 A  
ENDBRANCH  24  25
ENDBRANCH  21  24
ENDBRANCH  20  21
ENDBRANCH  19  20
ENDBRANCH  18  19
ENDBRANCH  17  18
ENDBRANCH  16  17
ENDBRANCH  15  16
ENDBRANCH  12  15
ENDBRANCH   6   9
ENDBRANCH   5   6
ENDBRANCH   2   5
TORSDOF 12
ENDMDL
MODEL       31
REMARK 921   NORMALIZED FREE ENERGY PREDICTED BY IDOCK:   -5.48 KCAL/MOL
REMARK 922        TOTAL FREE ENERGY PREDICTED BY IDOCK:  -10.60 KCAL/MOL
REMARK 923 INTER-LIGAND FREE ENERGY PREDICTED BY IDOCK:   -8.86 KCAL/MOL
REMARK 924 INTRA-LIGAND FREE ENERGY PREDICTED BY IDOCK:   -1.74 KCAL/MOL
REMARK 927      BINDING AFFINITY PREDICTED BY RF-SCORE:    0.00 PKD
ROOT
HETATM    1  C   UNL     1      -9.453  13.967  66.658  1.00  0.00    -0.296 C  
HETATM    2  C   UNL     1     -10.789  14.717  66.736  1.00  0.00    -0.316 C  
HETATM    3  C   UNL     1     -10.535  16.230  66.789  1.00  0.00    -0.287 C  
HETATM    4  C   UNL     1     -11.531  14.436  65.402  1.00  0.00    -0.344 C  
ENDROOT
BRANCH   2   5
HETATM    5  C   UNL     1     -11.710  14.214  67.895  1.00  0.00    -0.402 C  
BRANCH   5   6
HETATM    6  C   UNL     1     -11.457  14.488  69.427  1.00  0.00    -0.323 C  
HETATM    7  C   UNL     1     -12.260  15.696  69.961  1.00  0.00    -0.351 C  
HETATM    8  C   UNL     1      -9.972  14.772  69.732  1.00  0.00     0.108 C  
BRANCH   6   9
HETATM    9  C   UNL     1     -11.952  13.234  70.199  1.00  0.00    -0.388 A  
HETATM   10  C   UNL     1     -12.742  13.307  71.360  1.00  0.00    -0.401 A  
HETATM   11  C   UNL     1     -13.171  12.156  72.022  1.00  0.00    -0.496 A  
HETATM   12  C   UNL     1     -12.812  10.897  71.556  1.00  0.00    -0.454 A  
HETATM   13  C   UNL     1     -11.593  11.945  69.751  1.00  0.00    -0.359 A  
HETATM   14  C   UNL     1     -12.012  10.791  70.423  1.00  0.00    -0.448 A  
BRANCH  12  15
HETATM   15  O   UNL     1     -13.274   9.855  72.312  1.00  0.00    -0.431 OA 
BRANCH  15  16
HETATM   16  C   UNL     1     -13.890   8.791  71.600  1.00  0.00    -0.397 C  
BRANCH  16  17
HETATM   17  C   UNL     1     -12.992   7.558  71.722  1.00  0.00    -0.328 C  
BRANCH  17  18
HETATM   18  O   UNL     1     -12.454   7.064  70.489  1.00  0.00    -0.241 OA 
BRANCH  18  19
HETATM   19  C   UNL     1     -11.039   7.109  70.335  1.00  0.00    -0.280 C  
BRANCH  19  20
HETATM   20  C   UNL     1     -10.540   6.029  69.365  1.00  0.00    -0.298 C  
BRANCH  20  21
HETATM   21  N   UNL     1      -9.907   6.548  68.066  1.00  0.00    -0.121 N  
HETATM   22  C   UNL     1      -8.807   5.550  67.682  1.00  0.00    -0.105 C  
HETATM   23  C   UNL     1     -10.939   6.566  66.944  1.00  0.00    -0.338 C  
BRANCH  21  24
HETATM   24  C   UNL     1      -9.285   7.952  68.292  1.00  0.00    -0.137 C  
BRANCH  24  25
HETATM   25  C   UNL     1      -9.489   8.934  67.170  1.00  0.00    -0.202 A  
HETATM   26  C   UNL     1     -10.534   9.868  67.236  1.00  0.00    -0.319 A  
HETATM   27  C   UNL     1     -10.827  10.677  66.140  1.00  0.00    -0.069 A  
HETATM   28  C   UNL     1     -10.068  10.576  64.978  1.00  0.00    -0.390 A  
HETATM   29  C   UNL     1      -8.991   9.695  64.920  1.00  0.00    -0.260 A  
HETATM   30  C   UNL     1      -8.692   8.886  66.016  1.00  0.00    -0.185 A  
ENDBRANCH  24  25
ENDBRANCH  21  24
ENDBRANCH  20  21
ENDBRANCH  19  20
ENDBRANCH  18  19
ENDBRANCH  17  18
ENDBRANCH  16  17
ENDBRANCH  15  16
ENDBRANCH  12  15
ENDBRANCH   6   9
ENDBRANCH   5   6
ENDBRANCH   2   5
TORSDOF 12
ENDMDL
MODEL       32
REMARK 921   NORMALIZED FREE ENERGY PREDICTED BY IDOCK:   -5.46 KCAL/MOL
REMARK 922        TOTAL FREE ENERGY PREDICTED BY IDOCK:  -10.56 KCAL/MOL
REMARK 923 INTER-LIGAND FREE ENERGY PREDICTED BY IDOCK:   -8.99 KCAL/MOL
REMARK 924 INTRA-LIGAND FREE ENERGY PREDICTED BY IDOCK:   -1.57 KCAL/MOL
REMARK 927      BINDING AFFINITY PREDICTED BY RF-SCORE:    0.00 PKD
ROOT
HETATM    1  C   UNL     1      -8.831   6.836  72.262  1.00  0.00    -0.135 C  
HETATM    2  C   UNL     1     -10.214   6.751  72.920  1.00  0.00    -0.223 C  
HETATM    3  C   UNL     1     -10.984   5.545  72.363  1.00  0.00    -0.310 C  
HETATM    4  C   UNL     1      -9.968   6.464  74.426  1.00  0.00    -0.362 C  
ENDROOT
BRANCH   2   5
HETATM    5  C   UNL     1     -11.023   8.086  72.827  1.00  0.00    -0.449 C  
BRANCH   5   6
HETATM    6  C   UNL     1     -11.981   8.474  71.636  1.00  0.00    -0.372 C  
HETATM    7  C   UNL     1     -12.720   9.810  71.872  1.00  0.00    -0.501 C  
HETATM    8  C   UNL     1     -13.064   7.405  71.386  1.00  0.00    -0.401 C  
BRANCH   6   9
HETATM    9  C   UNL     1     -11.087   8.663  70.380  1.00  0.00    -0.250 A  
HETATM   10  C   UNL     1     -10.983   7.702  69.358  1.00  0.00    -0.071 A  
HETATM   11  C   UNL     1     -10.173   7.912  68.241  1.00  0.00    -0.240 A  
HETATM   12  C   UNL     1      -9.428   9.078  68.118  1.00  0.00    -0.142 A  
HETATM   13  C   UNL     1     -10.314   9.834  70.235  1.00  0.00    -0.348 A  
HETATM   14  C   UNL     1      -9.489  10.038  69.123  1.00  0.00    -0.214 A  
BRANCH  12  15
HETATM   15  O   UNL     1      -8.654   9.145  66.992  1.00  0.00    -0.122 OA 
BRANCH  15  16
HETATM   16  C   UNL     1      -8.549  10.423  66.380  1.00  0.00    -0.132 C  
BRANCH  16  17
HETATM   17  C   UNL     1      -8.603  10.228  64.863  1.00  0.00    -0.182 C  
BRANCH  17  18
HETATM   18  O   UNL     1      -9.776  10.737  64.218  1.00  0.00    -0.247 OA 
BRANCH  18  19
HETATM   19  C   UNL     1     -10.662  11.523  65.010  1.00  0.00    -0.290 C  
BRANCH  19  20
HETATM   20  C   UNL     1     -10.624  13.002  64.604  1.00  0.00    -0.378 C  
BRANCH  20  21
HETATM   21  N   UNL     1     -11.121  13.993  65.666  1.00  0.00    -0.298 N  
HETATM   22  C   UNL     1     -10.780  15.398  65.153  1.00  0.00    -0.440 C  
HETATM   23  C   UNL     1     -12.636  13.899  65.811  1.00  0.00    -0.494 C  
BRANCH  21  24
HETATM   24  C   UNL     1     -10.402  13.739  67.018  1.00  0.00    -0.260 C  
BRANCH  24  25
HETATM   25  C   UNL     1     -11.225  14.022  68.247  1.00  0.00    -0.293 A  
HETATM   26  C   UNL     1     -11.386  15.342  68.695  1.00  0.00    -0.337 A  
HETATM   27  C   UNL     1     -12.014  15.602  69.911  1.00  0.00    -0.376 A  
HETATM   28  C   UNL     1     -12.505  14.551  70.679  1.00  0.00    -0.409 A  
HETATM   29  C   UNL     1     -12.405  13.240  70.218  1.00  0.00    -0.334 A  
HETATM   30  C   UNL     1     -11.781  12.976  68.999  1.00  0.00    -0.376 A  
ENDBRANCH  24  25
ENDBRANCH  21  24
ENDBRANCH  20  21
ENDBRANCH  19  20
ENDBRANCH  18  19
ENDBRANCH  17  18
ENDBRANCH  16  17
ENDBRANCH  15  16
ENDBRANCH  12  15
ENDBRANCH   6   9
ENDBRANCH   5   6
ENDBRANCH   2   5
TORSDOF 12
ENDMDL
MODEL       33
REMARK 921   NORMALIZED FREE ENERGY PREDICTED BY IDOCK:   -5.46 KCAL/MOL
REMARK 922        TOTAL FREE ENERGY PREDICTED BY IDOCK:  -10.55 KCAL/MOL
REMARK 923 INTER-LIGAND FREE ENERGY PREDICTED BY IDOCK:  -10.09 KCAL/MOL
REMARK 924 INTRA-LIGAND FREE ENERGY PREDICTED BY IDOCK:   -0.46 KCAL/MOL
REMARK 927      BINDING AFFINITY PREDICTED BY RF-SCORE:    0.00 PKD
ROOT
HETATM    1  C   UNL     1      -9.879   4.022  71.424  1.00  0.00    -0.249 C  
HETATM    2  C   UNL     1     -10.391   4.823  72.628  1.00  0.00    -0.253 C  
HETATM    3  C   UNL     1     -11.198   3.908  73.559  1.00  0.00    -0.312 C  
HETATM    4  C   UNL     1      -9.136   5.273  73.424  1.00  0.00    -0.128 C  
ENDROOT
BRANCH   2   5
HETATM    5  C   UNL     1     -11.170   6.116  72.220  1.00  0.00    -0.334 C  
BRANCH   5   6
HETATM    6  C   UNL     1     -10.852   6.992  70.948  1.00  0.00    -0.268 C  
HETATM    7  C   UNL     1     -11.395   6.371  69.641  1.00  0.00    -0.479 C  
HETATM    8  C   UNL     1      -9.337   7.200  70.746  1.00  0.00    -0.160 C  
BRANCH   6   9
HETATM    9  C   UNL     1     -11.578   8.351  71.142  1.00  0.00    -0.317 A  
HETATM   10  C   UNL     1     -11.149   9.546  70.536  1.00  0.00    -0.342 A  
HETATM   11  C   UNL     1     -11.832  10.747  70.732  1.00  0.00    -0.443 A  
HETATM   12  C   UNL     1     -12.954  10.797  71.550  1.00  0.00    -0.456 A  
HETATM   13  C   UNL     1     -12.714   8.430  71.975  1.00  0.00    -0.399 A  
HETATM   14  C   UNL     1     -13.390   9.638  72.183  1.00  0.00    -0.545 A  
BRANCH  12  15
HETATM   15  O   UNL     1     -13.512  12.040  71.679  1.00  0.00    -0.230 OA 
BRANCH  15  16
HETATM   16  C   UNL     1     -12.784  13.114  71.101  1.00  0.00    -0.300 C  
BRANCH  16  17
HETATM   17  C   UNL     1     -13.444  14.423  71.542  1.00  0.00    -0.368 C  
BRANCH  17  18
HETATM   18  O   UNL     1     -12.777  15.620  71.126  1.00  0.00    -0.433 OA 
BRANCH  18  19
HETATM   19  C   UNL     1     -11.490  15.473  70.533  1.00  0.00    -0.347 C  
BRANCH  19  20
HETATM   20  C   UNL     1     -11.369  16.280  69.233  1.00  0.00    -0.288 C  
BRANCH  20  21
HETATM   21  N   UNL     1     -10.315  15.775  68.237  1.00  0.00    -0.235 N  
HETATM   22  C   UNL     1      -9.015  16.526  68.551  1.00  0.00    -0.231 C  
HETATM   23  C   UNL     1     -10.061  14.286  68.443  1.00  0.00    -0.243 C  
BRANCH  21  24
HETATM   24  C   UNL     1     -10.759  16.081  66.781  1.00  0.00    -0.259 C  
BRANCH  24  25
HETATM   25  C   UNL     1     -11.128  14.878  65.955  1.00  0.00    -0.334 A  
HETATM   26  C   UNL     1     -12.337  14.207  66.194  1.00  0.00    -0.463 A  
HETATM   27  C   UNL     1     -12.617  13.008  65.543  1.00  0.00    -0.422 A  
HETATM   28  C   UNL     1     -11.705  12.479  64.634  1.00  0.00    -0.416 A  
HETATM   29  C   UNL     1     -10.529  13.166  64.343  1.00  0.00    -0.427 A  
HETATM   30  C   UNL     1     -10.246  14.369  64.990  1.00  0.00    -0.406 A  
ENDBRANCH  24  25
ENDBRANCH  21  24
ENDBRANCH  20  21
ENDBRANCH  19  20
ENDBRANCH  18  19
ENDBRANCH  17  18
ENDBRANCH  16  17
ENDBRANCH  15  16
ENDBRANCH  12  15
ENDBRANCH   6   9
ENDBRANCH   5   6
ENDBRANCH   2   5
TORSDOF 12
ENDMDL
MODEL       34
REMARK 921   NORMALIZED FREE ENERGY PREDICTED BY IDOCK:   -5.44 KCAL/MOL
REMARK 922        TOTAL FREE ENERGY PREDICTED BY IDOCK:  -10.52 KCAL/MOL
REMARK 923 INTER-LIGAND FREE ENERGY PREDICTED BY IDOCK:   -8.86 KCAL/MOL
REMARK 924 INTRA-LIGAND FREE ENERGY PREDICTED BY IDOCK:   -1.66 KCAL/MOL
REMARK 927      BINDING AFFINITY PREDICTED BY RF-SCORE:    0.00 PKD
ROOT
HETATM    1  C   UNL     1     -10.838  15.893  67.535  1.00  0.00    -0.305 C  
HETATM    2  C   UNL     1     -10.092  15.482  66.259  1.00  0.00    -0.312 C  
HETATM    3  C   UNL     1     -10.909  15.884  65.024  1.00  0.00    -0.444 C  
HETATM    4  C   UNL     1      -8.786  16.321  66.223  1.00  0.00    -0.367 C  
ENDROOT
BRANCH   2   5
HETATM    5  C   UNL     1      -9.675  13.975  66.250  1.00  0.00    -0.311 C  
BRANCH   5   6
HETATM    6  C   UNL     1     -10.537  12.808  65.631  1.00  0.00    -0.297 C  
HETATM    7  C   UNL     1     -10.356  12.673  64.103  1.00  0.00    -0.412 C  
HETATM    8  C   UNL     1     -12.047  13.000  65.885  1.00  0.00    -0.503 C  
BRANCH   6   9
HETATM    9  C   UNL     1     -10.032  11.485  66.269  1.00  0.00    -0.252 A  
HETATM   10  C   UNL     1      -9.089  11.445  67.312  1.00  0.00    -0.162 A  
HETATM   11  C   UNL     1      -8.663  10.235  67.862  1.00  0.00    -0.122 A  
HETATM   12  C   UNL     1      -9.153   9.028  67.379  1.00  0.00    -0.131 A  
HETATM   13  C   UNL     1     -10.507  10.246  65.790  1.00  0.00    -0.159 A  
HETATM   14  C   UNL     1     -10.070   9.032  66.332  1.00  0.00    -0.351 A  
BRANCH  12  15
HETATM   15  O   UNL     1      -8.634   7.917  67.985  1.00  0.00    -0.126 OA 
BRANCH  15  16
HETATM   16  C   UNL     1      -9.039   6.665  67.449  1.00  0.00    -0.120 C  
BRANCH  16  17
HETATM   17  C   UNL     1      -9.130   5.664  68.603  1.00  0.00    -0.118 C  
BRANCH  17  18
HETATM   18  O   UNL     1     -10.414   5.564  69.232  1.00  0.00    -0.249 OA 
BRANCH  18  19
HETATM   19  C   UNL     1     -10.557   6.168  70.513  1.00  0.00    -0.253 C  
BRANCH  19  20
HETATM   20  C   UNL     1     -11.808   7.055  70.586  1.00  0.00    -0.330 C  
BRANCH  20  21
HETATM   21  N   UNL     1     -11.639   8.377  71.348  1.00  0.00    -0.273 N  
HETATM   22  C   UNL     1     -11.565   8.020  72.838  1.00  0.00    -0.218 C  
HETATM   23  C   UNL     1     -10.328   9.049  70.959  1.00  0.00    -0.278 C  
BRANCH  21  24
HETATM   24  C   UNL     1     -12.856   9.306  71.091  1.00  0.00    -0.222 C  
BRANCH  24  25
HETATM   25  C   UNL     1     -12.521  10.758  70.874  1.00  0.00    -0.500 A  
HETATM   26  C   UNL     1     -12.936  11.720  71.808  1.00  0.00    -0.466 A  
HETATM   27  C   UNL     1     -12.766  13.077  71.543  1.00  0.00    -0.349 A  
HETATM   28  C   UNL     1     -12.163  13.485  70.356  1.00  0.00    -0.426 A  
HETATM   29  C   UNL     1     -11.694  12.539  69.448  1.00  0.00    -0.383 A  
HETATM   30  C   UNL     1     -11.858  11.179  69.711  1.00  0.00    -0.422 A  
ENDBRANCH  24  25
ENDBRANCH  21  24
ENDBRANCH  20  21
ENDBRANCH  19  20
ENDBRANCH  18  19
ENDBRANCH  17  18
ENDBRANCH  16  17
ENDBRANCH  15  16
ENDBRANCH  12  15
ENDBRANCH   6   9
ENDBRANCH   5   6
ENDBRANCH   2   5
TORSDOF 12
ENDMDL
MODEL       35
REMARK 921   NORMALIZED FREE ENERGY PREDICTED BY IDOCK:   -5.43 KCAL/MOL
REMARK 922        TOTAL FREE ENERGY PREDICTED BY IDOCK:  -10.51 KCAL/MOL
REMARK 923 INTER-LIGAND FREE ENERGY PREDICTED BY IDOCK:   -9.87 KCAL/MOL
REMARK 924 INTRA-LIGAND FREE ENERGY PREDICTED BY IDOCK:   -0.65 KCAL/MOL
REMARK 927      BINDING AFFINITY PREDICTED BY RF-SCORE:    0.00 PKD
ROOT
HETATM    1  C   UNL     1      -9.792   3.628  71.388  1.00  0.00    -0.219 C  
HETATM    2  C   UNL     1     -10.153   4.969  72.041  1.00  0.00    -0.255 C  
HETATM    3  C   UNL     1     -10.558   4.744  73.505  1.00  0.00    -0.305 C  
HETATM    4  C   UNL     1      -8.850   5.813  72.064  1.00  0.00    -0.138 C  
ENDROOT
BRANCH   2   5
HETATM    5  C   UNL     1     -11.218   5.779  71.233  1.00  0.00    -0.223 C  
BRANCH   5   6
HETATM    6  C   UNL     1     -11.682   7.246  71.579  1.00  0.00    -0.320 C  
HETATM    7  C   UNL     1     -11.150   7.738  72.944  1.00  0.00    -0.457 C  
HETATM    8  C   UNL     1     -13.219   7.376  71.627  1.00  0.00    -0.416 C  
BRANCH   6   9
HETATM    9  C   UNL     1     -11.081   8.179  70.492  1.00  0.00    -0.257 A  
HETATM   10  C   UNL     1     -10.951   9.569  70.657  1.00  0.00    -0.370 A  
HETATM   11  C   UNL     1     -10.400  10.373  69.658  1.00  0.00    -0.261 A  
HETATM   12  C   UNL     1      -9.976   9.816  68.457  1.00  0.00    -0.160 A  
HETATM   13  C   UNL     1     -10.651   7.640  69.261  1.00  0.00    -0.206 A  
HETATM   14  C   UNL     1     -10.112   8.447  68.253  1.00  0.00    -0.232 A  
BRANCH  12  15
HETATM   15  O   UNL     1      -9.483  10.717  67.554  1.00  0.00    -0.152 OA 
BRANCH  15  16
HETATM   16  C   UNL     1      -9.996  10.622  66.232  1.00  0.00    -0.222 C  
BRANCH  16  17
HETATM   17  C   UNL     1     -10.699  11.941  65.902  1.00  0.00    -0.284 C  
BRANCH  17  18
HETATM   18  O   UNL     1     -11.850  12.242  66.700  1.00  0.00    -0.536 OA 
BRANCH  18  19
HETATM   19  C   UNL     1     -11.944  13.560  67.231  1.00  0.00    -0.365 C  
BRANCH  19  20
HETATM   20  C   UNL     1     -10.811  13.854  68.224  1.00  0.00    -0.249 C  
BRANCH  20  21
HETATM   21  N   UNL     1     -10.663  15.323  68.644  1.00  0.00    -0.238 N  
HETATM   22  C   UNL     1      -9.543  15.373  69.691  1.00  0.00    -0.229 C  
HETATM   23  C   UNL     1     -10.233  16.173  67.454  1.00  0.00    -0.272 C  
BRANCH  21  24
HETATM   24  C   UNL     1     -11.987  15.842  69.266  1.00  0.00    -0.289 C  
BRANCH  24  25
HETATM   25  C   UNL     1     -12.236  15.421  70.690  1.00  0.00    -0.431 A  
HETATM   26  C   UNL     1     -13.061  14.318  70.961  1.00  0.00    -0.394 A  
HETATM   27  C   UNL     1     -13.421  14.013  72.272  1.00  0.00    -0.597 A  
HETATM   28  C   UNL     1     -12.945  14.791  73.324  1.00  0.00    -0.608 A  
HETATM   29  C   UNL     1     -12.078  15.852  73.073  1.00  0.00    -0.615 A  
HETATM   30  C   UNL     1     -11.712  16.159  71.762  1.00  0.00    -0.568 A  
ENDBRANCH  24  25
ENDBRANCH  21  24
ENDBRANCH  20  21
ENDBRANCH  19  20
ENDBRANCH  18  19
ENDBRANCH  17  18
ENDBRANCH  16  17
ENDBRANCH  15  16
ENDBRANCH  12  15
ENDBRANCH   6   9
ENDBRANCH   5   6
ENDBRANCH   2   5
TORSDOF 12
ENDMDL
MODEL       36
REMARK 921   NORMALIZED FREE ENERGY PREDICTED BY IDOCK:   -5.41 KCAL/MOL
REMARK 922        TOTAL FREE ENERGY PREDICTED BY IDOCK:  -10.47 KCAL/MOL
REMARK 923 INTER-LIGAND FREE ENERGY PREDICTED BY IDOCK:   -9.13 KCAL/MOL
REMARK 924 INTRA-LIGAND FREE ENERGY PREDICTED BY IDOCK:   -1.34 KCAL/MOL
REMARK 927      BINDING AFFINITY PREDICTED BY RF-SCORE:    0.00 PKD
ROOT
HETATM    1  C   UNL     1      -8.916   6.490  71.745  1.00  0.00    -0.138 C  
HETATM    2  C   UNL     1      -9.384   7.552  72.750  1.00  0.00    -0.217 C  
HETATM    3  C   UNL     1     -10.186   6.887  73.876  1.00  0.00    -0.401 C  
HETATM    4  C   UNL     1      -8.101   8.136  73.401  1.00  0.00    -0.253 C  
ENDROOT
BRANCH   2   5
HETATM    5  C   UNL     1     -10.147   8.740  72.078  1.00  0.00    -0.397 C  
BRANCH   5   6
HETATM    6  C   UNL     1     -11.435   8.588  71.182  1.00  0.00    -0.322 C  
HETATM    7  C   UNL     1     -12.455   9.728  71.397  1.00  0.00    -0.482 C  
HETATM    8  C   UNL     1     -12.182   7.266  71.453  1.00  0.00    -0.384 C  
BRANCH   6   9
HETATM    9  C   UNL     1     -10.968   8.667  69.702  1.00  0.00    -0.099 A  
HETATM   10  C   UNL     1     -10.811   7.535  68.883  1.00  0.00    -0.063 A  
HETATM   11  C   UNL     1     -10.394   7.648  67.556  1.00  0.00    -0.326 A  
HETATM   12  C   UNL     1     -10.105   8.893  67.010  1.00  0.00    -0.261 A  
HETATM   13  C   UNL     1     -10.660   9.918  69.127  1.00  0.00    -0.240 A  
HETATM   14  C   UNL     1     -10.228  10.031  67.801  1.00  0.00    -0.235 A  
BRANCH  12  15
HETATM   15  O   UNL     1      -9.680   8.862  65.710  1.00  0.00    -0.240 OA 
BRANCH  15  16
HETATM   16  C   UNL     1      -9.204  10.090  65.179  1.00  0.00    -0.222 C  
BRANCH  16  17
HETATM   17  C   UNL     1      -9.782  10.252  63.770  1.00  0.00    -0.235 C  
BRANCH  17  18
HETATM   18  O   UNL     1     -10.272  11.560  63.452  1.00  0.00    -0.355 OA 
BRANCH  18  19
HETATM   19  C   UNL     1     -10.879  12.299  64.507  1.00  0.00    -0.315 C  
BRANCH  19  20
HETATM   20  C   UNL     1     -10.491  13.783  64.456  1.00  0.00    -0.356 C  
BRANCH  20  21
HETATM   21  N   UNL     1     -10.528  14.524  65.801  1.00  0.00    -0.306 N  
HETATM   22  C   UNL     1      -9.380  13.960  66.648  1.00  0.00    -0.268 C  
HETATM   23  C   UNL     1     -10.274  16.012  65.594  1.00  0.00    -0.386 C  
BRANCH  21  24
HETATM   24  C   UNL     1     -11.882  14.271  66.518  1.00  0.00    -0.415 C  
BRANCH  24  25
HETATM   25  C   UNL     1     -11.824  14.279  68.022  1.00  0.00    -0.379 A  
HETATM   26  C   UNL     1     -11.972  13.080  68.737  1.00  0.00    -0.302 A  
HETATM   27  C   UNL     1     -12.073  13.096  70.126  1.00  0.00    -0.392 A  
HETATM   28  C   UNL     1     -12.007  14.303  70.815  1.00  0.00    -0.390 A  
HETATM   29  C   UNL     1     -11.800  15.494  70.123  1.00  0.00    -0.378 A  
HETATM   30  C   UNL     1     -11.694  15.483  68.732  1.00  0.00    -0.372 A  
ENDBRANCH  24  25
ENDBRANCH  21  24
ENDBRANCH  20  21
ENDBRANCH  19  20
ENDBRANCH  18  19
ENDBRANCH  17  18
ENDBRANCH  16  17
ENDBRANCH  15  16
ENDBRANCH  12  15
ENDBRANCH   6   9
ENDBRANCH   5   6
ENDBRANCH   2   5
TORSDOF 12
ENDMDL
MODEL       37
REMARK 921   NORMALIZED FREE ENERGY PREDICTED BY IDOCK:   -5.40 KCAL/MOL
REMARK 922        TOTAL FREE ENERGY PREDICTED BY IDOCK:  -10.46 KCAL/MOL
REMARK 923 INTER-LIGAND FREE ENERGY PREDICTED BY IDOCK:   -8.62 KCAL/MOL
REMARK 924 INTRA-LIGAND FREE ENERGY PREDICTED BY IDOCK:   -1.83 KCAL/MOL
REMARK 927      BINDING AFFINITY PREDICTED BY RF-SCORE:    0.00 PKD
ROOT
HETATM    1  C   UNL     1     -11.097   4.777  73.653  1.00  0.00    -0.380 C  
HETATM    2  C   UNL     1     -10.062   4.571  72.539  1.00  0.00    -0.233 C  
HETATM    3  C   UNL     1      -8.685   5.061  73.008  1.00  0.00    -0.113 C  
HETATM    4  C   UNL     1      -9.942   3.037  72.328  1.00  0.00    -0.237 C  
ENDROOT
BRANCH   2   5
HETATM    5  C   UNL     1     -10.498   5.195  71.173  1.00  0.00    -0.240 C  
BRANCH   5   6
HETATM    6  C   UNL     1     -10.900   6.705  70.963  1.00  0.00    -0.289 C  
HETATM    7  C   UNL     1     -10.208   7.656  71.965  1.00  0.00    -0.242 C  
HETATM    8  C   UNL     1     -12.419   6.931  71.112  1.00  0.00    -0.398 C  
BRANCH   6   9
HETATM    9  C   UNL     1     -10.417   7.108  69.543  1.00  0.00    -0.236 A  
HETATM   10  C   UNL     1     -11.032   6.655  68.363  1.00  0.00    -0.313 A  
HETATM   11  C   UNL     1     -10.570   7.045  67.105  1.00  0.00    -0.412 A  
HETATM   12  C   UNL     1      -9.471   7.886  66.985  1.00  0.00    -0.174 A  
HETATM   13  C   UNL     1      -9.297   7.954  69.395  1.00  0.00    -0.152 A  
HETATM   14  C   UNL     1      -8.825   8.334  68.133  1.00  0.00    -0.139 A  
BRANCH  12  15
HETATM   15  O   UNL     1      -9.105   8.167  65.698  1.00  0.00    -0.142 OA 
BRANCH  15  16
HETATM   16  C   UNL     1      -8.758   9.518  65.427  1.00  0.00    -0.164 C  
BRANCH  16  17
HETATM   17  C   UNL     1     -10.020  10.245  64.957  1.00  0.00    -0.323 C  
BRANCH  17  18
HETATM   18  O   UNL     1      -9.830  11.181  63.888  1.00  0.00    -0.252 OA 
BRANCH  18  19
HETATM   19  C   UNL     1     -10.781  12.234  63.771  1.00  0.00    -0.449 C  
BRANCH  19  20
HETATM   20  C   UNL     1     -11.607  12.397  65.055  1.00  0.00    -0.345 C  
BRANCH  20  21
HETATM   21  N   UNL     1     -11.170  13.541  65.981  1.00  0.00    -0.294 N  
HETATM   22  C   UNL     1     -10.343  14.510  65.126  1.00  0.00    -0.411 C  
HETATM   23  C   UNL     1     -12.389  14.296  66.501  1.00  0.00    -0.314 C  
BRANCH  21  24
HETATM   24  C   UNL     1     -10.300  12.992  67.143  1.00  0.00    -0.243 C  
BRANCH  24  25
HETATM   25  C   UNL     1     -11.067  12.430  68.310  1.00  0.00    -0.283 A  
HETATM   26  C   UNL     1     -11.505  13.280  69.337  1.00  0.00    -0.323 A  
HETATM   27  C   UNL     1     -12.080  12.752  70.491  1.00  0.00    -0.369 A  
HETATM   28  C   UNL     1     -12.242  11.376  70.622  1.00  0.00    -0.484 A  
HETATM   29  C   UNL     1     -11.866  10.525  69.585  1.00  0.00    -0.306 A  
HETATM   30  C   UNL     1     -11.294  11.050  68.426  1.00  0.00    -0.363 A  
ENDBRANCH  24  25
ENDBRANCH  21  24
ENDBRANCH  20  21
ENDBRANCH  19  20
ENDBRANCH  18  19
ENDBRANCH  17  18
ENDBRANCH  16  17
ENDBRANCH  15  16
ENDBRANCH  12  15
ENDBRANCH   6   9
ENDBRANCH   5   6
ENDBRANCH   2   5
TORSDOF 12
ENDMDL
MODEL       38
REMARK 921   NORMALIZED FREE ENERGY PREDICTED BY IDOCK:   -5.40 KCAL/MOL
REMARK 922        TOTAL FREE ENERGY PREDICTED BY IDOCK:  -10.45 KCAL/MOL
REMARK 923 INTER-LIGAND FREE ENERGY PREDICTED BY IDOCK:   -9.63 KCAL/MOL
REMARK 924 INTRA-LIGAND FREE ENERGY PREDICTED BY IDOCK:   -0.83 KCAL/MOL
REMARK 927      BINDING AFFINITY PREDICTED BY RF-SCORE:    0.00 PKD
ROOT
HETATM    1  C   UNL     1      -9.986   5.174  72.750  1.00  0.00    -0.195 C  
HETATM    2  C   UNL     1      -9.698   5.601  71.304  1.00  0.00    -0.211 C  
HETATM    3  C   UNL     1      -8.209   5.935  71.146  1.00  0.00    -0.123 C  
HETATM    4  C   UNL     1      -9.973   4.358  70.415  1.00  0.00    -0.253 C  
ENDROOT
BRANCH   2   5
HETATM    5  C   UNL     1     -10.636   6.747  70.803  1.00  0.00    -0.254 C  
BRANCH   5   6
HETATM    6  C   UNL     1     -10.698   8.194  71.427  1.00  0.00    -0.280 C  
HETATM    7  C   UNL     1      -9.356   8.636  72.054  1.00  0.00    -0.362 C  
HETATM    8  C   UNL     1     -11.765   8.307  72.535  1.00  0.00    -0.451 C  
BRANCH   6   9
HETATM    9  C   UNL     1     -11.002   9.176  70.262  1.00  0.00    -0.279 A  
HETATM   10  C   UNL     1     -11.759  10.349  70.424  1.00  0.00    -0.419 A  
HETATM   11  C   UNL     1     -12.007  11.209  69.352  1.00  0.00    -0.420 A  
HETATM   12  C   UNL     1     -11.519  10.917  68.084  1.00  0.00    -0.295 A  
HETATM   13  C   UNL     1     -10.527   8.896  68.964  1.00  0.00    -0.231 A  
HETATM   14  C   UNL     1     -10.786   9.751  67.886  1.00  0.00    -0.298 A  
BRANCH  12  15
HETATM   15  O   UNL     1     -11.857  11.825  67.119  1.00  0.00    -0.599 OA 
BRANCH  15  16
HETATM   16  C   UNL     1     -12.097  13.152  67.566  1.00  0.00    -0.248 C  
BRANCH  16  17
HETATM   17  C   UNL     1     -12.400  14.017  66.340  1.00  0.00    -0.431 C  
BRANCH  17  18
HETATM   18  O   UNL     1     -11.402  14.991  66.012  1.00  0.00    -0.338 OA 
BRANCH  18  19
HETATM   19  C   UNL     1     -10.076  14.516  65.803  1.00  0.00    -0.342 C  
BRANCH  19  20
HETATM   20  C   UNL     1      -9.030  15.588  66.136  1.00  0.00    -0.294 C  
BRANCH  20  21
HETATM   21  N   UNL     1      -8.345  15.442  67.503  1.00  0.00    -0.163 N  
HETATM   22  C   UNL     1      -8.614  14.010  67.981  1.00  0.00    -0.179 C  
HETATM   23  C   UNL     1      -6.837  15.616  67.361  1.00  0.00    -0.197 C  
BRANCH  21  24
HETATM   24  C   UNL     1      -8.943  16.455  68.516  1.00  0.00    -0.224 C  
BRANCH  24  25
HETATM   25  C   UNL     1      -9.264  17.813  67.954  1.00  0.00    -0.265 A  
HETATM   26  C   UNL     1      -8.269  18.802  67.899  1.00  0.00    -0.293 A  
HETATM   27  C   UNL     1      -8.591  20.105  67.524  1.00  0.00    -0.404 A  
HETATM   28  C   UNL     1      -9.901  20.428  67.182  1.00  0.00    -0.601 A  
HETATM   29  C   UNL     1     -10.885  19.442  67.174  1.00  0.00    -0.561 A  
HETATM   30  C   UNL     1     -10.567  18.136  67.545  1.00  0.00    -0.419 A  
ENDBRANCH  24  25
ENDBRANCH  21  24
ENDBRANCH  20  21
ENDBRANCH  19  20
ENDBRANCH  18  19
ENDBRANCH  17  18
ENDBRANCH  16  17
ENDBRANCH  15  16
ENDBRANCH  12  15
ENDBRANCH   6   9
ENDBRANCH   5   6
ENDBRANCH   2   5
TORSDOF 12
ENDMDL
MODEL       39
REMARK 921   NORMALIZED FREE ENERGY PREDICTED BY IDOCK:   -5.38 KCAL/MOL
REMARK 922        TOTAL FREE ENERGY PREDICTED BY IDOCK:  -10.43 KCAL/MOL
REMARK 923 INTER-LIGAND FREE ENERGY PREDICTED BY IDOCK:   -7.95 KCAL/MOL
REMARK 924 INTRA-LIGAND FREE ENERGY PREDICTED BY IDOCK:   -2.47 KCAL/MOL
REMARK 927      BINDING AFFINITY PREDICTED BY RF-SCORE:    0.00 PKD
ROOT
HETATM    1  C   UNL     1     -10.825  15.344  64.920  1.00  0.00    -0.445 C  
HETATM    2  C   UNL     1     -11.118  13.933  65.445  1.00  0.00    -0.310 C  
HETATM    3  C   UNL     1     -12.634  13.723  65.560  1.00  0.00    -0.551 C  
HETATM    4  C   UNL     1     -10.612  12.944  64.360  1.00  0.00    -0.418 C  
ENDROOT
BRANCH   2   5
HETATM    5  C   UNL     1     -10.355  13.599  66.769  1.00  0.00    -0.268 C  
BRANCH   5   6
HETATM    6  C   UNL     1     -10.661  14.253  68.171  1.00  0.00    -0.249 C  
HETATM    7  C   UNL     1     -11.598  15.478  68.071  1.00  0.00    -0.276 C  
HETATM    8  C   UNL     1      -9.380  14.731  68.885  1.00  0.00    -0.184 C  
BRANCH   6   9
HETATM    9  C   UNL     1     -11.401  13.182  69.018  1.00  0.00    -0.332 A  
HETATM   10  C   UNL     1     -11.571  11.851  68.597  1.00  0.00    -0.366 A  
HETATM   11  C   UNL     1     -12.238  10.916  69.390  1.00  0.00    -0.293 A  
HETATM   12  C   UNL     1     -12.770  11.283  70.620  1.00  0.00    -0.227 A  
HETATM   13  C   UNL     1     -11.959  13.532  70.266  1.00  0.00    -0.386 A  
HETATM   14  C   UNL     1     -12.640  12.598  71.055  1.00  0.00    -0.354 A  
BRANCH  12  15
HETATM   15  O   UNL     1     -13.423  10.280  71.282  1.00  0.00    -0.319 OA 
BRANCH  15  16
HETATM   16  C   UNL     1     -12.612   9.421  72.072  1.00  0.00    -0.384 C  
BRANCH  16  17
HETATM   17  C   UNL     1     -13.031   7.978  71.782  1.00  0.00    -0.331 C  
BRANCH  17  18
HETATM   18  O   UNL     1     -11.998   6.996  71.928  1.00  0.00    -0.294 OA 
BRANCH  18  19
HETATM   19  C   UNL     1     -11.431   6.469  70.733  1.00  0.00    -0.360 C  
BRANCH  19  20
HETATM   20  C   UNL     1      -9.918   6.249  70.871  1.00  0.00    -0.186 C  
BRANCH  20  21
HETATM   21  N   UNL     1      -9.036   7.431  70.443  1.00  0.00    -0.150 N  
HETATM   22  C   UNL     1      -8.568   8.122  71.731  1.00  0.00    -0.146 C  
HETATM   23  C   UNL     1      -7.801   6.929  69.703  1.00  0.00    -0.119 C  
BRANCH  21  24
HETATM   24  C   UNL     1      -9.853   8.428  69.579  1.00  0.00    -0.181 C  
BRANCH  24  25
HETATM   25  C   UNL     1      -9.034   9.392  68.763  1.00  0.00    -0.132 A  
HETATM   26  C   UNL     1      -8.342  10.436  69.397  1.00  0.00    -0.152 A  
HETATM   27  C   UNL     1      -7.708  11.421  68.642  1.00  0.00    -0.137 A  
HETATM   28  C   UNL     1      -7.742  11.362  67.252  1.00  0.00    -0.145 A  
HETATM   29  C   UNL     1      -8.374  10.300  66.611  1.00  0.00    -0.125 A  
HETATM   30  C   UNL     1      -9.007   9.309  67.363  1.00  0.00    -0.135 A  
ENDBRANCH  24  25
ENDBRANCH  21  24
ENDBRANCH  20  21
ENDBRANCH  19  20
ENDBRANCH  18  19
ENDBRANCH  17  18
ENDBRANCH  16  17
ENDBRANCH  15  16
ENDBRANCH  12  15
ENDBRANCH   6   9
ENDBRANCH   5   6
ENDBRANCH   2   5
TORSDOF 12
ENDMDL
MODEL       40
REMARK 921   NORMALIZED FREE ENERGY PREDICTED BY IDOCK:   -5.37 KCAL/MOL
REMARK 922        TOTAL FREE ENERGY PREDICTED BY IDOCK:  -10.41 KCAL/MOL
REMARK 923 INTER-LIGAND FREE ENERGY PREDICTED BY IDOCK:   -8.38 KCAL/MOL
REMARK 924 INTRA-LIGAND FREE ENERGY PREDICTED BY IDOCK:   -2.03 KCAL/MOL
REMARK 927      BINDING AFFINITY PREDICTED BY RF-SCORE:    0.00 PKD
ROOT
HETATM    1  C   UNL     1     -10.909  14.840  64.771  1.00  0.00    -0.395 C  
HETATM    2  C   UNL     1     -10.990  13.326  65.009  1.00  0.00    -0.328 C  
HETATM    3  C   UNL     1     -12.326  12.972  65.675  1.00  0.00    -0.504 C  
HETATM    4  C   UNL     1     -11.001  12.660  63.606  1.00  0.00    -0.464 C  
ENDROOT
BRANCH   2   5
HETATM    5  C   UNL     1      -9.755  12.758  65.782  1.00  0.00    -0.167 C  
BRANCH   5   6
HETATM    6  C   UNL     1      -9.394  11.228  65.898  1.00  0.00    -0.240 C  
HETATM    7  C   UNL     1      -7.875  10.960  65.805  1.00  0.00    -0.057 C  
HETATM    8  C   UNL     1     -10.063  10.385  64.792  1.00  0.00    -0.387 C  
BRANCH   6   9
HETATM    9  C   UNL     1      -9.854  10.760  67.306  1.00  0.00    -0.208 A  
HETATM   10  C   UNL     1     -11.206  10.621  67.667  1.00  0.00    -0.361 A  
HETATM   11  C   UNL     1     -11.579  10.193  68.942  1.00  0.00    -0.056 A  
HETATM   12  C   UNL     1     -10.615   9.906  69.901  1.00  0.00    -0.273 A  
HETATM   13  C   UNL     1      -8.895  10.472  68.300  1.00  0.00    -0.139 A  
HETATM   14  C   UNL     1      -9.269  10.056  69.583  1.00  0.00    -0.236 A  
BRANCH  12  15
HETATM   15  O   UNL     1     -11.114   9.524  71.116  1.00  0.00    -0.322 OA 
BRANCH  15  16
HETATM   16  C   UNL     1     -12.346   8.818  71.092  1.00  0.00    -0.219 C  
BRANCH  16  17
HETATM   17  C   UNL     1     -13.330   9.551  72.007  1.00  0.00    -0.452 C  
BRANCH  17  18
HETATM   18  O   UNL     1     -12.914  10.851  72.442  1.00  0.00    -0.165 OA 
BRANCH  18  19
HETATM   19  C   UNL     1     -13.487  11.972  71.776  1.00  0.00    -0.096 C  
BRANCH  19  20
HETATM   20  C   UNL     1     -13.090  13.294  72.446  1.00  0.00    -0.337 C  
BRANCH  20  21
HETATM   21  N   UNL     1     -12.807  14.462  71.490  1.00  0.00    -0.322 N  
HETATM   22  C   UNL     1     -14.010  15.409  71.581  1.00  0.00    -0.516 C  
HETATM   23  C   UNL     1     -11.569  15.228  71.942  1.00  0.00    -0.437 C  
BRANCH  21  24
HETATM   24  C   UNL     1     -12.657  13.943  70.035  1.00  0.00    -0.169 C  
BRANCH  24  25
HETATM   25  C   UNL     1     -11.554  14.583  69.235  1.00  0.00    -0.339 A  
HETATM   26  C   UNL     1     -10.347  13.896  69.030  1.00  0.00    -0.108 A  
HETATM   27  C   UNL     1      -9.267  14.535  68.424  1.00  0.00    -0.196 A  
HETATM   28  C   UNL     1      -9.388  15.856  68.000  1.00  0.00    -0.201 A  
HETATM   29  C   UNL     1     -10.599  16.529  68.143  1.00  0.00    -0.329 A  
HETATM   30  C   UNL     1     -11.684  15.891  68.745  1.00  0.00    -0.355 A  
ENDBRANCH  24  25
ENDBRANCH  21  24
ENDBRANCH  20  21
ENDBRANCH  19  20
ENDBRANCH  18  19
ENDBRANCH  17  18
ENDBRANCH  16  17
ENDBRANCH  15  16
ENDBRANCH  12  15
ENDBRANCH   6   9
ENDBRANCH   5   6
ENDBRANCH   2   5
TORSDOF 12
ENDMDL
MODEL       41
REMARK 921   NORMALIZED FREE ENERGY PREDICTED BY IDOCK:   -5.36 KCAL/MOL
REMARK 922        TOTAL FREE ENERGY PREDICTED BY IDOCK:  -10.38 KCAL/MOL
REMARK 923 INTER-LIGAND FREE ENERGY PREDICTED BY IDOCK:   -9.23 KCAL/MOL
REMARK 924 INTRA-LIGAND FREE ENERGY PREDICTED BY IDOCK:   -1.15 KCAL/MOL
REMARK 927      BINDING AFFINITY PREDICTED BY RF-SCORE:    0.00 PKD
ROOT
HETATM    1  C   UNL     1     -13.411  13.625  72.592  1.00  0.00    -0.587 C  
HETATM    2  C   UNL     1     -12.796  14.562  71.544  1.00  0.00    -0.407 C  
HETATM    3  C   UNL     1     -13.887  15.459  70.943  1.00  0.00    -0.245 C  
HETATM    4  C   UNL     1     -11.821  15.498  72.308  1.00  0.00    -0.560 C  
ENDROOT
BRANCH   2   5
HETATM    5  C   UNL     1     -11.962  13.807  70.459  1.00  0.00    -0.367 C  
BRANCH   5   6
HETATM    6  C   UNL     1     -11.210  14.502  69.260  1.00  0.00    -0.309 C  
HETATM    7  C   UNL     1      -9.842  15.092  69.669  1.00  0.00    -0.162 C  
HETATM    8  C   UNL     1     -12.029  15.659  68.649  1.00  0.00    -0.201 C  
BRANCH   6   9
HETATM    9  C   UNL     1     -10.933  13.400  68.200  1.00  0.00    -0.277 A  
HETATM   10  C   UNL     1     -11.784  13.150  67.109  1.00  0.00    -0.430 A  
HETATM   11  C   UNL     1     -11.496  12.153  66.175  1.00  0.00    -0.429 A  
HETATM   12  C   UNL     1     -10.360  11.365  66.310  1.00  0.00    -0.243 A  
HETATM   13  C   UNL     1      -9.790  12.581  68.320  1.00  0.00    -0.227 A  
HETATM   14  C   UNL     1      -9.509  11.572  67.392  1.00  0.00    -0.171 A  
BRANCH  12  15
HETATM   15  O   UNL     1     -10.211  10.408  65.345  1.00  0.00    -0.292 OA 
BRANCH  15  16
HETATM   16  C   UNL     1      -8.916   9.835  65.226  1.00  0.00    -0.193 C  
BRANCH  16  17
HETATM   17  C   UNL     1      -9.029   8.341  65.542  1.00  0.00    -0.064 C  
BRANCH  17  18
HETATM   18  O   UNL     1      -9.984   7.997  66.553  1.00  0.00    -0.249 OA 
BRANCH  18  19
HETATM   19  C   UNL     1      -9.685   6.870  67.370  1.00  0.00    -0.139 C  
BRANCH  19  20
HETATM   20  C   UNL     1      -9.196   7.292  68.763  1.00  0.00    -0.137 C  
BRANCH  20  21
HETATM   21  N   UNL     1      -9.838   6.549  69.943  1.00  0.00    -0.166 N  
HETATM   22  C   UNL     1     -11.277   6.219  69.527  1.00  0.00    -0.430 C  
HETATM   23  C   UNL     1      -9.109   5.235  70.201  1.00  0.00    -0.133 C  
BRANCH  21  24
HETATM   24  C   UNL     1      -9.850   7.451  71.206  1.00  0.00    -0.176 C  
BRANCH  24  25
HETATM   25  C   UNL     1     -11.025   8.385  71.318  1.00  0.00    -0.305 A  
HETATM   26  C   UNL     1     -10.988   9.639  70.688  1.00  0.00    -0.386 A  
HETATM   27  C   UNL     1     -12.002  10.569  70.910  1.00  0.00    -0.481 A  
HETATM   28  C   UNL     1     -13.070  10.249  71.743  1.00  0.00    -0.570 A  
HETATM   29  C   UNL     1     -13.149   8.987  72.326  1.00  0.00    -0.508 A  
HETATM   30  C   UNL     1     -12.139   8.051  72.104  1.00  0.00    -0.391 A  
ENDBRANCH  24  25
ENDBRANCH  21  24
ENDBRANCH  20  21
ENDBRANCH  19  20
ENDBRANCH  18  19
ENDBRANCH  17  18
ENDBRANCH  16  17
ENDBRANCH  15  16
ENDBRANCH  12  15
ENDBRANCH   6   9
ENDBRANCH   5   6
ENDBRANCH   2   5
TORSDOF 12
ENDMDL
MODEL       42
REMARK 921   NORMALIZED FREE ENERGY PREDICTED BY IDOCK:   -5.32 KCAL/MOL
REMARK 922        TOTAL FREE ENERGY PREDICTED BY IDOCK:  -10.33 KCAL/MOL
REMARK 923 INTER-LIGAND FREE ENERGY PREDICTED BY IDOCK:   -8.59 KCAL/MOL
REMARK 924 INTRA-LIGAND FREE ENERGY PREDICTED BY IDOCK:   -1.74 KCAL/MOL
REMARK 927      BINDING AFFINITY PREDICTED BY RF-SCORE:    0.00 PKD
ROOT
HETATM    1  C   UNL     1     -10.235  13.753  65.769  1.00  0.00    -0.322 C  
HETATM    2  C   UNL     1     -11.320  12.811  66.307  1.00  0.00    -0.365 C  
HETATM    3  C   UNL     1     -12.009  13.448  67.522  1.00  0.00    -0.381 C  
HETATM    4  C   UNL     1     -12.397  12.698  65.194  1.00  0.00    -0.547 C  
ENDROOT
BRANCH   2   5
HETATM    5  C   UNL     1     -10.794  11.367  66.592  1.00  0.00    -0.339 C  
BRANCH   5   6
HETATM    6  C   UNL     1      -9.603  10.677  65.824  1.00  0.00    -0.258 C  
HETATM    7  C   UNL     1      -8.221  11.235  66.233  1.00  0.00    -0.126 C  
HETATM    8  C   UNL     1      -9.717  10.848  64.295  1.00  0.00    -0.347 C  
BRANCH   6   9
HETATM    9  C   UNL     1      -9.622   9.174  66.216  1.00  0.00    -0.321 A  
HETATM   10  C   UNL     1      -8.653   8.253  65.781  1.00  0.00    -0.182 A  
HETATM   11  C   UNL     1      -8.702   6.910  66.160  1.00  0.00    -0.153 A  
HETATM   12  C   UNL     1      -9.728   6.443  66.972  1.00  0.00    -0.149 A  
HETATM   13  C   UNL     1     -10.658   8.672  67.032  1.00  0.00    -0.293 A  
HETATM   14  C   UNL     1     -10.715   7.324  67.401  1.00  0.00    -0.358 A  
BRANCH  12  15
HETATM   15  O   UNL     1      -9.674   5.103  67.245  1.00  0.00    -0.137 OA 
BRANCH  15  16
HETATM   16  C   UNL     1      -8.450   4.623  67.784  1.00  0.00    -0.103 C  
BRANCH  16  17
HETATM   17  C   UNL     1      -8.509   4.782  69.305  1.00  0.00    -0.080 C  
BRANCH  17  18
HETATM   18  O   UNL     1      -7.979   6.010  69.817  1.00  0.00    -0.102 OA 
BRANCH  18  19
HETATM   19  C   UNL     1      -8.784   6.726  70.748  1.00  0.00    -0.146 C  
BRANCH  19  20
HETATM   20  C   UNL     1     -10.186   6.114  70.873  1.00  0.00    -0.201 C  
BRANCH  20  21
HETATM   21  N   UNL     1     -11.050   6.668  72.015  1.00  0.00    -0.245 N  
HETATM   22  C   UNL     1     -11.443   5.472  72.891  1.00  0.00    -0.267 C  
HETATM   23  C   UNL     1     -10.240   7.634  72.872  1.00  0.00    -0.298 C  
BRANCH  21  24
HETATM   24  C   UNL     1     -12.327   7.344  71.446  1.00  0.00    -0.361 C  
BRANCH  24  25
HETATM   25  C   UNL     1     -12.245   8.838  71.284  1.00  0.00    -0.332 A  
HETATM   26  C   UNL     1     -13.049   9.674  72.075  1.00  0.00    -0.537 A  
HETATM   27  C   UNL     1     -13.095  11.045  71.829  1.00  0.00    -0.554 A  
HETATM   28  C   UNL     1     -12.325  11.596  70.808  1.00  0.00    -0.454 A  
HETATM   29  C   UNL     1     -11.478  10.785  70.056  1.00  0.00    -0.412 A  
HETATM   30  C   UNL     1     -11.426   9.413  70.301  1.00  0.00    -0.223 A  
ENDBRANCH  24  25
ENDBRANCH  21  24
ENDBRANCH  20  21
ENDBRANCH  19  20
ENDBRANCH  18  19
ENDBRANCH  17  18
ENDBRANCH  16  17
ENDBRANCH  15  16
ENDBRANCH  12  15
ENDBRANCH   6   9
ENDBRANCH   5   6
ENDBRANCH   2   5
TORSDOF 12
ENDMDL
MODEL       43
REMARK 921   NORMALIZED FREE ENERGY PREDICTED BY IDOCK:   -5.32 KCAL/MOL
REMARK 922        TOTAL FREE ENERGY PREDICTED BY IDOCK:  -10.32 KCAL/MOL
REMARK 923 INTER-LIGAND FREE ENERGY PREDICTED BY IDOCK:   -9.78 KCAL/MOL
REMARK 924 INTRA-LIGAND FREE ENERGY PREDICTED BY IDOCK:   -0.54 KCAL/MOL
REMARK 927      BINDING AFFINITY PREDICTED BY RF-SCORE:    0.00 PKD
ROOT
HETATM    1  C   UNL     1     -12.532   8.129  72.147  1.00  0.00    -0.364 C  
HETATM    2  C   UNL     1     -11.066   7.685  72.048  1.00  0.00    -0.300 C  
HETATM    3  C   UNL     1     -10.189   8.870  71.621  1.00  0.00    -0.415 C  
HETATM    4  C   UNL     1     -10.625   7.300  73.486  1.00  0.00    -0.408 C  
ENDROOT
BRANCH   2   5
HETATM    5  C   UNL     1     -10.866   6.423  71.147  1.00  0.00    -0.308 C  
BRANCH   5   6
HETATM    6  C   UNL     1      -9.558   6.105  70.325  1.00  0.00    -0.188 C  
HETATM    7  C   UNL     1      -9.507   4.646  69.820  1.00  0.00    -0.238 C  
HETATM    8  C   UNL     1      -8.278   6.334  71.154  1.00  0.00    -0.123 C  
BRANCH   6   9
HETATM    9  C   UNL     1      -9.579   7.022  69.071  1.00  0.00    -0.141 A  
HETATM   10  C   UNL     1      -8.553   7.935  68.769  1.00  0.00    -0.128 A  
HETATM   11  C   UNL     1      -8.605   8.738  67.628  1.00  0.00    -0.128 A  
HETATM   12  C   UNL     1      -9.690   8.666  66.764  1.00  0.00    -0.233 A  
HETATM   13  C   UNL     1     -10.673   6.975  68.183  1.00  0.00    -0.242 A  
HETATM   14  C   UNL     1     -10.733   7.790  67.047  1.00  0.00    -0.316 A  
BRANCH  12  15
HETATM   15  O   UNL     1      -9.631   9.526  65.701  1.00  0.00    -0.245 OA 
BRANCH  15  16
HETATM   16  C   UNL     1      -9.765  10.907  66.006  1.00  0.00    -0.224 C  
BRANCH  16  17
HETATM   17  C   UNL     1     -10.676  11.539  64.950  1.00  0.00    -0.297 C  
BRANCH  17  18
HETATM   18  O   UNL     1     -11.649  12.464  65.450  1.00  0.00    -0.350 OA 
BRANCH  18  19
HETATM   19  C   UNL     1     -11.159  13.625  66.113  1.00  0.00    -0.295 C  
BRANCH  19  20
HETATM   20  C   UNL     1     -12.090  14.063  67.251  1.00  0.00    -0.370 C  
BRANCH  20  21
HETATM   21  N   UNL     1     -11.416  14.268  68.616  1.00  0.00    -0.278 N  
HETATM   22  C   UNL     1     -11.864  13.103  69.508  1.00  0.00    -0.322 C  
HETATM   23  C   UNL     1      -9.900  14.197  68.474  1.00  0.00    -0.230 C  
BRANCH  21  24
HETATM   24  C   UNL     1     -11.868  15.614  69.244  1.00  0.00    -0.363 C  
BRANCH  24  25
HETATM   25  C   UNL     1     -12.321  15.534  70.677  1.00  0.00    -0.462 A  
HETATM   26  C   UNL     1     -13.673  15.299  70.974  1.00  0.00    -0.452 A  
HETATM   27  C   UNL     1     -14.129  15.375  72.288  1.00  0.00    -0.660 A  
HETATM   28  C   UNL     1     -13.239  15.665  73.318  1.00  0.00    -0.666 A  
HETATM   29  C   UNL     1     -11.885  15.842  73.045  1.00  0.00    -0.551 A  
HETATM   30  C   UNL     1     -11.423  15.762  71.731  1.00  0.00    -0.484 A  
ENDBRANCH  24  25
ENDBRANCH  21  24
ENDBRANCH  20  21
ENDBRANCH  19  20
ENDBRANCH  18  19
ENDBRANCH  17  18
ENDBRANCH  16  17
ENDBRANCH  15  16
ENDBRANCH  12  15
ENDBRANCH   6   9
ENDBRANCH   5   6
ENDBRANCH   2   5
TORSDOF 12
ENDMDL
MODEL       44
REMARK 921   NORMALIZED FREE ENERGY PREDICTED BY IDOCK:   -5.31 KCAL/MOL
REMARK 922        TOTAL FREE ENERGY PREDICTED BY IDOCK:  -10.30 KCAL/MOL
REMARK 923 INTER-LIGAND FREE ENERGY PREDICTED BY IDOCK:   -9.56 KCAL/MOL
REMARK 924 INTRA-LIGAND FREE ENERGY PREDICTED BY IDOCK:   -0.75 KCAL/MOL
REMARK 927      BINDING AFFINITY PREDICTED BY RF-SCORE:    0.00 PKD
ROOT
HETATM    1  C   UNL     1      -7.836   9.293  70.820  1.00  0.00    -0.174 C  
HETATM    2  C   UNL     1      -8.585   8.247  71.656  1.00  0.00    -0.202 C  
HETATM    3  C   UNL     1      -8.585   6.897  70.926  1.00  0.00    -0.136 C  
HETATM    4  C   UNL     1      -7.760   8.051  72.957  1.00  0.00    -0.189 C  
ENDROOT
BRANCH   2   5
HETATM    5  C   UNL     1     -10.017   8.710  72.081  1.00  0.00    -0.386 C  
BRANCH   5   6
HETATM    6  C   UNL     1     -11.315   8.531  71.203  1.00  0.00    -0.319 C  
HETATM    7  C   UNL     1     -12.593   9.030  71.914  1.00  0.00    -0.452 C  
HETATM    8  C   UNL     1     -11.564   7.058  70.822  1.00  0.00    -0.381 C  
BRANCH   6   9
HETATM    9  C   UNL     1     -11.127   9.409  69.935  1.00  0.00    -0.223 A  
HETATM   10  C   UNL     1     -10.646   8.903  68.714  1.00  0.00    -0.185 A  
HETATM   11  C   UNL     1     -10.496   9.723  67.595  1.00  0.00    -0.305 A  
HETATM   12  C   UNL     1     -10.807  11.076  67.663  1.00  0.00    -0.256 A  
HETATM   13  C   UNL     1     -11.426  10.787  69.981  1.00  0.00    -0.412 A  
HETATM   14  C   UNL     1     -11.263  11.612  68.863  1.00  0.00    -0.306 A  
BRANCH  12  15
HETATM   15  O   UNL     1     -10.588  11.771  66.506  1.00  0.00    -0.235 OA 
BRANCH  15  16
HETATM   16  C   UNL     1     -11.643  12.620  66.077  1.00  0.00    -0.393 C  
BRANCH  16  17
HETATM   17  C   UNL     1     -11.184  13.342  64.808  1.00  0.00    -0.345 C  
BRANCH  17  18
HETATM   18  O   UNL     1     -11.042  14.763  64.925  1.00  0.00    -0.374 OA 
BRANCH  18  19
HETATM   19  C   UNL     1      -9.992  15.243  65.759  1.00  0.00    -0.360 C  
BRANCH  19  20
HETATM   20  C   UNL     1     -10.490  16.317  66.736  1.00  0.00    -0.287 C  
BRANCH  20  21
HETATM   21  N   UNL     1     -10.475  15.920  68.219  1.00  0.00    -0.249 N  
HETATM   22  C   UNL     1     -11.782  15.164  68.487  1.00  0.00    -0.325 C  
HETATM   23  C   UNL     1      -9.315  14.971  68.502  1.00  0.00    -0.196 C  
BRANCH  21  24
HETATM   24  C   UNL     1     -10.407  17.186  69.115  1.00  0.00    -0.297 C  
BRANCH  24  25
HETATM   25  C   UNL     1      -9.715  18.372  68.500  1.00  0.00    -0.386 A  
HETATM   26  C   UNL     1     -10.443  19.282  67.718  1.00  0.00    -0.539 A  
HETATM   27  C   UNL     1      -9.788  20.295  67.021  1.00  0.00    -0.607 A  
HETATM   28  C   UNL     1      -8.405  20.421  67.114  1.00  0.00    -0.382 A  
HETATM   29  C   UNL     1      -7.677  19.562  67.934  1.00  0.00    -0.324 A  
HETATM   30  C   UNL     1      -8.329  18.550  68.637  1.00  0.00    -0.330 A  
ENDBRANCH  24  25
ENDBRANCH  21  24
ENDBRANCH  20  21
ENDBRANCH  19  20
ENDBRANCH  18  19
ENDBRANCH  17  18
ENDBRANCH  16  17
ENDBRANCH  15  16
ENDBRANCH  12  15
ENDBRANCH   6   9
ENDBRANCH   5   6
ENDBRANCH   2   5
TORSDOF 12
ENDMDL
MODEL       45
REMARK 921   NORMALIZED FREE ENERGY PREDICTED BY IDOCK:   -5.31 KCAL/MOL
REMARK 922        TOTAL FREE ENERGY PREDICTED BY IDOCK:  -10.30 KCAL/MOL
REMARK 923 INTER-LIGAND FREE ENERGY PREDICTED BY IDOCK:   -9.43 KCAL/MOL
REMARK 924 INTRA-LIGAND FREE ENERGY PREDICTED BY IDOCK:   -0.87 KCAL/MOL
REMARK 927      BINDING AFFINITY PREDICTED BY RF-SCORE:    0.00 PKD
ROOT
HETATM    1  C   UNL     1     -10.829   5.739  69.589  1.00  0.00    -0.418 C  
HETATM    2  C   UNL     1      -9.543   5.289  70.294  1.00  0.00    -0.241 C  
HETATM    3  C   UNL     1      -9.578   3.772  70.525  1.00  0.00    -0.262 C  
HETATM    4  C   UNL     1      -8.378   5.563  69.305  1.00  0.00    -0.101 C  
ENDROOT
BRANCH   2   5
HETATM    5  C   UNL     1      -9.243   6.096  71.600  1.00  0.00    -0.150 C  
BRANCH   5   6
HETATM    6  C   UNL     1     -10.343   6.667  72.575  1.00  0.00    -0.218 C  
HETATM    7  C   UNL     1      -9.782   7.020  73.971  1.00  0.00    -0.332 C  
HETATM    8  C   UNL     1     -11.499   5.672  72.798  1.00  0.00    -0.328 C  
BRANCH   6   9
HETATM    9  C   UNL     1     -10.862   7.989  71.945  1.00  0.00    -0.316 A  
HETATM   10  C   UNL     1     -10.103   8.767  71.054  1.00  0.00    -0.301 A  
HETATM   11  C   UNL     1     -10.608   9.947  70.504  1.00  0.00    -0.359 A  
HETATM   12  C   UNL     1     -11.880  10.394  70.839  1.00  0.00    -0.377 A  
HETATM   13  C   UNL     1     -12.147   8.469  72.276  1.00  0.00    -0.455 A  
HETATM   14  C   UNL     1     -12.648   9.659  71.737  1.00  0.00    -0.497 A  
BRANCH  12  15
HETATM   15  O   UNL     1     -12.242  11.576  70.255  1.00  0.00    -0.330 OA 
BRANCH  15  16
HETATM   16  C   UNL     1     -11.923  11.716  68.877  1.00  0.00    -0.292 C  
BRANCH  16  17
HETATM   17  C   UNL     1     -11.953  13.208  68.534  1.00  0.00    -0.289 C  
BRANCH  17  18
HETATM   18  O   UNL     1     -11.747  14.098  69.638  1.00  0.00    -0.278 OA 
BRANCH  18  19
HETATM   19  C   UNL     1     -11.059  15.315  69.369  1.00  0.00    -0.280 C  
BRANCH  19  20
HETATM   20  C   UNL     1     -11.168  15.714  67.890  1.00  0.00    -0.328 C  
BRANCH  20  21
HETATM   21  N   UNL     1      -9.856  16.154  67.225  1.00  0.00    -0.238 N  
HETATM   22  C   UNL     1      -9.650  17.630  67.589  1.00  0.00    -0.268 C  
HETATM   23  C   UNL     1      -8.683  15.361  67.791  1.00  0.00    -0.164 C  
BRANCH  21  24
HETATM   24  C   UNL     1      -9.956  16.002  65.683  1.00  0.00    -0.313 C  
BRANCH  24  25
HETATM   25  C   UNL     1     -10.618  14.738  65.203  1.00  0.00    -0.439 A  
HETATM   26  C   UNL     1      -9.976  13.502  65.374  1.00  0.00    -0.220 A  
HETATM   27  C   UNL     1     -10.505  12.348  64.800  1.00  0.00    -0.333 A  
HETATM   28  C   UNL     1     -11.688  12.413  64.070  1.00  0.00    -0.498 A  
HETATM   29  C   UNL     1     -12.367  13.623  63.944  1.00  0.00    -0.375 A  
HETATM   30  C   UNL     1     -11.843  14.780  64.520  1.00  0.00    -0.428 A  
ENDBRANCH  24  25
ENDBRANCH  21  24
ENDBRANCH  20  21
ENDBRANCH  19  20
ENDBRANCH  18  19
ENDBRANCH  17  18
ENDBRANCH  16  17
ENDBRANCH  15  16
ENDBRANCH  12  15
ENDBRANCH   6   9
ENDBRANCH   5   6
ENDBRANCH   2   5
TORSDOF 12
ENDMDL
MODEL       46
REMARK 921   NORMALIZED FREE ENERGY PREDICTED BY IDOCK:   -5.31 KCAL/MOL
REMARK 922        TOTAL FREE ENERGY PREDICTED BY IDOCK:  -10.30 KCAL/MOL
REMARK 923 INTER-LIGAND FREE ENERGY PREDICTED BY IDOCK:   -8.29 KCAL/MOL
REMARK 924 INTRA-LIGAND FREE ENERGY PREDICTED BY IDOCK:   -2.01 KCAL/MOL
REMARK 927      BINDING AFFINITY PREDICTED BY RF-SCORE:    0.00 PKD
ROOT
HETATM    1  C   UNL     1      -8.552  16.138  68.973  1.00  0.00    -0.251 C  
HETATM    2  C   UNL     1      -8.752  14.932  68.046  1.00  0.00    -0.165 C  
HETATM    3  C   UNL     1      -9.190  15.409  66.655  1.00  0.00    -0.303 C  
HETATM    4  C   UNL     1      -7.357  14.273  67.873  1.00  0.00    -0.163 C  
ENDROOT
BRANCH   2   5
HETATM    5  C   UNL     1      -9.706  13.847  68.645  1.00  0.00    -0.160 C  
BRANCH   5   6
HETATM    6  C   UNL     1     -11.271  13.994  68.762  1.00  0.00    -0.298 C  
HETATM    7  C   UNL     1     -11.994  13.806  67.409  1.00  0.00    -0.423 C  
HETATM    8  C   UNL     1     -11.690  15.377  69.301  1.00  0.00    -0.367 C  
BRANCH   6   9
HETATM    9  C   UNL     1     -11.763  12.859  69.702  1.00  0.00    -0.367 A  
HETATM   10  C   UNL     1     -11.502  11.498  69.467  1.00  0.00    -0.378 A  
HETATM   11  C   UNL     1     -11.957  10.508  70.339  1.00  0.00    -0.425 A  
HETATM   12  C   UNL     1     -12.700  10.845  71.465  1.00  0.00    -0.428 A  
HETATM   13  C   UNL     1     -12.526  13.174  70.846  1.00  0.00    -0.407 A  
HETATM   14  C   UNL     1     -12.995  12.181  71.714  1.00  0.00    -0.437 A  
BRANCH  12  15
HETATM   15  O   UNL     1     -13.108   9.779  72.219  1.00  0.00    -0.416 OA 
BRANCH  15  16
HETATM   16  C   UNL     1     -14.038   8.898  71.605  1.00  0.00    -0.330 C  
BRANCH  16  17
HETATM   17  C   UNL     1     -13.385   7.517  71.503  1.00  0.00    -0.352 C  
BRANCH  17  18
HETATM   18  O   UNL     1     -11.962   7.496  71.666  1.00  0.00    -0.279 OA 
BRANCH  18  19
HETATM   19  C   UNL     1     -11.256   6.417  71.062  1.00  0.00    -0.313 C  
BRANCH  19  20
HETATM   20  C   UNL     1     -10.822   6.755  69.629  1.00  0.00    -0.271 C  
BRANCH  20  21
HETATM   21  N   UNL     1      -9.336   7.096  69.450  1.00  0.00    -0.148 N  
HETATM   22  C   UNL     1      -9.094   8.419  70.188  1.00  0.00    -0.150 C  
HETATM   23  C   UNL     1      -8.465   6.028  70.101  1.00  0.00    -0.127 C  
BRANCH  21  24
HETATM   24  C   UNL     1      -8.999   7.266  67.944  1.00  0.00    -0.130 C  
BRANCH  24  25
HETATM   25  C   UNL     1      -9.087   8.675  67.421  1.00  0.00    -0.148 A  
HETATM   26  C   UNL     1     -10.293   9.150  66.884  1.00  0.00    -0.321 A  
HETATM   27  C   UNL     1     -10.345  10.395  66.261  1.00  0.00    -0.270 A  
HETATM   28  C   UNL     1      -9.201  11.184  66.185  1.00  0.00    -0.216 A  
HETATM   29  C   UNL     1      -8.012  10.750  66.767  1.00  0.00    -0.138 A  
HETATM   30  C   UNL     1      -7.957   9.506  67.396  1.00  0.00    -0.106 A  
ENDBRANCH  24  25
ENDBRANCH  21  24
ENDBRANCH  20  21
ENDBRANCH  19  20
ENDBRANCH  18  19
ENDBRANCH  17  18
ENDBRANCH  16  17
ENDBRANCH  15  16
ENDBRANCH  12  15
ENDBRANCH   6   9
ENDBRANCH   5   6
ENDBRANCH   2   5
TORSDOF 12
ENDMDL
MODEL       47
REMARK 921   NORMALIZED FREE ENERGY PREDICTED BY IDOCK:   -5.30 KCAL/MOL
REMARK 922        TOTAL FREE ENERGY PREDICTED BY IDOCK:  -10.28 KCAL/MOL
REMARK 923 INTER-LIGAND FREE ENERGY PREDICTED BY IDOCK:  -10.00 KCAL/MOL
REMARK 924 INTRA-LIGAND FREE ENERGY PREDICTED BY IDOCK:   -0.28 KCAL/MOL
REMARK 927      BINDING AFFINITY PREDICTED BY RF-SCORE:    0.00 PKD
ROOT
HETATM    1  C   UNL     1      -9.803   3.867  71.628  1.00  0.00    -0.247 C  
HETATM    2  C   UNL     1     -10.466   4.759  72.685  1.00  0.00    -0.260 C  
HETATM    3  C   UNL     1     -11.280   3.898  73.660  1.00  0.00    -0.294 C  
HETATM    4  C   UNL     1      -9.314   5.397  73.508  1.00  0.00    -0.134 C  
ENDROOT
BRANCH   2   5
HETATM    5  C   UNL     1     -11.298   5.930  72.067  1.00  0.00    -0.325 C  
BRANCH   5   6
HETATM    6  C   UNL     1     -10.824   6.831  70.863  1.00  0.00    -0.289 C  
HETATM    7  C   UNL     1     -11.334   6.324  69.495  1.00  0.00    -0.475 C  
HETATM    8  C   UNL     1      -9.287   6.910  70.763  1.00  0.00    -0.161 C  
BRANCH   6   9
HETATM    9  C   UNL     1     -11.438   8.241  71.085  1.00  0.00    -0.307 A  
HETATM   10  C   UNL     1     -10.998   9.388  70.400  1.00  0.00    -0.317 A  
HETATM   11  C   UNL     1     -11.579  10.637  70.624  1.00  0.00    -0.432 A  
HETATM   12  C   UNL     1     -12.607  10.783  71.548  1.00  0.00    -0.395 A  
HETATM   13  C   UNL     1     -12.476   8.417  72.024  1.00  0.00    -0.407 A  
HETATM   14  C   UNL     1     -13.050   9.672  72.258  1.00  0.00    -0.468 A  
BRANCH  12  15
HETATM   15  O   UNL     1     -13.068  12.063  71.691  1.00  0.00    -0.427 OA 
BRANCH  15  16
HETATM   16  C   UNL     1     -12.530  13.025  70.795  1.00  0.00    -0.302 C  
BRANCH  16  17
HETATM   17  C   UNL     1     -12.506  14.377  71.513  1.00  0.00    -0.355 C  
BRANCH  17  18
HETATM   18  O   UNL     1     -11.917  15.455  70.775  1.00  0.00    -0.298 OA 
BRANCH  18  19
HETATM   19  C   UNL     1     -12.159  15.489  69.372  1.00  0.00    -0.277 C  
BRANCH  19  20
HETATM   20  C   UNL     1     -10.912  15.928  68.592  1.00  0.00    -0.320 C  
BRANCH  20  21
HETATM   21  N   UNL     1     -10.691  15.220  67.247  1.00  0.00    -0.305 N  
HETATM   22  C   UNL     1      -9.485  14.290  67.431  1.00  0.00    -0.211 C  
HETATM   23  C   UNL     1     -11.899  14.360  66.895  1.00  0.00    -0.410 C  
BRANCH  21  24
HETATM   24  C   UNL     1     -10.387  16.259  66.135  1.00  0.00    -0.341 C  
BRANCH  24  25
HETATM   25  C   UNL     1      -9.844  17.577  66.618  1.00  0.00    -0.308 A  
HETATM   26  C   UNL     1     -10.724  18.620  66.949  1.00  0.00    -0.367 A  
HETATM   27  C   UNL     1     -10.232  19.888  67.250  1.00  0.00    -0.572 A  
HETATM   28  C   UNL     1      -8.860  20.123  67.243  1.00  0.00    -0.445 A  
HETATM   29  C   UNL     1      -7.974  19.082  66.974  1.00  0.00    -0.269 A  
HETATM   30  C   UNL     1      -8.461  17.810  66.677  1.00  0.00    -0.283 A  
ENDBRANCH  24  25
ENDBRANCH  21  24
ENDBRANCH  20  21
ENDBRANCH  19  20
ENDBRANCH  18  19
ENDBRANCH  17  18
ENDBRANCH  16  17
ENDBRANCH  15  16
ENDBRANCH  12  15
ENDBRANCH   6   9
ENDBRANCH   5   6
ENDBRANCH   2   5
TORSDOF 12
ENDMDL
MODEL       48
REMARK 921   NORMALIZED FREE ENERGY PREDICTED BY IDOCK:   -5.29 KCAL/MOL
REMARK 922        TOTAL FREE ENERGY PREDICTED BY IDOCK:  -10.27 KCAL/MOL
REMARK 923 INTER-LIGAND FREE ENERGY PREDICTED BY IDOCK:   -9.73 KCAL/MOL
REMARK 924 INTRA-LIGAND FREE ENERGY PREDICTED BY IDOCK:   -0.54 KCAL/MOL
REMARK 927      BINDING AFFINITY PREDICTED BY RF-SCORE:    0.00 PKD
ROOT
HETATM    1  C   UNL     1      -8.950   5.630  69.246  1.00  0.00    -0.122 C  
HETATM    2  C   UNL     1      -9.716   5.611  70.575  1.00  0.00    -0.233 C  
HETATM    3  C   UNL     1     -11.161   6.076  70.351  1.00  0.00    -0.399 C  
HETATM    4  C   UNL     1      -9.789   4.125  71.019  1.00  0.00    -0.247 C  
ENDROOT
BRANCH   2   5
HETATM    5  C   UNL     1      -8.991   6.401  71.713  1.00  0.00    -0.139 C  
BRANCH   5   6
HETATM    6  C   UNL     1      -9.584   7.663  72.448  1.00  0.00    -0.220 C  
HETATM    7  C   UNL     1      -8.618   8.255  73.499  1.00  0.00    -0.269 C  
HETATM    8  C   UNL     1     -10.901   7.344  73.184  1.00  0.00    -0.435 C  
BRANCH   6   9
HETATM    9  C   UNL     1      -9.804   8.755  71.365  1.00  0.00    -0.353 A  
HETATM   10  C   UNL     1      -8.789   9.192  70.496  1.00  0.00    -0.263 A  
HETATM   11  C   UNL     1      -9.028  10.172  69.532  1.00  0.00    -0.205 A  
HETATM   12  C   UNL     1     -10.282  10.758  69.416  1.00  0.00    -0.160 A  
HETATM   13  C   UNL     1     -11.066   9.371  71.233  1.00  0.00    -0.446 A  
HETATM   14  C   UNL     1     -11.302  10.365  70.276  1.00  0.00    -0.406 A  
BRANCH  12  15
HETATM   15  O   UNL     1     -10.375  11.724  68.452  1.00  0.00    -0.201 OA 
BRANCH  15  16
HETATM   16  C   UNL     1     -11.649  11.880  67.843  1.00  0.00    -0.323 C  
BRANCH  16  17
HETATM   17  C   UNL     1     -11.451  11.878  66.325  1.00  0.00    -0.301 C  
BRANCH  17  18
HETATM   18  O   UNL     1     -12.509  12.475  65.565  1.00  0.00    -0.646 OA 
BRANCH  18  19
HETATM   19  C   UNL     1     -12.639  13.891  65.636  1.00  0.00    -0.517 C  
BRANCH  19  20
HETATM   20  C   UNL     1     -11.399  14.603  65.079  1.00  0.00    -0.390 C  
BRANCH  20  21
HETATM   21  N   UNL     1     -10.579  15.401  66.103  1.00  0.00    -0.306 N  
HETATM   22  C   UNL     1     -11.388  15.412  67.406  1.00  0.00    -0.243 C  
HETATM   23  C   UNL     1      -9.252  14.704  66.379  1.00  0.00    -0.249 C  
BRANCH  21  24
HETATM   24  C   UNL     1     -10.365  16.857  65.606  1.00  0.00    -0.237 C  
BRANCH  24  25
HETATM   25  C   UNL     1      -9.915  17.835  66.657  1.00  0.00    -0.338 A  
HETATM   26  C   UNL     1      -8.665  17.677  67.274  1.00  0.00    -0.241 A  
HETATM   27  C   UNL     1      -8.303  18.483  68.351  1.00  0.00    -0.355 A  
HETATM   28  C   UNL     1      -9.176  19.466  68.809  1.00  0.00    -0.422 A  
HETATM   29  C   UNL     1     -10.395  19.674  68.167  1.00  0.00    -0.561 A  
HETATM   30  C   UNL     1     -10.759  18.872  67.086  1.00  0.00    -0.506 A  
ENDBRANCH  24  25
ENDBRANCH  21  24
ENDBRANCH  20  21
ENDBRANCH  19  20
ENDBRANCH  18  19
ENDBRANCH  17  18
ENDBRANCH  16  17
ENDBRANCH  15  16
ENDBRANCH  12  15
ENDBRANCH   6   9
ENDBRANCH   5   6
ENDBRANCH   2   5
TORSDOF 12
ENDMDL
MODEL       49
REMARK 921   NORMALIZED FREE ENERGY PREDICTED BY IDOCK:   -5.28 KCAL/MOL
REMARK 922        TOTAL FREE ENERGY PREDICTED BY IDOCK:  -10.25 KCAL/MOL
REMARK 923 INTER-LIGAND FREE ENERGY PREDICTED BY IDOCK:   -8.53 KCAL/MOL
REMARK 924 INTRA-LIGAND FREE ENERGY PREDICTED BY IDOCK:   -1.72 KCAL/MOL
REMARK 927      BINDING AFFINITY PREDICTED BY RF-SCORE:    0.00 PKD
ROOT
HETATM    1  C   UNL     1      -8.418  18.960  66.690  1.00  0.00    -0.308 C  
HETATM    2  C   UNL     1      -9.899  18.628  66.918  1.00  0.00    -0.356 C  
HETATM    3  C   UNL     1     -10.373  19.240  68.243  1.00  0.00    -0.478 C  
HETATM    4  C   UNL     1     -10.689  19.342  65.789  1.00  0.00    -0.458 C  
ENDROOT
BRANCH   2   5
HETATM    5  C   UNL     1     -10.210  17.100  66.808  1.00  0.00    -0.311 C  
BRANCH   5   6
HETATM    6  C   UNL     1     -10.080  16.069  67.993  1.00  0.00    -0.240 C  
HETATM    7  C   UNL     1     -11.271  16.130  68.976  1.00  0.00    -0.347 C  
HETATM    8  C   UNL     1      -8.803  16.297  68.828  1.00  0.00    -0.243 C  
BRANCH   6   9
HETATM    9  C   UNL     1     -10.083  14.650  67.361  1.00  0.00    -0.232 A  
HETATM   10  C   UNL     1     -11.139  14.161  66.572  1.00  0.00    -0.318 A  
HETATM   11  C   UNL     1     -11.102  12.881  66.016  1.00  0.00    -0.308 A  
HETATM   12  C   UNL     1     -10.017  12.044  66.245  1.00  0.00    -0.227 A  
HETATM   13  C   UNL     1      -8.997  13.777  67.585  1.00  0.00    -0.194 A  
HETATM   14  C   UNL     1      -8.966  12.488  67.041  1.00  0.00    -0.211 A  
BRANCH  12  15
HETATM   15  O   UNL     1     -10.118  10.807  65.668  1.00  0.00    -0.244 OA 
BRANCH  15  16
HETATM   16  C   UNL     1     -10.631   9.772  66.494  1.00  0.00    -0.080 C  
BRANCH  16  17
HETATM   17  C   UNL     1      -9.490   8.796  66.792  1.00  0.00    -0.191 C  
BRANCH  17  18
HETATM   18  O   UNL     1      -9.893   7.470  67.155  1.00  0.00    -0.168 OA 
BRANCH  18  19
HETATM   19  C   UNL     1     -10.623   7.323  68.369  1.00  0.00    -0.170 C  
BRANCH  19  20
HETATM   20  C   UNL     1      -9.928   8.037  69.537  1.00  0.00    -0.186 C  
BRANCH  20  21
HETATM   21  N   UNL     1     -10.734   8.108  70.842  1.00  0.00    -0.217 N  
HETATM   22  C   UNL     1     -10.910   6.664  71.331  1.00  0.00    -0.242 C  
HETATM   23  C   UNL     1      -9.955   8.873  71.905  1.00  0.00    -0.314 C  
BRANCH  21  24
HETATM   24  C   UNL     1     -12.125   8.747  70.583  1.00  0.00     0.012 C  
BRANCH  24  25
HETATM   25  C   UNL     1     -12.168  10.249  70.670  1.00  0.00    -0.422 A  
HETATM   26  C   UNL     1     -12.930  10.873  71.670  1.00  0.00    -0.569 A  
HETATM   27  C   UNL     1     -13.099  12.256  71.667  1.00  0.00    -0.408 A  
HETATM   28  C   UNL     1     -12.495  13.029  70.680  1.00  0.00    -0.347 A  
HETATM   29  C   UNL     1     -11.687  12.429  69.717  1.00  0.00    -0.361 A  
HETATM   30  C   UNL     1     -11.511  11.046  69.719  1.00  0.00    -0.387 A  
ENDBRANCH  24  25
ENDBRANCH  21  24
ENDBRANCH  20  21
ENDBRANCH  19  20
ENDBRANCH  18  19
ENDBRANCH  17  18
ENDBRANCH  16  17
ENDBRANCH  15  16
ENDBRANCH  12  15
ENDBRANCH   6   9
ENDBRANCH   5   6
ENDBRANCH   2   5
TORSDOF 12
ENDMDL
MODEL       50
REMARK 921   NORMALIZED FREE ENERGY PREDICTED BY IDOCK:   -5.26 KCAL/MOL
REMARK 922        TOTAL FREE ENERGY PREDICTED BY IDOCK:  -10.22 KCAL/MOL
REMARK 923 INTER-LIGAND FREE ENERGY PREDICTED BY IDOCK:   -9.64 KCAL/MOL
REMARK 924 INTRA-LIGAND FREE ENERGY PREDICTED BY IDOCK:   -0.58 KCAL/MOL
REMARK 927      BINDING AFFINITY PREDICTED BY RF-SCORE:    0.00 PKD
ROOT
HETATM    1  C   UNL     1     -12.061   6.819  70.684  1.00  0.00    -0.371 C  
HETATM    2  C   UNL     1     -10.936   7.651  71.313  1.00  0.00    -0.260 C  
HETATM    3  C   UNL     1     -11.196   7.831  72.815  1.00  0.00    -0.456 C  
HETATM    4  C   UNL     1      -9.639   6.807  71.183  1.00  0.00    -0.177 C  
ENDROOT
BRANCH   2   5
HETATM    5  C   UNL     1     -10.685   9.005  70.572  1.00  0.00    -0.285 C  
BRANCH   5   6
HETATM    6  C   UNL     1     -10.097   9.136  69.115  1.00  0.00    -0.199 C  
HETATM    7  C   UNL     1     -10.525   7.976  68.188  1.00  0.00    -0.222 C  
HETATM    8  C   UNL     1      -8.554   9.164  69.109  1.00  0.00    -0.133 C  
BRANCH   6   9
HETATM    9  C   UNL     1     -10.678  10.443  68.509  1.00  0.00    -0.255 A  
HETATM   10  C   UNL     1     -11.218  11.480  69.290  1.00  0.00    -0.336 A  
HETATM   11  C   UNL     1     -11.726  12.642  68.707  1.00  0.00    -0.364 A  
HETATM   12  C   UNL     1     -11.725  12.798  67.327  1.00  0.00    -0.378 A  
HETATM   13  C   UNL     1     -10.697  10.622  67.110  1.00  0.00    -0.327 A  
HETATM   14  C   UNL     1     -11.219  11.781  66.524  1.00  0.00    -0.380 A  
BRANCH  12  15
HETATM   15  O   UNL     1     -12.277  13.969  66.884  1.00  0.00    -0.436 OA 
BRANCH  15  16
HETATM   16  C   UNL     1     -12.417  14.102  65.477  1.00  0.00    -0.476 C  
BRANCH  16  17
HETATM   17  C   UNL     1     -11.466  15.207  65.009  1.00  0.00    -0.339 C  
BRANCH  17  18
HETATM   18  O   UNL     1     -10.070  14.905  65.121  1.00  0.00    -0.365 OA 
BRANCH  18  19
HETATM   19  C   UNL     1      -9.303  15.704  66.016  1.00  0.00    -0.349 C  
BRANCH  19  20
HETATM   20  C   UNL     1     -10.155  16.801  66.669  1.00  0.00    -0.300 C  
BRANCH  20  21
HETATM   21  N   UNL     1      -9.846  17.089  68.145  1.00  0.00    -0.262 N  
HETATM   22  C   UNL     1     -10.970  16.444  68.966  1.00  0.00    -0.325 C  
HETATM   23  C   UNL     1      -8.531  16.432  68.549  1.00  0.00    -0.211 C  
BRANCH  21  24
HETATM   24  C   UNL     1      -9.821  18.620  68.402  1.00  0.00    -0.384 C  
BRANCH  24  25
HETATM   25  C   UNL     1      -8.502  19.295  68.134  1.00  0.00    -0.362 A  
HETATM   26  C   UNL     1      -7.556  19.419  69.163  1.00  0.00    -0.316 A  
HETATM   27  C   UNL     1      -6.400  20.172  68.970  1.00  0.00    -0.360 A  
HETATM   28  C   UNL     1      -6.169  20.792  67.745  1.00  0.00    -0.357 A  
HETATM   29  C   UNL     1      -7.072  20.628  66.697  1.00  0.00    -0.299 A  
HETATM   30  C   UNL     1      -8.227  19.870  66.884  1.00  0.00    -0.358 A  
ENDBRANCH  24  25
ENDBRANCH  21  24
ENDBRANCH  20  21
ENDBRANCH  19  20
ENDBRANCH  18  19
ENDBRANCH  17  18
ENDBRANCH  16  17
ENDBRANCH  15  16
ENDBRANCH  12  15
ENDBRANCH   6   9
ENDBRANCH   5   6
ENDBRANCH   2   5
TORSDOF 12
ENDMDL
MODEL       51
REMARK 921   NORMALIZED FREE ENERGY PREDICTED BY IDOCK:   -5.21 KCAL/MOL
REMARK 922        TOTAL FREE ENERGY PREDICTED BY IDOCK:  -10.14 KCAL/MOL
REMARK 923 INTER-LIGAND FREE ENERGY PREDICTED BY IDOCK:   -9.37 KCAL/MOL
REMARK 924 INTRA-LIGAND FREE ENERGY PREDICTED BY IDOCK:   -0.77 KCAL/MOL
REMARK 927      BINDING AFFINITY PREDICTED BY RF-SCORE:    0.00 PKD
ROOT
HETATM    1  C   UNL     1      -7.365   6.079  68.979  1.00  0.00    -0.085 C  
HETATM    2  C   UNL     1      -8.518   7.091  69.004  1.00  0.00    -0.129 C  
HETATM    3  C   UNL     1      -9.862   6.353  68.937  1.00  0.00    -0.152 C  
HETATM    4  C   UNL     1      -8.462   7.790  70.389  1.00  0.00    -0.132 C  
ENDROOT
BRANCH   2   5
HETATM    5  C   UNL     1      -8.381   8.205  67.915  1.00  0.00    -0.129 C  
BRANCH   5   6
HETATM    6  C   UNL     1      -8.068   7.940  66.393  1.00  0.00    -0.108 C  
HETATM    7  C   UNL     1      -8.652   6.603  65.884  1.00  0.00    -0.153 C  
HETATM    8  C   UNL     1      -6.553   7.901  66.107  1.00  0.00    -0.050 C  
BRANCH   6   9
HETATM    9  C   UNL     1      -8.756   9.075  65.586  1.00  0.00    -0.205 A  
HETATM   10  C   UNL     1      -9.708   9.947  66.142  1.00  0.00    -0.297 A  
HETATM   11  C   UNL     1     -10.300  10.959  65.384  1.00  0.00    -0.326 A  
HETATM   12  C   UNL     1      -9.972  11.121  64.044  1.00  0.00    -0.323 A  
HETATM   13  C   UNL     1      -8.447   9.255  64.221  1.00  0.00    -0.202 A  
HETATM   14  C   UNL     1      -9.051  10.260  63.457  1.00  0.00    -0.288 A  
BRANCH  12  15
HETATM   15  O   UNL     1     -10.644  12.130  63.410  1.00  0.00    -0.436 OA 
BRANCH  15  16
HETATM   16  C   UNL     1     -12.009  12.294  63.768  1.00  0.00    -0.519 C  
BRANCH  16  17
HETATM   17  C   UNL     1     -12.197  13.727  64.272  1.00  0.00    -0.400 C  
BRANCH  17  18
HETATM   18  O   UNL     1     -10.999  14.398  64.679  1.00  0.00    -0.390 OA 
BRANCH  18  19
HETATM   19  C   UNL     1     -10.999  14.999  65.970  1.00  0.00    -0.334 C  
BRANCH  19  20
HETATM   20  C   UNL     1     -11.804  14.170  66.981  1.00  0.00    -0.429 C  
BRANCH  20  21
HETATM   21  N   UNL     1     -11.343  14.278  68.442  1.00  0.00    -0.268 N  
HETATM   22  C   UNL     1     -11.913  13.057  69.176  1.00  0.00    -0.271 C  
HETATM   23  C   UNL     1      -9.822  14.209  68.524  1.00  0.00    -0.230 C  
BRANCH  21  24
HETATM   24  C   UNL     1     -11.890  15.580  69.085  1.00  0.00    -0.354 C  
BRANCH  24  25
HETATM   25  C   UNL     1     -12.310  15.458  70.525  1.00  0.00    -0.452 A  
HETATM   26  C   UNL     1     -13.666  15.298  70.850  1.00  0.00    -0.363 A  
HETATM   27  C   UNL     1     -14.081  15.337  72.179  1.00  0.00    -0.658 A  
HETATM   28  C   UNL     1     -13.147  15.516  73.196  1.00  0.00    -0.656 A  
HETATM   29  C   UNL     1     -11.792  15.617  72.891  1.00  0.00    -0.564 A  
HETATM   30  C   UNL     1     -11.371  15.574  71.562  1.00  0.00    -0.466 A  
ENDBRANCH  24  25
ENDBRANCH  21  24
ENDBRANCH  20  21
ENDBRANCH  19  20
ENDBRANCH  18  19
ENDBRANCH  17  18
ENDBRANCH  16  17
ENDBRANCH  15  16
ENDBRANCH  12  15
ENDBRANCH   6   9
ENDBRANCH   5   6
ENDBRANCH   2   5
TORSDOF 12
ENDMDL
MODEL       52
REMARK 921   NORMALIZED FREE ENERGY PREDICTED BY IDOCK:   -5.19 KCAL/MOL
REMARK 922        TOTAL FREE ENERGY PREDICTED BY IDOCK:  -10.11 KCAL/MOL
REMARK 923 INTER-LIGAND FREE ENERGY PREDICTED BY IDOCK:   -9.02 KCAL/MOL
REMARK 924 INTRA-LIGAND FREE ENERGY PREDICTED BY IDOCK:   -1.08 KCAL/MOL
REMARK 927      BINDING AFFINITY PREDICTED BY RF-SCORE:    0.00 PKD
ROOT
HETATM    1  C   UNL     1     -10.019  19.590  68.819  1.00  0.00    -0.547 C  
HETATM    2  C   UNL     1      -9.611  19.222  67.386  1.00  0.00    -0.389 C  
HETATM    3  C   UNL     1     -10.767  19.520  66.421  1.00  0.00    -0.528 C  
HETATM    4  C   UNL     1      -8.450  20.178  67.000  1.00  0.00    -0.397 C  
ENDROOT
BRANCH   2   5
HETATM    5  C   UNL     1      -9.072  17.760  67.257  1.00  0.00    -0.246 C  
BRANCH   5   6
HETATM    6  C   UNL     1      -9.699  16.505  67.976  1.00  0.00    -0.236 C  
HETATM    7  C   UNL     1     -11.005  16.836  68.732  1.00  0.00    -0.275 C  
HETATM    8  C   UNL     1      -8.735  15.880  69.006  1.00  0.00    -0.236 C  
BRANCH   6   9
HETATM    9  C   UNL     1     -10.063  15.482  66.865  1.00  0.00    -0.263 A  
HETATM   10  C   UNL     1      -9.787  14.107  66.965  1.00  0.00    -0.258 A  
HETATM   11  C   UNL     1     -10.135  13.219  65.946  1.00  0.00    -0.296 A  
HETATM   12  C   UNL     1     -10.754  13.678  64.789  1.00  0.00    -0.410 A  
HETATM   13  C   UNL     1     -10.683  15.924  65.677  1.00  0.00    -0.350 A  
HETATM   14  C   UNL     1     -11.019  15.036  64.649  1.00  0.00    -0.320 A  
BRANCH  12  15
HETATM   15  O   UNL     1     -11.014  12.709  63.859  1.00  0.00    -0.368 OA 
BRANCH  15  16
HETATM   16  C   UNL     1     -10.625  11.388  64.206  1.00  0.00    -0.355 C  
BRANCH  16  17
HETATM   17  C   UNL     1      -9.640  10.891  63.144  1.00  0.00    -0.357 C  
BRANCH  17  18
HETATM   18  O   UNL     1      -8.467  10.242  63.649  1.00  0.00    -0.168 OA 
BRANCH  18  19
HETATM   19  C   UNL     1      -8.287  10.233  65.061  1.00  0.00    -0.168 C  
BRANCH  19  20
HETATM   20  C   UNL     1      -8.523   8.838  65.655  1.00  0.00    -0.160 C  
BRANCH  20  21
HETATM   21  N   UNL     1      -8.873   8.805  67.150  1.00  0.00    -0.126 N  
HETATM   22  C   UNL     1      -8.368   7.461  67.691  1.00  0.00    -0.118 C  
HETATM   23  C   UNL     1      -8.138   9.916  67.890  1.00  0.00    -0.109 C  
BRANCH  21  24
HETATM   24  C   UNL     1     -10.409   8.906  67.346  1.00  0.00    -0.269 C  
BRANCH  24  25
HETATM   25  C   UNL     1     -10.853   9.723  68.530  1.00  0.00    -0.227 A  
HETATM   26  C   UNL     1     -10.716   9.208  69.829  1.00  0.00    -0.239 A  
HETATM   27  C   UNL     1     -11.260   9.886  70.917  1.00  0.00    -0.433 A  
HETATM   28  C   UNL     1     -11.927  11.092  70.723  1.00  0.00    -0.415 A  
HETATM   29  C   UNL     1     -12.018  11.644  69.447  1.00  0.00    -0.381 A  
HETATM   30  C   UNL     1     -11.471  10.970  68.356  1.00  0.00    -0.378 A  
ENDBRANCH  24  25
ENDBRANCH  21  24
ENDBRANCH  20  21
ENDBRANCH  19  20
ENDBRANCH  18  19
ENDBRANCH  17  18
ENDBRANCH  16  17
ENDBRANCH  15  16
ENDBRANCH  12  15
ENDBRANCH   6   9
ENDBRANCH   5   6
ENDBRANCH   2   5
TORSDOF 12
ENDMDL
MODEL       53
REMARK 921   NORMALIZED FREE ENERGY PREDICTED BY IDOCK:   -5.18 KCAL/MOL
REMARK 922        TOTAL FREE ENERGY PREDICTED BY IDOCK:  -10.08 KCAL/MOL
REMARK 923 INTER-LIGAND FREE ENERGY PREDICTED BY IDOCK:   -8.22 KCAL/MOL
REMARK 924 INTRA-LIGAND FREE ENERGY PREDICTED BY IDOCK:   -1.86 KCAL/MOL
REMARK 927      BINDING AFFINITY PREDICTED BY RF-SCORE:    0.00 PKD
ROOT
HETATM    1  C   UNL     1      -8.510   6.206  72.879  1.00  0.00    -0.119 C  
HETATM    2  C   UNL     1      -9.989   5.916  73.167  1.00  0.00    -0.188 C  
HETATM    3  C   UNL     1     -10.529   4.898  72.153  1.00  0.00    -0.257 C  
HETATM    4  C   UNL     1     -10.040   5.229  74.559  1.00  0.00    -0.286 C  
ENDROOT
BRANCH   2   5
HETATM    5  C   UNL     1     -10.862   7.210  73.256  1.00  0.00    -0.378 C  
BRANCH   5   6
HETATM    6  C   UNL     1     -11.776   7.757  72.093  1.00  0.00    -0.368 C  
HETATM    7  C   UNL     1     -12.561   9.027  72.494  1.00  0.00    -0.342 C  
HETATM    8  C   UNL     1     -12.818   6.718  71.631  1.00  0.00    -0.328 C  
BRANCH   6   9
HETATM    9  C   UNL     1     -10.833   8.154  70.925  1.00  0.00    -0.254 A  
HETATM   10  C   UNL     1     -10.926   7.596  69.637  1.00  0.00    -0.145 A  
HETATM   11  C   UNL     1     -10.062   7.983  68.612  1.00  0.00    -0.212 A  
HETATM   12  C   UNL     1      -9.069   8.927  68.843  1.00  0.00    -0.140 A  
HETATM   13  C   UNL     1      -9.810   9.102  71.137  1.00  0.00    -0.371 A  
HETATM   14  C   UNL     1      -8.934   9.480  70.113  1.00  0.00    -0.269 A  
BRANCH  12  15
HETATM   15  O   UNL     1      -8.273   9.195  67.763  1.00  0.00    -0.108 OA 
BRANCH  15  16
HETATM   16  C   UNL     1      -7.285  10.199  67.948  1.00  0.00    -0.086 C  
BRANCH  16  17
HETATM   17  C   UNL     1      -7.745  11.457  67.206  1.00  0.00    -0.145 C  
BRANCH  17  18
HETATM   18  O   UNL     1      -8.191  12.534  68.039  1.00  0.00    -0.146 OA 
BRANCH  18  19
HETATM   19  C   UNL     1      -8.248  13.829  67.449  1.00  0.00    -0.184 C  
BRANCH  19  20
HETATM   20  C   UNL     1      -9.374  14.679  68.054  1.00  0.00    -0.198 C  
BRANCH  20  21
HETATM   21  N   UNL     1     -10.314  15.350  67.043  1.00  0.00    -0.274 N  
HETATM   22  C   UNL     1     -10.274  16.855  67.334  1.00  0.00    -0.298 C  
HETATM   23  C   UNL     1      -9.807  15.131  65.622  1.00  0.00    -0.343 C  
BRANCH  21  24
HETATM   24  C   UNL     1     -11.762  14.820  67.219  1.00  0.00    -0.347 C  
BRANCH  24  25
HETATM   25  C   UNL     1     -11.928  13.731  68.245  1.00  0.00    -0.392 A  
HETATM   26  C   UNL     1     -12.167  14.063  69.588  1.00  0.00    -0.383 A  
HETATM   27  C   UNL     1     -12.170  13.073  70.568  1.00  0.00    -0.392 A  
HETATM   28  C   UNL     1     -11.954  11.744  70.217  1.00  0.00    -0.429 A  
HETATM   29  C   UNL     1     -11.775  11.394  68.880  1.00  0.00    -0.409 A  
HETATM   30  C   UNL     1     -11.776  12.380  67.895  1.00  0.00    -0.421 A  
ENDBRANCH  24  25
ENDBRANCH  21  24
ENDBRANCH  20  21
ENDBRANCH  19  20
ENDBRANCH  18  19
ENDBRANCH  17  18
ENDBRANCH  16  17
ENDBRANCH  15  16
ENDBRANCH  12  15
ENDBRANCH   6   9
ENDBRANCH   5   6
ENDBRANCH   2   5
TORSDOF 12
ENDMDL
MODEL       54
REMARK 921   NORMALIZED FREE ENERGY PREDICTED BY IDOCK:   -5.17 KCAL/MOL
REMARK 922        TOTAL FREE ENERGY PREDICTED BY IDOCK:  -10.06 KCAL/MOL
REMARK 923 INTER-LIGAND FREE ENERGY PREDICTED BY IDOCK:   -9.89 KCAL/MOL
REMARK 924 INTRA-LIGAND FREE ENERGY PREDICTED BY IDOCK:   -0.17 KCAL/MOL
REMARK 927      BINDING AFFINITY PREDICTED BY RF-SCORE:    0.00 PKD
ROOT
HETATM    1  C   UNL     1     -11.111   6.179  68.940  1.00  0.00    -0.417 C  
HETATM    2  C   UNL     1     -10.930   7.070  70.176  1.00  0.00    -0.306 C  
HETATM    3  C   UNL     1     -12.208   7.048  71.026  1.00  0.00    -0.419 C  
HETATM    4  C   UNL     1      -9.814   6.414  71.032  1.00  0.00    -0.200 C  
ENDROOT
BRANCH   2   5
HETATM    5  C   UNL     1     -10.457   8.518  69.826  1.00  0.00    -0.220 C  
BRANCH   5   6
HETATM    6  C   UNL     1      -9.094   8.870  69.115  1.00  0.00    -0.141 C  
HETATM    7  C   UNL     1      -8.190   7.635  68.904  1.00  0.00    -0.128 C  
HETATM    8  C   UNL     1      -8.266   9.896  69.916  1.00  0.00    -0.199 C  
BRANCH   6   9
HETATM    9  C   UNL     1      -9.448   9.422  67.707  1.00  0.00    -0.152 A  
HETATM   10  C   UNL     1     -10.394  10.442  67.496  1.00  0.00    -0.268 A  
HETATM   11  C   UNL     1     -10.681  10.914  66.214  1.00  0.00    -0.241 A  
HETATM   12  C   UNL     1     -10.045  10.374  65.103  1.00  0.00    -0.308 A  
HETATM   13  C   UNL     1      -8.824   8.884  66.562  1.00  0.00    -0.160 A  
HETATM   14  C   UNL     1      -9.121   9.348  65.276  1.00  0.00    -0.287 A  
BRANCH  12  15
HETATM   15  O   UNL     1     -10.437  10.906  63.906  1.00  0.00    -0.363 OA 
BRANCH  15  16
HETATM   16  C   UNL     1     -10.545  12.322  63.856  1.00  0.00    -0.427 C  
BRANCH  16  17
HETATM   17  C   UNL     1     -12.004  12.675  63.555  1.00  0.00    -0.548 C  
BRANCH  17  18
HETATM   18  O   UNL     1     -12.686  13.404  64.583  1.00  0.00    -0.637 OA 
BRANCH  18  19
HETATM   19  C   UNL     1     -11.933  14.383  65.292  1.00  0.00    -0.382 C  
BRANCH  19  20
HETATM   20  C   UNL     1     -12.045  14.195  66.811  1.00  0.00    -0.442 C  
BRANCH  20  21
HETATM   21  N   UNL     1     -10.996  14.940  67.649  1.00  0.00    -0.290 N  
HETATM   22  C   UNL     1     -11.767  15.850  68.614  1.00  0.00    -0.322 C  
HETATM   23  C   UNL     1     -10.183  13.953  68.479  1.00  0.00    -0.240 C  
BRANCH  21  24
HETATM   24  C   UNL     1     -10.085  15.800  66.732  1.00  0.00    -0.271 C  
BRANCH  24  25
HETATM   25  C   UNL     1     -10.031  17.265  67.071  1.00  0.00    -0.289 A  
HETATM   26  C   UNL     1      -9.518  17.680  68.310  1.00  0.00    -0.295 A  
HETATM   27  C   UNL     1      -9.603  19.016  68.696  1.00  0.00    -0.458 A  
HETATM   28  C   UNL     1     -10.182  19.952  67.843  1.00  0.00    -0.571 A  
HETATM   29  C   UNL     1     -10.641  19.564  66.587  1.00  0.00    -0.583 A  
HETATM   30  C   UNL     1     -10.554  18.228  66.195  1.00  0.00    -0.326 A  
ENDBRANCH  24  25
ENDBRANCH  21  24
ENDBRANCH  20  21
ENDBRANCH  19  20
ENDBRANCH  18  19
ENDBRANCH  17  18
ENDBRANCH  16  17
ENDBRANCH  15  16
ENDBRANCH  12  15
ENDBRANCH   6   9
ENDBRANCH   5   6
ENDBRANCH   2   5
TORSDOF 12
ENDMDL
MODEL       55
REMARK 921   NORMALIZED FREE ENERGY PREDICTED BY IDOCK:   -5.16 KCAL/MOL
REMARK 922        TOTAL FREE ENERGY PREDICTED BY IDOCK:  -10.05 KCAL/MOL
REMARK 923 INTER-LIGAND FREE ENERGY PREDICTED BY IDOCK:   -9.24 KCAL/MOL
REMARK 924 INTRA-LIGAND FREE ENERGY PREDICTED BY IDOCK:   -0.81 KCAL/MOL
REMARK 927      BINDING AFFINITY PREDICTED BY RF-SCORE:    0.00 PKD
ROOT
HETATM    1  C   UNL     1      -9.393   7.975  71.132  1.00  0.00    -0.176 C  
HETATM    2  C   UNL     1     -10.747   7.958  70.411  1.00  0.00    -0.233 C  
HETATM    3  C   UNL     1     -11.168   6.511  70.124  1.00  0.00    -0.437 C  
HETATM    4  C   UNL     1     -11.785   8.535  71.411  1.00  0.00    -0.346 C  
ENDROOT
BRANCH   2   5
HETATM    5  C   UNL     1     -10.776   8.865  69.137  1.00  0.00    -0.162 C  
BRANCH   5   6
HETATM    6  C   UNL     1     -10.038   8.536  67.783  1.00  0.00    -0.266 C  
HETATM    7  C   UNL     1     -10.640   7.315  67.052  1.00  0.00    -0.415 C  
HETATM    8  C   UNL     1      -8.540   8.233  67.994  1.00  0.00    -0.132 C  
BRANCH   6   9
HETATM    9  C   UNL     1     -10.229   9.765  66.853  1.00  0.00    -0.310 A  
HETATM   10  C   UNL     1      -9.548   9.920  65.633  1.00  0.00    -0.320 A  
HETATM   11  C   UNL     1      -9.752  11.038  64.822  1.00  0.00    -0.311 A  
HETATM   12  C   UNL     1     -10.630  12.042  65.211  1.00  0.00    -0.287 A  
HETATM   13  C   UNL     1     -11.108  10.803  67.230  1.00  0.00    -0.339 A  
HETATM   14  C   UNL     1     -11.302  11.930  66.424  1.00  0.00    -0.400 A  
BRANCH  12  15
HETATM   15  O   UNL     1     -10.716  13.094  64.341  1.00  0.00    -0.367 OA 
BRANCH  15  16
HETATM   16  C   UNL     1     -11.591  14.148  64.718  1.00  0.00    -0.396 C  
BRANCH  16  17
HETATM   17  C   UNL     1     -10.737  15.371  65.062  1.00  0.00    -0.438 C  
BRANCH  17  18
HETATM   18  O   UNL     1     -10.517  15.595  66.460  1.00  0.00    -0.290 OA 
BRANCH  18  19
HETATM   19  C   UNL     1      -9.340  15.032  67.029  1.00  0.00    -0.224 C  
BRANCH  19  20
HETATM   20  C   UNL     1      -8.152  16.002  66.951  1.00  0.00    -0.247 C  
BRANCH  20  21
HETATM   21  N   UNL     1      -7.430  16.272  68.279  1.00  0.00    -0.153 N  
HETATM   22  C   UNL     1      -8.231  15.553  69.372  1.00  0.00    -0.247 C  
HETATM   23  C   UNL     1      -6.029  15.673  68.251  1.00  0.00    -0.114 C  
BRANCH  21  24
HETATM   24  C   UNL     1      -7.394  17.796  68.572  1.00  0.00    -0.266 C  
BRANCH  24  25
HETATM   25  C   UNL     1      -8.480  18.603  67.914  1.00  0.00    -0.297 A  
HETATM   26  C   UNL     1      -9.722  18.758  68.550  1.00  0.00    -0.426 A  
HETATM   27  C   UNL     1     -10.782  19.372  67.886  1.00  0.00    -0.427 A  
HETATM   28  C   UNL     1     -10.607  19.853  66.591  1.00  0.00    -0.540 A  
HETATM   29  C   UNL     1      -9.363  19.759  65.971  1.00  0.00    -0.367 A  
HETATM   30  C   UNL     1      -8.299  19.149  66.634  1.00  0.00    -0.309 A  
ENDBRANCH  24  25
ENDBRANCH  21  24
ENDBRANCH  20  21
ENDBRANCH  19  20
ENDBRANCH  18  19
ENDBRANCH  17  18
ENDBRANCH  16  17
ENDBRANCH  15  16
ENDBRANCH  12  15
ENDBRANCH   6   9
ENDBRANCH   5   6
ENDBRANCH   2   5
TORSDOF 12
ENDMDL
MODEL       56
REMARK 921   NORMALIZED FREE ENERGY PREDICTED BY IDOCK:   -5.16 KCAL/MOL
REMARK 922        TOTAL FREE ENERGY PREDICTED BY IDOCK:  -10.04 KCAL/MOL
REMARK 923 INTER-LIGAND FREE ENERGY PREDICTED BY IDOCK:   -9.12 KCAL/MOL
REMARK 924 INTRA-LIGAND FREE ENERGY PREDICTED BY IDOCK:   -0.92 KCAL/MOL
REMARK 927      BINDING AFFINITY PREDICTED BY RF-SCORE:    0.00 PKD
ROOT
HETATM    1  C   UNL     1     -11.369   9.205  71.354  1.00  0.00    -0.414 C  
HETATM    2  C   UNL     1     -11.050   7.726  71.610  1.00  0.00    -0.275 C  
HETATM    3  C   UNL     1     -10.721   7.511  73.093  1.00  0.00    -0.452 C  
HETATM    4  C   UNL     1     -12.358   6.938  71.325  1.00  0.00    -0.422 C  
ENDROOT
BRANCH   2   5
HETATM    5  C   UNL     1      -9.950   7.160  70.654  1.00  0.00    -0.195 C  
BRANCH   5   6
HETATM    6  C   UNL     1      -8.732   7.990  70.094  1.00  0.00    -0.135 C  
HETATM    7  C   UNL     1      -7.492   7.116  69.803  1.00  0.00    -0.097 C  
HETATM    8  C   UNL     1      -8.279   9.093  71.073  1.00  0.00    -0.186 C  
BRANCH   6   9
HETATM    9  C   UNL     1      -9.186   8.603  68.741  1.00  0.00    -0.142 A  
HETATM   10  C   UNL     1      -8.705   9.830  68.252  1.00  0.00    -0.119 A  
HETATM   11  C   UNL     1      -9.134  10.345  67.028  1.00  0.00    -0.153 A  
HETATM   12  C   UNL     1     -10.068   9.659  66.261  1.00  0.00    -0.252 A  
HETATM   13  C   UNL     1     -10.141   7.931  67.949  1.00  0.00    -0.240 A  
HETATM   14  C   UNL     1     -10.582   8.454  66.728  1.00  0.00    -0.227 A  
BRANCH  12  15
HETATM   15  O   UNL     1     -10.425  10.286  65.099  1.00  0.00    -0.222 OA 
BRANCH  15  16
HETATM   16  C   UNL     1      -9.969  11.623  64.945  1.00  0.00    -0.255 C  
BRANCH  16  17
HETATM   17  C   UNL     1     -11.190  12.512  64.693  1.00  0.00    -0.312 C  
BRANCH  17  18
HETATM   18  O   UNL     1     -12.243  12.399  65.658  1.00  0.00    -0.599 OA 
BRANCH  18  19
HETATM   19  C   UNL     1     -12.070  13.089  66.891  1.00  0.00    -0.285 C  
BRANCH  19  20
HETATM   20  C   UNL     1     -11.741  14.572  66.670  1.00  0.00    -0.371 C  
BRANCH  20  21
HETATM   21  N   UNL     1     -10.684  15.163  67.615  1.00  0.00    -0.278 N  
HETATM   22  C   UNL     1     -11.439  16.008  68.649  1.00  0.00    -0.377 C  
HETATM   23  C   UNL     1      -9.955  14.049  68.358  1.00  0.00    -0.236 C  
BRANCH  21  24
HETATM   24  C   UNL     1      -9.696  16.062  66.823  1.00  0.00    -0.239 C  
BRANCH  24  25
HETATM   25  C   UNL     1      -9.811  17.537  67.095  1.00  0.00    -0.297 A  
HETATM   26  C   UNL     1     -10.478  18.370  66.183  1.00  0.00    -0.422 A  
HETATM   27  C   UNL     1     -10.458  19.753  66.346  1.00  0.00    -0.618 A  
HETATM   28  C   UNL     1      -9.792  20.316  67.431  1.00  0.00    -0.586 A  
HETATM   29  C   UNL     1      -9.177  19.499  68.376  1.00  0.00    -0.412 A  
HETATM   30  C   UNL     1      -9.197  18.113  68.218  1.00  0.00    -0.307 A  
ENDBRANCH  24  25
ENDBRANCH  21  24
ENDBRANCH  20  21
ENDBRANCH  19  20
ENDBRANCH  18  19
ENDBRANCH  17  18
ENDBRANCH  16  17
ENDBRANCH  15  16
ENDBRANCH  12  15
ENDBRANCH   6   9
ENDBRANCH   5   6
ENDBRANCH   2   5
TORSDOF 12
ENDMDL
MODEL       57
REMARK 921   NORMALIZED FREE ENERGY PREDICTED BY IDOCK:   -5.15 KCAL/MOL
REMARK 922        TOTAL FREE ENERGY PREDICTED BY IDOCK:  -10.03 KCAL/MOL
REMARK 923 INTER-LIGAND FREE ENERGY PREDICTED BY IDOCK:   -8.03 KCAL/MOL
REMARK 924 INTRA-LIGAND FREE ENERGY PREDICTED BY IDOCK:   -2.00 KCAL/MOL
REMARK 927      BINDING AFFINITY PREDICTED BY RF-SCORE:    0.00 PKD
ROOT
HETATM    1  C   UNL     1     -12.121  12.096  63.830  1.00  0.00    -0.620 C  
HETATM    2  C   UNL     1     -11.563  12.802  65.072  1.00  0.00    -0.372 C  
HETATM    3  C   UNL     1     -10.363  13.676  64.682  1.00  0.00    -0.407 C  
HETATM    4  C   UNL     1     -12.674  13.767  65.567  1.00  0.00    -0.530 C  
ENDROOT
BRANCH   2   5
HETATM    5  C   UNL     1     -11.245  11.820  66.246  1.00  0.00    -0.370 C  
BRANCH   5   6
HETATM    6  C   UNL     1     -10.244  12.125  67.426  1.00  0.00    -0.211 C  
HETATM    7  C   UNL     1     -10.245  13.612  67.845  1.00  0.00    -0.250 C  
HETATM    8  C   UNL     1      -8.788  11.765  67.064  1.00  0.00    -0.182 C  
BRANCH   6   9
HETATM    9  C   UNL     1     -10.729  11.305  68.653  1.00  0.00    -0.241 A  
HETATM   10  C   UNL     1     -12.012  11.443  69.212  1.00  0.00    -0.400 A  
HETATM   11  C   UNL     1     -12.412  10.683  70.313  1.00  0.00    -0.381 A  
HETATM   12  C   UNL     1     -11.539   9.776  70.900  1.00  0.00    -0.361 A  
HETATM   13  C   UNL     1      -9.858  10.384  69.273  1.00  0.00    -0.243 A  
HETATM   14  C   UNL     1     -10.254   9.633  70.386  1.00  0.00    -0.348 A  
BRANCH  12  15
HETATM   15  O   UNL     1     -12.045   9.118  71.987  1.00  0.00    -0.367 OA 
BRANCH  15  16
HETATM   16  C   UNL     1     -11.328   7.966  72.411  1.00  0.00    -0.369 C  
BRANCH  16  17
HETATM   17  C   UNL     1     -12.027   6.735  71.829  1.00  0.00    -0.339 C  
BRANCH  17  18
HETATM   18  O   UNL     1     -11.157   5.701  71.352  1.00  0.00    -0.239 OA 
BRANCH  18  19
HETATM   19  C   UNL     1      -9.768   5.845  71.629  1.00  0.00    -0.160 C  
BRANCH  19  20
HETATM   20  C   UNL     1      -8.923   4.845  70.827  1.00  0.00    -0.131 C  
BRANCH  20  21
HETATM   21  N   UNL     1      -7.766   5.453  70.021  1.00  0.00    -0.075 N  
HETATM   22  C   UNL     1      -7.818   6.969  70.248  1.00  0.00    -0.105 C  
HETATM   23  C   UNL     1      -6.429   4.943  70.546  1.00  0.00    -0.030 C  
BRANCH  21  24
HETATM   24  C   UNL     1      -7.941   5.143  68.509  1.00  0.00    -0.086 C  
BRANCH  24  25
HETATM   25  C   UNL     1      -8.745   6.152  67.735  1.00  0.00    -0.112 A  
HETATM   26  C   UNL     1      -8.096   7.076  66.901  1.00  0.00    -0.116 A  
HETATM   27  C   UNL     1      -8.813   8.109  66.301  1.00  0.00    -0.193 A  
HETATM   28  C   UNL     1     -10.185   8.217  66.510  1.00  0.00    -0.263 A  
HETATM   29  C   UNL     1     -10.851   7.272  67.287  1.00  0.00    -0.354 A  
HETATM   30  C   UNL     1     -10.138   6.235  67.887  1.00  0.00    -0.169 A  
ENDBRANCH  24  25
ENDBRANCH  21  24
ENDBRANCH  20  21
ENDBRANCH  19  20
ENDBRANCH  18  19
ENDBRANCH  17  18
ENDBRANCH  16  17
ENDBRANCH  15  16
ENDBRANCH  12  15
ENDBRANCH   6   9
ENDBRANCH   5   6
ENDBRANCH   2   5
TORSDOF 12
ENDMDL
MODEL       58
REMARK 921   NORMALIZED FREE ENERGY PREDICTED BY IDOCK:   -5.13 KCAL/MOL
REMARK 922        TOTAL FREE ENERGY PREDICTED BY IDOCK:   -9.99 KCAL/MOL
REMARK 923 INTER-LIGAND FREE ENERGY PREDICTED BY IDOCK:   -9.45 KCAL/MOL
REMARK 924 INTRA-LIGAND FREE ENERGY PREDICTED BY IDOCK:   -0.54 KCAL/MOL
REMARK 927      BINDING AFFINITY PREDICTED BY RF-SCORE:    0.00 PKD
ROOT
HETATM    1  C   UNL     1     -11.098   4.836  73.467  1.00  0.00    -0.412 C  
HETATM    2  C   UNL     1     -10.102   4.810  72.301  1.00  0.00    -0.245 C  
HETATM    3  C   UNL     1      -8.711   5.234  72.792  1.00  0.00    -0.119 C  
HETATM    4  C   UNL     1      -9.984   3.327  71.855  1.00  0.00    -0.209 C  
ENDROOT
BRANCH   2   5
HETATM    5  C   UNL     1     -10.586   5.630  71.060  1.00  0.00    -0.318 C  
BRANCH   5   6
HETATM    6  C   UNL     1     -11.088   7.123  71.112  1.00  0.00    -0.281 C  
HETATM    7  C   UNL     1     -10.319   7.981  72.142  1.00  0.00    -0.318 C  
HETATM    8  C   UNL     1     -12.583   7.224  71.478  1.00  0.00    -0.415 C  
BRANCH   6   9
HETATM    9  C   UNL     1     -10.818   7.740  69.712  1.00  0.00    -0.211 A  
HETATM   10  C   UNL     1     -10.626   9.117  69.502  1.00  0.00    -0.233 A  
HETATM   11  C   UNL     1     -10.380   9.632  68.229  1.00  0.00    -0.240 A  
HETATM   12  C   UNL     1     -10.333   8.792  67.124  1.00  0.00    -0.293 A  
HETATM   13  C   UNL     1     -10.774   6.909  68.573  1.00  0.00    -0.252 A  
HETATM   14  C   UNL     1     -10.541   7.427  67.294  1.00  0.00    -0.393 A  
BRANCH  12  15
HETATM   15  O   UNL     1     -10.112   9.426  65.932  1.00  0.00    -0.296 OA 
BRANCH  15  16
HETATM   16  C   UNL     1      -9.907  10.831  66.000  1.00  0.00    -0.235 C  
BRANCH  16  17
HETATM   17  C   UNL     1     -10.529  11.461  64.752  1.00  0.00    -0.308 C  
BRANCH  17  18
HETATM   18  O   UNL     1     -11.528  12.458  64.998  1.00  0.00    -0.313 OA 
BRANCH  18  19
HETATM   19  C   UNL     1     -11.679  12.906  66.341  1.00  0.00    -0.395 C  
BRANCH  19  20
HETATM   20  C   UNL     1     -11.737  14.438  66.425  1.00  0.00    -0.386 C  
BRANCH  20  21
HETATM   21  N   UNL     1     -10.665  15.094  67.308  1.00  0.00    -0.298 N  
HETATM   22  C   UNL     1     -11.409  15.945  68.346  1.00  0.00    -0.361 C  
HETATM   23  C   UNL     1      -9.870  14.029  68.056  1.00  0.00    -0.228 C  
BRANCH  21  24
HETATM   24  C   UNL     1      -9.741  15.999  66.451  1.00  0.00    -0.284 C  
BRANCH  24  25
HETATM   25  C   UNL     1      -9.759  17.460  66.811  1.00  0.00    -0.293 A  
HETATM   26  C   UNL     1      -8.976  17.931  67.877  1.00  0.00    -0.264 A  
HETATM   27  C   UNL     1      -9.100  19.247  68.316  1.00  0.00    -0.394 A  
HETATM   28  C   UNL     1      -9.990  20.110  67.683  1.00  0.00    -0.560 A  
HETATM   29  C   UNL     1     -10.730  19.674  66.587  1.00  0.00    -0.552 A  
HETATM   30  C   UNL     1     -10.605  18.358  66.142  1.00  0.00    -0.346 A  
ENDBRANCH  24  25
ENDBRANCH  21  24
ENDBRANCH  20  21
ENDBRANCH  19  20
ENDBRANCH  18  19
ENDBRANCH  17  18
ENDBRANCH  16  17
ENDBRANCH  15  16
ENDBRANCH  12  15
ENDBRANCH   6   9
ENDBRANCH   5   6
ENDBRANCH   2   5
TORSDOF 12
ENDMDL
MODEL       59
REMARK 921   NORMALIZED FREE ENERGY PREDICTED BY IDOCK:   -5.12 KCAL/MOL
REMARK 922        TOTAL FREE ENERGY PREDICTED BY IDOCK:   -9.98 KCAL/MOL
REMARK 923 INTER-LIGAND FREE ENERGY PREDICTED BY IDOCK:   -8.62 KCAL/MOL
REMARK 924 INTRA-LIGAND FREE ENERGY PREDICTED BY IDOCK:   -1.36 KCAL/MOL
REMARK 927      BINDING AFFINITY PREDICTED BY RF-SCORE:    0.00 PKD
ROOT
HETATM    1  C   UNL     1     -10.233  17.698  66.746  1.00  0.00    -0.335 C  
HETATM    2  C   UNL     1      -8.980  16.831  66.920  1.00  0.00    -0.244 C  
HETATM    3  C   UNL     1      -7.778  17.509  66.249  1.00  0.00    -0.334 C  
HETATM    4  C   UNL     1      -8.678  16.795  68.443  1.00  0.00    -0.236 C  
ENDROOT
BRANCH   2   5
HETATM    5  C   UNL     1      -9.184  15.353  66.453  1.00  0.00    -0.339 C  
BRANCH   5   6
HETATM    6  C   UNL     1     -10.584  14.692  66.150  1.00  0.00    -0.314 C  
HETATM    7  C   UNL     1     -11.215  15.200  64.834  1.00  0.00    -0.424 C  
HETATM    8  C   UNL     1     -11.611  14.962  67.269  1.00  0.00    -0.337 C  
BRANCH   6   9
HETATM    9  C   UNL     1     -10.337  13.168  65.979  1.00  0.00    -0.292 A  
HETATM   10  C   UNL     1     -11.010  12.382  65.027  1.00  0.00    -0.336 A  
HETATM   11  C   UNL     1     -10.756  11.015  64.901  1.00  0.00    -0.278 A  
HETATM   12  C   UNL     1      -9.834  10.388  65.731  1.00  0.00    -0.239 A  
HETATM   13  C   UNL     1      -9.413  12.506  66.815  1.00  0.00    -0.231 A  
HETATM   14  C   UNL     1      -9.169  11.133  66.699  1.00  0.00    -0.188 A  
BRANCH  12  15
HETATM   15  O   UNL     1      -9.701   9.043  65.523  1.00  0.00    -0.203 OA 
BRANCH  15  16
HETATM   16  C   UNL     1      -8.787   8.366  66.374  1.00  0.00    -0.153 C  
BRANCH  16  17
HETATM   17  C   UNL     1      -9.595   7.640  67.453  1.00  0.00    -0.147 C  
BRANCH  17  18
HETATM   18  O   UNL     1      -8.900   7.394  68.681  1.00  0.00    -0.128 OA 
BRANCH  18  19
HETATM   19  C   UNL     1      -9.498   7.888  69.875  1.00  0.00    -0.160 C  
BRANCH  19  20
HETATM   20  C   UNL     1     -10.979   7.495  69.972  1.00  0.00    -0.240 C  
BRANCH  20  21
HETATM   21  N   UNL     1     -11.683   7.885  71.280  1.00  0.00    -0.283 N  
HETATM   22  C   UNL     1     -12.175   6.581  71.921  1.00  0.00    -0.324 C  
HETATM   23  C   UNL     1     -10.695   8.538  72.240  1.00  0.00    -0.341 C  
BRANCH  21  24
HETATM   24  C   UNL     1     -12.891   8.814  70.986  1.00  0.00    -0.001 C  
BRANCH  24  25
HETATM   25  C   UNL     1     -12.563  10.278  70.870  1.00  0.00    -0.465 A  
HETATM   26  C   UNL     1     -12.985  11.173  71.866  1.00  0.00    -0.477 A  
HETATM   27  C   UNL     1     -12.820  12.545  71.695  1.00  0.00    -0.368 A  
HETATM   28  C   UNL     1     -12.217  13.036  70.540  1.00  0.00    -0.392 A  
HETATM   29  C   UNL     1     -11.740  12.156  69.572  1.00  0.00    -0.402 A  
HETATM   30  C   UNL     1     -11.898  10.781  69.741  1.00  0.00    -0.409 A  
ENDBRANCH  24  25
ENDBRANCH  21  24
ENDBRANCH  20  21
ENDBRANCH  19  20
ENDBRANCH  18  19
ENDBRANCH  17  18
ENDBRANCH  16  17
ENDBRANCH  15  16
ENDBRANCH  12  15
ENDBRANCH   6   9
ENDBRANCH   5   6
ENDBRANCH   2   5
TORSDOF 12
ENDMDL
MODEL       60
REMARK 921   NORMALIZED FREE ENERGY PREDICTED BY IDOCK:   -5.11 KCAL/MOL
REMARK 922        TOTAL FREE ENERGY PREDICTED BY IDOCK:   -9.97 KCAL/MOL
REMARK 923 INTER-LIGAND FREE ENERGY PREDICTED BY IDOCK:   -9.10 KCAL/MOL
REMARK 924 INTRA-LIGAND FREE ENERGY PREDICTED BY IDOCK:   -0.87 KCAL/MOL
REMARK 927      BINDING AFFINITY PREDICTED BY RF-SCORE:    0.00 PKD
ROOT
HETATM    1  C   UNL     1      -8.375  19.905  66.587  1.00  0.00    -0.369 C  
HETATM    2  C   UNL     1      -9.801  19.343  66.637  1.00  0.00    -0.462 C  
HETATM    3  C   UNL     1     -10.469  19.728  67.964  1.00  0.00    -0.523 C  
HETATM    4  C   UNL     1     -10.596  20.060  65.513  1.00  0.00    -0.300 C  
ENDROOT
BRANCH   2   5
HETATM    5  C   UNL     1      -9.868  17.808  66.345  1.00  0.00    -0.328 C  
BRANCH   5   6
HETATM    6  C   UNL     1      -8.876  16.737  66.941  1.00  0.00    -0.241 C  
HETATM    7  C   UNL     1      -8.776  16.802  68.481  1.00  0.00    -0.245 C  
HETATM    8  C   UNL     1      -7.443  16.901  66.395  1.00  0.00    -0.323 C  
BRANCH   6   9
HETATM    9  C   UNL     1      -9.450  15.339  66.580  1.00  0.00    -0.281 A  
HETATM   10  C   UNL     1     -10.307  15.118  65.487  1.00  0.00    -0.399 A  
HETATM   11  C   UNL     1     -10.798  13.845  65.193  1.00  0.00    -0.364 A  
HETATM   12  C   UNL     1     -10.462  12.757  65.990  1.00  0.00    -0.274 A  
HETATM   13  C   UNL     1      -9.132  14.220  67.379  1.00  0.00    -0.199 A  
HETATM   14  C   UNL     1      -9.636  12.946  67.093  1.00  0.00    -0.225 A  
BRANCH  12  15
HETATM   15  O   UNL     1     -11.033  11.573  65.609  1.00  0.00    -0.288 OA 
BRANCH  15  16
HETATM   16  C   UNL     1     -10.363  10.858  64.581  1.00  0.00    -0.338 C  
BRANCH  16  17
HETATM   17  C   UNL     1      -9.713   9.623  65.210  1.00  0.00    -0.260 C  
BRANCH  17  18
HETATM   18  O   UNL     1      -8.370   9.803  65.674  1.00  0.00    -0.127 OA 
BRANCH  18  19
HETATM   19  C   UNL     1      -8.091   9.419  67.017  1.00  0.00    -0.105 C  
BRANCH  19  20
HETATM   20  C   UNL     1      -9.375   9.280  67.845  1.00  0.00    -0.129 C  
BRANCH  20  21
HETATM   21  N   UNL     1      -9.249   8.445  69.128  1.00  0.00    -0.150 N  
HETATM   22  C   UNL     1     -10.403   7.435  69.112  1.00  0.00    -0.208 C  
HETATM   23  C   UNL     1      -7.940   7.664  69.124  1.00  0.00    -0.120 C  
BRANCH  21  24
HETATM   24  C   UNL     1      -9.366   9.356  70.379  1.00  0.00    -0.268 C  
BRANCH  24  25
HETATM   25  C   UNL     1     -10.757   9.511  70.933  1.00  0.00    -0.403 A  
HETATM   26  C   UNL     1     -11.166   8.735  72.028  1.00  0.00    -0.443 A  
HETATM   27  C   UNL     1     -12.493   8.759  72.452  1.00  0.00    -0.421 A  
HETATM   28  C   UNL     1     -13.418   9.571  71.801  1.00  0.00    -0.480 A  
HETATM   29  C   UNL     1     -13.011  10.391  70.750  1.00  0.00    -0.422 A  
HETATM   30  C   UNL     1     -11.683  10.374  70.326  1.00  0.00    -0.406 A  
ENDBRANCH  24  25
ENDBRANCH  21  24
ENDBRANCH  20  21
ENDBRANCH  19  20
ENDBRANCH  18  19
ENDBRANCH  17  18
ENDBRANCH  16  17
ENDBRANCH  15  16
ENDBRANCH  12  15
ENDBRANCH   6   9
ENDBRANCH   5   6
ENDBRANCH   2   5
TORSDOF 12
ENDMDL
MODEL       61
REMARK 921   NORMALIZED FREE ENERGY PREDICTED BY IDOCK:   -5.10 KCAL/MOL
REMARK 922        TOTAL FREE ENERGY PREDICTED BY IDOCK:   -9.94 KCAL/MOL
REMARK 923 INTER-LIGAND FREE ENERGY PREDICTED BY IDOCK:   -9.23 KCAL/MOL
REMARK 924 INTRA-LIGAND FREE ENERGY PREDICTED BY IDOCK:   -0.71 KCAL/MOL
REMARK 927      BINDING AFFINITY PREDICTED BY RF-SCORE:    0.00 PKD
ROOT
HETATM    1  C   UNL     1      -9.801  20.429  67.090  1.00  0.00    -0.601 C  
HETATM    2  C   UNL     1      -9.163  19.066  67.390  1.00  0.00    -0.326 C  
HETATM    3  C   UNL     1      -8.268  18.640  66.218  1.00  0.00    -0.258 C  
HETATM    4  C   UNL     1      -8.228  19.277  68.611  1.00  0.00    -0.408 C  
ENDROOT
BRANCH   2   5
HETATM    5  C   UNL     1     -10.207  17.973  67.788  1.00  0.00    -0.385 C  
BRANCH   5   6
HETATM    6  C   UNL     1      -9.863  16.458  68.058  1.00  0.00    -0.238 C  
HETATM    7  C   UNL     1     -10.264  15.994  69.476  1.00  0.00    -0.274 C  
HETATM    8  C   UNL     1      -8.356  16.166  67.905  1.00  0.00    -0.165 C  
BRANCH   6   9
HETATM    9  C   UNL     1     -10.696  15.618  67.051  1.00  0.00    -0.314 A  
HETATM   10  C   UNL     1     -11.652  14.667  67.448  1.00  0.00    -0.408 A  
HETATM   11  C   UNL     1     -12.384  13.936  66.511  1.00  0.00    -0.447 A  
HETATM   12  C   UNL     1     -12.174  14.120  65.150  1.00  0.00    -0.433 A  
HETATM   13  C   UNL     1     -10.494  15.780  65.664  1.00  0.00    -0.402 A  
HETATM   14  C   UNL     1     -11.218  15.037  64.724  1.00  0.00    -0.393 A  
BRANCH  12  15
HETATM   15  O   UNL     1     -12.935  13.321  64.341  1.00  0.00    -0.640 OA 
BRANCH  15  16
HETATM   16  C   UNL     1     -12.262  12.720  63.244  1.00  0.00    -0.410 C  
BRANCH  16  17
HETATM   17  C   UNL     1     -11.400  11.577  63.786  1.00  0.00    -0.329 C  
BRANCH  17  18
HETATM   18  O   UNL     1     -10.011  11.636  63.439  1.00  0.00    -0.359 OA 
BRANCH  18  19
HETATM   19  C   UNL     1      -9.085  11.099  64.378  1.00  0.00    -0.043 C  
BRANCH  19  20
HETATM   20  C   UNL     1      -9.365  11.600  65.801  1.00  0.00    -0.205 C  
BRANCH  20  21
HETATM   21  N   UNL     1      -9.524  10.507  66.868  1.00  0.00    -0.163 N  
HETATM   22  C   UNL     1      -8.424  10.745  67.910  1.00  0.00    -0.122 C  
HETATM   23  C   UNL     1     -10.872  10.642  67.568  1.00  0.00    -0.296 C  
BRANCH  21  24
HETATM   24  C   UNL     1      -9.349   9.103  66.231  1.00  0.00    -0.216 C  
BRANCH  24  25
HETATM   25  C   UNL     1      -9.642   7.942  67.144  1.00  0.00    -0.222 A  
HETATM   26  C   UNL     1      -8.633   7.430  67.975  1.00  0.00    -0.122 A  
HETATM   27  C   UNL     1      -8.847   6.266  68.708  1.00  0.00    -0.123 A  
HETATM   28  C   UNL     1     -10.075   5.613  68.636  1.00  0.00    -0.240 A  
HETATM   29  C   UNL     1     -11.105   6.143  67.862  1.00  0.00    -0.311 A  
HETATM   30  C   UNL     1     -10.896   7.311  67.129  1.00  0.00    -0.378 A  
ENDBRANCH  24  25
ENDBRANCH  21  24
ENDBRANCH  20  21
ENDBRANCH  19  20
ENDBRANCH  18  19
ENDBRANCH  17  18
ENDBRANCH  16  17
ENDBRANCH  15  16
ENDBRANCH  12  15
ENDBRANCH   6   9
ENDBRANCH   5   6
ENDBRANCH   2   5
TORSDOF 12
ENDMDL
MODEL       62
REMARK 921   NORMALIZED FREE ENERGY PREDICTED BY IDOCK:   -5.05 KCAL/MOL
REMARK 922        TOTAL FREE ENERGY PREDICTED BY IDOCK:   -9.86 KCAL/MOL
REMARK 923 INTER-LIGAND FREE ENERGY PREDICTED BY IDOCK:   -9.39 KCAL/MOL
REMARK 924 INTRA-LIGAND FREE ENERGY PREDICTED BY IDOCK:   -0.47 KCAL/MOL
REMARK 927      BINDING AFFINITY PREDICTED BY RF-SCORE:    0.00 PKD
ROOT
HETATM    1  C   UNL     1     -12.775   7.083  71.070  1.00  0.00    -0.300 C  
HETATM    2  C   UNL     1     -12.301   8.421  71.653  1.00  0.00    -0.359 C  
HETATM    3  C   UNL     1     -13.445   9.088  72.428  1.00  0.00    -0.524 C  
HETATM    4  C   UNL     1     -11.197   8.083  72.691  1.00  0.00    -0.462 C  
ENDROOT
BRANCH   2   5
HETATM    5  C   UNL     1     -11.659   9.364  70.583  1.00  0.00    -0.330 C  
BRANCH   5   6
HETATM    6  C   UNL     1     -10.405   8.999  69.700  1.00  0.00    -0.217 C  
HETATM    7  C   UNL     1     -10.341   7.497  69.340  1.00  0.00    -0.213 C  
HETATM    8  C   UNL     1      -9.076   9.345  70.403  1.00  0.00    -0.302 C  
BRANCH   6   9
HETATM    9  C   UNL     1     -10.547   9.782  68.366  1.00  0.00    -0.264 A  
HETATM   10  C   UNL     1     -11.300  10.963  68.244  1.00  0.00    -0.374 A  
HETATM   11  C   UNL     1     -11.399  11.641  67.028  1.00  0.00    -0.373 A  
HETATM   12  C   UNL     1     -10.763  11.153  65.893  1.00  0.00    -0.198 A  
HETATM   13  C   UNL     1      -9.918   9.302  67.198  1.00  0.00    -0.276 A  
HETATM   14  C   UNL     1     -10.029   9.974  65.975  1.00  0.00    -0.334 A  
BRANCH  12  15
HETATM   15  O   UNL     1     -10.963  11.896  64.762  1.00  0.00    -0.295 OA 
BRANCH  15  16
HETATM   16  C   UNL     1     -12.258  12.459  64.606  1.00  0.00    -0.425 C  
BRANCH  16  17
HETATM   17  C   UNL     1     -12.091  13.915  64.162  1.00  0.00    -0.425 C  
BRANCH  17  18
HETATM   18  O   UNL     1     -10.919  14.577  64.654  1.00  0.00    -0.382 OA 
BRANCH  18  19
HETATM   19  C   UNL     1     -11.035  15.263  65.896  1.00  0.00    -0.325 C  
BRANCH  19  20
HETATM   20  C   UNL     1      -9.880  14.917  66.845  1.00  0.00    -0.240 C  
BRANCH  20  21
HETATM   21  N   UNL     1      -9.601  15.945  67.951  1.00  0.00    -0.214 N  
HETATM   22  C   UNL     1     -10.487  17.162  67.656  1.00  0.00    -0.355 C  
HETATM   23  C   UNL     1     -10.007  15.386  69.310  1.00  0.00    -0.256 C  
BRANCH  21  24
HETATM   24  C   UNL     1      -8.107  16.366  67.931  1.00  0.00    -0.158 C  
BRANCH  24  25
HETATM   25  C   UNL     1      -7.854  17.822  67.646  1.00  0.00    -0.212 A  
HETATM   26  C   UNL     1      -7.800  18.279  66.320  1.00  0.00    -0.279 A  
HETATM   27  C   UNL     1      -7.416  19.589  66.040  1.00  0.00    -0.312 A  
HETATM   28  C   UNL     1      -7.103  20.460  67.081  1.00  0.00    -0.334 A  
HETATM   29  C   UNL     1      -7.211  20.037  68.403  1.00  0.00    -0.297 A  
HETATM   30  C   UNL     1      -7.598  18.728  68.688  1.00  0.00    -0.357 A  
ENDBRANCH  24  25
ENDBRANCH  21  24
ENDBRANCH  20  21
ENDBRANCH  19  20
ENDBRANCH  18  19
ENDBRANCH  17  18
ENDBRANCH  16  17
ENDBRANCH  15  16
ENDBRANCH  12  15
ENDBRANCH   6   9
ENDBRANCH   5   6
ENDBRANCH   2   5
TORSDOF 12
ENDMDL
MODEL       63
REMARK 921   NORMALIZED FREE ENERGY PREDICTED BY IDOCK:   -5.01 KCAL/MOL
REMARK 922        TOTAL FREE ENERGY PREDICTED BY IDOCK:   -9.80 KCAL/MOL
REMARK 923 INTER-LIGAND FREE ENERGY PREDICTED BY IDOCK:   -8.90 KCAL/MOL
REMARK 924 INTRA-LIGAND FREE ENERGY PREDICTED BY IDOCK:   -0.89 KCAL/MOL
REMARK 927      BINDING AFFINITY PREDICTED BY RF-SCORE:    0.00 PKD
ROOT
HETATM    1  C   UNL     1     -10.356   5.071  69.818  1.00  0.00    -0.286 C  
HETATM    2  C   UNL     1      -9.359   4.589  70.880  1.00  0.00    -0.219 C  
HETATM    3  C   UNL     1      -9.715   3.162  71.321  1.00  0.00    -0.215 C  
HETATM    4  C   UNL     1      -7.975   4.507  70.180  1.00  0.00    -0.063 C  
ENDROOT
BRANCH   2   5
HETATM    5  C   UNL     1      -9.214   5.579  72.081  1.00  0.00    -0.155 C  
BRANCH   5   6
HETATM    6  C   UNL     1     -10.419   6.264  72.831  1.00  0.00    -0.240 C  
HETATM    7  C   UNL     1     -10.101   6.591  74.308  1.00  0.00    -0.379 C  
HETATM    8  C   UNL     1     -11.683   5.379  72.834  1.00  0.00    -0.232 C  
BRANCH   6   9
HETATM    9  C   UNL     1     -10.690   7.615  72.113  1.00  0.00    -0.289 A  
HETATM   10  C   UNL     1     -11.945   8.249  72.115  1.00  0.00    -0.429 A  
HETATM   11  C   UNL     1     -12.146   9.466  71.462  1.00  0.00    -0.456 A  
HETATM   12  C   UNL     1     -11.106  10.080  70.774  1.00  0.00    -0.334 A  
HETATM   13  C   UNL     1      -9.653   8.253  71.401  1.00  0.00    -0.231 A  
HETATM   14  C   UNL     1      -9.858   9.466  70.734  1.00  0.00    -0.348 A  
BRANCH  12  15
HETATM   15  O   UNL     1     -11.444  11.252  70.155  1.00  0.00    -0.297 OA 
BRANCH  15  16
HETATM   16  C   UNL     1     -11.968  11.136  68.840  1.00  0.00    -0.298 C  
BRANCH  16  17
HETATM   17  C   UNL     1     -10.902  11.634  67.860  1.00  0.00    -0.210 C  
BRANCH  17  18
HETATM   18  O   UNL     1      -9.738  12.215  68.461  1.00  0.00    -0.206 OA 
BRANCH  18  19
HETATM   19  C   UNL     1      -9.566  13.621  68.315  1.00  0.00    -0.215 C  
BRANCH  19  20
HETATM   20  C   UNL     1      -9.769  14.069  66.862  1.00  0.00    -0.271 C  
BRANCH  20  21
HETATM   21  N   UNL     1     -10.862  15.125  66.641  1.00  0.00    -0.316 N  
HETATM   22  C   UNL     1     -11.997  14.433  65.876  1.00  0.00    -0.359 C  
HETATM   23  C   UNL     1     -11.417  15.601  67.979  1.00  0.00    -0.291 C  
BRANCH  21  24
HETATM   24  C   UNL     1     -10.307  16.307  65.801  1.00  0.00    -0.374 C  
BRANCH  24  25
HETATM   25  C   UNL     1      -9.849  17.501  66.596  1.00  0.00    -0.308 A  
HETATM   26  C   UNL     1     -10.564  18.706  66.528  1.00  0.00    -0.409 A  
HETATM   27  C   UNL     1     -10.066  19.857  67.135  1.00  0.00    -0.573 A  
HETATM   28  C   UNL     1      -8.862  19.810  67.832  1.00  0.00    -0.381 A  
HETATM   29  C   UNL     1      -8.172  18.607  67.958  1.00  0.00    -0.294 A  
HETATM   30  C   UNL     1      -8.669  17.452  67.355  1.00  0.00    -0.227 A  
ENDBRANCH  24  25
ENDBRANCH  21  24
ENDBRANCH  20  21
ENDBRANCH  19  20
ENDBRANCH  18  19
ENDBRANCH  17  18
ENDBRANCH  16  17
ENDBRANCH  15  16
ENDBRANCH  12  15
ENDBRANCH   6   9
ENDBRANCH   5   6
ENDBRANCH   2   5
TORSDOF 12
ENDMDL
MODEL       64
REMARK 921   NORMALIZED FREE ENERGY PREDICTED BY IDOCK:   -5.00 KCAL/MOL
REMARK 922        TOTAL FREE ENERGY PREDICTED BY IDOCK:   -9.78 KCAL/MOL
REMARK 923 INTER-LIGAND FREE ENERGY PREDICTED BY IDOCK:   -9.39 KCAL/MOL
REMARK 924 INTRA-LIGAND FREE ENERGY PREDICTED BY IDOCK:   -0.39 KCAL/MOL
REMARK 927      BINDING AFFINITY PREDICTED BY RF-SCORE:    0.00 PKD
ROOT
HETATM    1  C   UNL     1     -10.844   8.157  72.570  1.00  0.00    -0.431 C  
HETATM    2  C   UNL     1     -11.956   8.364  71.533  1.00  0.00    -0.344 C  
HETATM    3  C   UNL     1     -12.417   7.007  70.984  1.00  0.00    -0.373 C  
HETATM    4  C   UNL     1     -13.164   8.969  72.297  1.00  0.00    -0.519 C  
ENDROOT
BRANCH   2   5
HETATM    5  C   UNL     1     -11.566   9.375  70.406  1.00  0.00    -0.241 C  
BRANCH   5   6
HETATM    6  C   UNL     1     -10.376   9.173  69.391  1.00  0.00    -0.220 C  
HETATM    7  C   UNL     1     -10.261   7.719  68.883  1.00  0.00    -0.220 C  
HETATM    8  C   UNL     1      -9.011   9.538  70.010  1.00  0.00    -0.249 C  
BRANCH   6   9
HETATM    9  C   UNL     1     -10.681  10.064  68.155  1.00  0.00    -0.282 A  
HETATM   10  C   UNL     1     -10.266   9.739  66.851  1.00  0.00    -0.310 A  
HETATM   11  C   UNL     1     -10.564  10.564  65.766  1.00  0.00    -0.137 A  
HETATM   12  C   UNL     1     -11.271  11.746  65.950  1.00  0.00    -0.290 A  
HETATM   13  C   UNL     1     -11.388  11.274  68.317  1.00  0.00    -0.359 A  
HETATM   14  C   UNL     1     -11.675  12.109  67.231  1.00  0.00    -0.369 A  
BRANCH  12  15
HETATM   15  O   UNL     1     -11.471  12.475  64.809  1.00  0.00    -0.304 OA 
BRANCH  15  16
HETATM   16  C   UNL     1     -10.667  13.637  64.661  1.00  0.00    -0.421 C  
BRANCH  16  17
HETATM   17  C   UNL     1     -11.588  14.859  64.712  1.00  0.00    -0.410 C  
BRANCH  17  18
HETATM   18  O   UNL     1     -10.956  16.118  64.449  1.00  0.00    -0.612 OA 
BRANCH  18  19
HETATM   19  C   UNL     1     -10.699  16.960  65.568  1.00  0.00    -0.163 C  
BRANCH  19  20
HETATM   20  C   UNL     1      -9.433  16.532  66.321  1.00  0.00    -0.310 C  
BRANCH  20  21
HETATM   21  N   UNL     1      -9.044  17.414  67.517  1.00  0.00    -0.231 N  
HETATM   22  C   UNL     1     -10.022  18.596  67.530  1.00  0.00    -0.338 C  
HETATM   23  C   UNL     1      -9.219  16.644  68.822  1.00  0.00    -0.253 C  
BRANCH  21  24
HETATM   24  C   UNL     1      -7.591  17.935  67.353  1.00  0.00    -0.206 C  
BRANCH  24  25
HETATM   25  C   UNL     1      -6.900  18.325  68.632  1.00  0.00    -0.261 A  
HETATM   26  C   UNL     1      -6.978  19.648  69.096  1.00  0.00    -0.386 A  
HETATM   27  C   UNL     1      -6.220  20.055  70.192  1.00  0.00    -0.393 A  
HETATM   28  C   UNL     1      -5.394  19.144  70.845  1.00  0.00    -0.257 A  
HETATM   29  C   UNL     1      -5.354  17.815  70.431  1.00  0.00    -0.263 A  
HETATM   30  C   UNL     1      -6.114  17.401  69.338  1.00  0.00    -0.244 A  
ENDBRANCH  24  25
ENDBRANCH  21  24
ENDBRANCH  20  21
ENDBRANCH  19  20
ENDBRANCH  18  19
ENDBRANCH  17  18
ENDBRANCH  16  17
ENDBRANCH  15  16
ENDBRANCH  12  15
ENDBRANCH   6   9
ENDBRANCH   5   6
ENDBRANCH   2   5
TORSDOF 12
ENDMDL
MODEL       65
REMARK 921   NORMALIZED FREE ENERGY PREDICTED BY IDOCK:   -5.00 KCAL/MOL
REMARK 922        TOTAL FREE ENERGY PREDICTED BY IDOCK:   -9.77 KCAL/MOL
REMARK 923 INTER-LIGAND FREE ENERGY PREDICTED BY IDOCK:   -9.05 KCAL/MOL
REMARK 924 INTRA-LIGAND FREE ENERGY PREDICTED BY IDOCK:   -0.72 KCAL/MOL
REMARK 927      BINDING AFFINITY PREDICTED BY RF-SCORE:    0.00 PKD
ROOT
HETATM    1  C   UNL     1      -8.707  16.205  66.099  1.00  0.00    -0.358 C  
HETATM    2  C   UNL     1     -10.106  15.577  66.103  1.00  0.00    -0.329 C  
HETATM    3  C   UNL     1     -10.886  16.047  67.338  1.00  0.00    -0.277 C  
HETATM    4  C   UNL     1     -10.849  16.148  64.864  1.00  0.00    -0.353 C  
ENDROOT
BRANCH   2   5
HETATM    5  C   UNL     1     -10.082  14.021  65.953  1.00  0.00    -0.336 C  
BRANCH   5   6
HETATM    6  C   UNL     1     -11.364  13.106  65.876  1.00  0.00    -0.338 C  
HETATM    7  C   UNL     1     -11.265  12.024  64.778  1.00  0.00    -0.373 C  
HETATM    8  C   UNL     1     -12.644  13.917  65.588  1.00  0.00    -0.553 C  
BRANCH   6   9
HETATM    9  C   UNL     1     -11.472  12.365  67.237  1.00  0.00    -0.421 A  
HETATM   10  C   UNL     1     -11.186  10.997  67.393  1.00  0.00    -0.355 A  
HETATM   11  C   UNL     1     -11.290  10.368  68.635  1.00  0.00    -0.277 A  
HETATM   12  C   UNL     1     -11.699  11.081  69.756  1.00  0.00    -0.335 A  
HETATM   13  C   UNL     1     -11.894  13.064  68.388  1.00  0.00    -0.370 A  
HETATM   14  C   UNL     1     -12.012  12.430  69.631  1.00  0.00    -0.341 A  
BRANCH  12  15
HETATM   15  O   UNL     1     -11.787  10.340  70.903  1.00  0.00    -0.320 OA 
BRANCH  15  16
HETATM   16  C   UNL     1     -12.916  10.595  71.726  1.00  0.00    -0.472 C  
BRANCH  16  17
HETATM   17  C   UNL     1     -13.439   9.251  72.241  1.00  0.00    -0.482 C  
BRANCH  17  18
HETATM   18  O   UNL     1     -12.451   8.225  72.395  1.00  0.00    -0.344 OA 
BRANCH  18  19
HETATM   19  C   UNL     1     -12.659   7.013  71.678  1.00  0.00    -0.380 C  
BRANCH  19  20
HETATM   20  C   UNL     1     -11.526   6.007  71.924  1.00  0.00    -0.269 C  
BRANCH  20  21
HETATM   21  N   UNL     1     -10.348   6.084  70.942  1.00  0.00    -0.212 N  
HETATM   22  C   UNL     1      -9.113   6.473  71.764  1.00  0.00    -0.142 C  
HETATM   23  C   UNL     1     -10.087   4.717  70.319  1.00  0.00    -0.206 C  
BRANCH  21  24
HETATM   24  C   UNL     1     -10.619   7.162  69.859  1.00  0.00    -0.230 C  
BRANCH  24  25
HETATM   25  C   UNL     1      -9.969   6.910  68.525  1.00  0.00    -0.149 A  
HETATM   26  C   UNL     1      -8.665   7.367  68.281  1.00  0.00    -0.122 A  
HETATM   27  C   UNL     1      -8.112   7.275  67.006  1.00  0.00    -0.117 A  
HETATM   28  C   UNL     1      -8.846   6.708  65.968  1.00  0.00    -0.151 A  
HETATM   29  C   UNL     1     -10.119   6.196  66.210  1.00  0.00    -0.036 A  
HETATM   30  C   UNL     1     -10.675   6.282  67.486  1.00  0.00    -0.398 A  
ENDBRANCH  24  25
ENDBRANCH  21  24
ENDBRANCH  20  21
ENDBRANCH  19  20
ENDBRANCH  18  19
ENDBRANCH  17  18
ENDBRANCH  16  17
ENDBRANCH  15  16
ENDBRANCH  12  15
ENDBRANCH   6   9
ENDBRANCH   5   6
ENDBRANCH   2   5
TORSDOF 12
ENDMDL
MODEL       66
REMARK 921   NORMALIZED FREE ENERGY PREDICTED BY IDOCK:   -4.98 KCAL/MOL
REMARK 922        TOTAL FREE ENERGY PREDICTED BY IDOCK:   -9.74 KCAL/MOL
REMARK 923 INTER-LIGAND FREE ENERGY PREDICTED BY IDOCK:   -8.15 KCAL/MOL
REMARK 924 INTRA-LIGAND FREE ENERGY PREDICTED BY IDOCK:   -1.60 KCAL/MOL
REMARK 927      BINDING AFFINITY PREDICTED BY RF-SCORE:    0.00 PKD
ROOT
HETATM    1  C   UNL     1      -8.642  16.827  68.221  1.00  0.00    -0.226 C  
HETATM    2  C   UNL     1      -9.853  16.019  67.735  1.00  0.00    -0.231 C  
HETATM    3  C   UNL     1     -11.146  16.635  68.285  1.00  0.00    -0.295 C  
HETATM    4  C   UNL     1      -9.902  16.184  66.192  1.00  0.00    -0.358 C  
ENDROOT
BRANCH   2   5
HETATM    5  C   UNL     1      -9.732  14.489  68.034  1.00  0.00    -0.218 C  
BRANCH   5   6
HETATM    6  C   UNL     1     -10.947  13.488  68.096  1.00  0.00    -0.275 C  
HETATM    7  C   UNL     1     -11.976  13.722  66.967  1.00  0.00    -0.452 C  
HETATM    8  C   UNL     1     -11.719  13.587  69.428  1.00  0.00    -0.381 C  
BRANCH   6   9
HETATM    9  C   UNL     1     -10.368  12.060  67.896  1.00  0.00    -0.209 A  
HETATM   10  C   UNL     1      -9.069  11.695  68.292  1.00  0.00    -0.187 A  
HETATM   11  C   UNL     1      -8.586  10.400  68.099  1.00  0.00    -0.125 A  
HETATM   12  C   UNL     1      -9.379   9.434  67.491  1.00  0.00    -0.127 A  
HETATM   13  C   UNL     1     -11.149  11.064  67.272  1.00  0.00    -0.359 A  
HETATM   14  C   UNL     1     -10.660   9.769  67.066  1.00  0.00    -0.269 A  
BRANCH  12  15
HETATM   15  O   UNL     1      -8.776   8.215  67.336  1.00  0.00    -0.123 OA 
BRANCH  15  16
HETATM   16  C   UNL     1      -9.228   7.180  68.198  1.00  0.00    -0.131 C  
BRANCH  16  17
HETATM   17  C   UNL     1      -7.998   6.464  68.762  1.00  0.00    -0.110 C  
BRANCH  17  18
HETATM   18  O   UNL     1      -8.045   6.173  70.164  1.00  0.00    -0.111 OA 
BRANCH  18  19
HETATM   19  C   UNL     1      -8.989   5.198  70.594  1.00  0.00    -0.132 C  
BRANCH  19  20
HETATM   20  C   UNL     1      -9.310   5.338  72.088  1.00  0.00    -0.139 C  
BRANCH  20  21
HETATM   21  N   UNL     1     -10.679   5.952  72.416  1.00  0.00    -0.220 N  
HETATM   22  C   UNL     1     -11.506   4.852  73.093  1.00  0.00    -0.278 C  
HETATM   23  C   UNL     1     -10.522   7.100  73.406  1.00  0.00    -0.368 C  
BRANCH  21  24
HETATM   24  C   UNL     1     -11.388   6.415  71.114  1.00  0.00    -0.319 C  
BRANCH  24  25
HETATM   25  C   UNL     1     -12.011   7.784  71.173  1.00  0.00    -0.312 A  
HETATM   26  C   UNL     1     -11.314   8.894  70.672  1.00  0.00    -0.299 A  
HETATM   27  C   UNL     1     -11.812  10.182  70.858  1.00  0.00    -0.468 A  
HETATM   28  C   UNL     1     -13.018  10.371  71.528  1.00  0.00    -0.562 A  
HETATM   29  C   UNL     1     -13.749   9.274  71.978  1.00  0.00    -0.493 A  
HETATM   30  C   UNL     1     -13.256   7.983  71.789  1.00  0.00    -0.367 A  
ENDBRANCH  24  25
ENDBRANCH  21  24
ENDBRANCH  20  21
ENDBRANCH  19  20
ENDBRANCH  18  19
ENDBRANCH  17  18
ENDBRANCH  16  17
ENDBRANCH  15  16
ENDBRANCH  12  15
ENDBRANCH   6   9
ENDBRANCH   5   6
ENDBRANCH   2   5
TORSDOF 12
ENDMDL
MODEL       67
REMARK 921   NORMALIZED FREE ENERGY PREDICTED BY IDOCK:   -4.95 KCAL/MOL
REMARK 922        TOTAL FREE ENERGY PREDICTED BY IDOCK:   -9.68 KCAL/MOL
REMARK 923 INTER-LIGAND FREE ENERGY PREDICTED BY IDOCK:   -8.15 KCAL/MOL
REMARK 924 INTRA-LIGAND FREE ENERGY PREDICTED BY IDOCK:   -1.54 KCAL/MOL
REMARK 927      BINDING AFFINITY PREDICTED BY RF-SCORE:    0.00 PKD
ROOT
HETATM    1  C   UNL     1     -12.833  13.544  65.501  1.00  0.00    -0.406 C  
HETATM    2  C   UNL     1     -11.432  13.934  65.011  1.00  0.00    -0.343 C  
HETATM    3  C   UNL     1     -10.938  12.913  63.977  1.00  0.00    -0.447 C  
HETATM    4  C   UNL     1     -11.586  15.286  64.264  1.00  0.00    -0.204 C  
ENDROOT
BRANCH   2   5
HETATM    5  C   UNL     1     -10.415  14.160  66.177  1.00  0.00    -0.297 C  
BRANCH   5   6
HETATM    6  C   UNL     1     -10.539  13.524  67.614  1.00  0.00    -0.246 C  
HETATM    7  C   UNL     1     -11.984  13.555  68.161  1.00  0.00    -0.376 C  
HETATM    8  C   UNL     1      -9.655  14.246  68.651  1.00  0.00    -0.192 C  
BRANCH   6   9
HETATM    9  C   UNL     1     -10.133  12.030  67.483  1.00  0.00    -0.205 A  
HETATM   10  C   UNL     1     -11.065  10.993  67.299  1.00  0.00    -0.359 A  
HETATM   11  C   UNL     1     -10.660   9.662  67.181  1.00  0.00    -0.298 A  
HETATM   12  C   UNL     1      -9.314   9.324  67.258  1.00  0.00    -0.131 A  
HETATM   13  C   UNL     1      -8.775  11.659  67.568  1.00  0.00    -0.156 A  
HETATM   14  C   UNL     1      -8.369  10.324  67.463  1.00  0.00    -0.114 A  
BRANCH  12  15
HETATM   15  O   UNL     1      -9.056   7.985  67.156  1.00  0.00    -0.131 OA 
BRANCH  15  16
HETATM   16  C   UNL     1      -7.687   7.606  67.210  1.00  0.00    -0.113 C  
BRANCH  16  17
HETATM   17  C   UNL     1      -7.364   7.205  68.651  1.00  0.00    -0.097 C  
BRANCH  17  18
HETATM   18  O   UNL     1      -8.447   6.620  69.385  1.00  0.00    -0.129 OA 
BRANCH  18  19
HETATM   19  C   UNL     1      -8.533   6.931  70.771  1.00  0.00    -0.136 C  
BRANCH  19  20
HETATM   20  C   UNL     1      -9.354   5.884  71.537  1.00  0.00    -0.146 C  
BRANCH  20  21
HETATM   21  N   UNL     1     -10.622   6.410  72.224  1.00  0.00    -0.208 N  
HETATM   22  C   UNL     1     -11.255   5.219  72.955  1.00  0.00    -0.324 C  
HETATM   23  C   UNL     1     -10.263   7.465  73.265  1.00  0.00    -0.335 C  
BRANCH  21  24
HETATM   24  C   UNL     1     -11.616   6.966  71.169  1.00  0.00    -0.319 C  
BRANCH  24  25
HETATM   25  C   UNL     1     -11.989   8.415  71.338  1.00  0.00    -0.337 A  
HETATM   26  C   UNL     1     -13.140   8.763  72.063  1.00  0.00    -0.436 A  
HETATM   27  C   UNL     1     -13.578  10.084  72.097  1.00  0.00    -0.351 A  
HETATM   28  C   UNL     1     -12.863  11.073  71.427  1.00  0.00    -0.548 A  
HETATM   29  C   UNL     1     -11.686  10.751  70.754  1.00  0.00    -0.400 A  
HETATM   30  C   UNL     1     -11.242   9.429  70.720  1.00  0.00    -0.367 A  
ENDBRANCH  24  25
ENDBRANCH  21  24
ENDBRANCH  20  21
ENDBRANCH  19  20
ENDBRANCH  18  19
ENDBRANCH  17  18
ENDBRANCH  16  17
ENDBRANCH  15  16
ENDBRANCH  12  15
ENDBRANCH   6   9
ENDBRANCH   5   6
ENDBRANCH   2   5
TORSDOF 12
ENDMDL
MODEL       68
REMARK 921   NORMALIZED FREE ENERGY PREDICTED BY IDOCK:   -4.94 KCAL/MOL
REMARK 922        TOTAL FREE ENERGY PREDICTED BY IDOCK:   -9.68 KCAL/MOL
REMARK 923 INTER-LIGAND FREE ENERGY PREDICTED BY IDOCK:   -8.92 KCAL/MOL
REMARK 924 INTRA-LIGAND FREE ENERGY PREDICTED BY IDOCK:   -0.76 KCAL/MOL
REMARK 927      BINDING AFFINITY PREDICTED BY RF-SCORE:    0.00 PKD
ROOT
HETATM    1  C   UNL     1      -9.617   6.718  67.515  1.00  0.00    -0.146 C  
HETATM    2  C   UNL     1      -8.313   7.124  68.215  1.00  0.00    -0.124 C  
HETATM    3  C   UNL     1      -7.145   7.061  67.222  1.00  0.00    -0.084 C  
HETATM    4  C   UNL     1      -8.475   8.614  68.619  1.00  0.00    -0.130 C  
ENDROOT
BRANCH   2   5
HETATM    5  C   UNL     1      -8.042   6.314  69.525  1.00  0.00    -0.117 C  
BRANCH   5   6
HETATM    6  C   UNL     1      -9.101   5.398  70.250  1.00  0.00    -0.166 C  
HETATM    7  C   UNL     1      -8.489   4.564  71.398  1.00  0.00    -0.112 C  
HETATM    8  C   UNL     1      -9.769   4.400  69.283  1.00  0.00    -0.252 C  
BRANCH   6   9
HETATM    9  C   UNL     1     -10.157   6.344  70.887  1.00  0.00    -0.218 A  
HETATM   10  C   UNL     1     -11.510   6.353  70.506  1.00  0.00    -0.444 A  
HETATM   11  C   UNL     1     -12.429   7.215  71.106  1.00  0.00    -0.400 A  
HETATM   12  C   UNL     1     -12.023   8.105  72.093  1.00  0.00    -0.359 A  
HETATM   13  C   UNL     1      -9.768   7.263  71.884  1.00  0.00    -0.171 A  
HETATM   14  C   UNL     1     -10.686   8.137  72.476  1.00  0.00    -0.419 A  
BRANCH  12  15
HETATM   15  O   UNL     1     -13.016   8.912  72.578  1.00  0.00    -0.418 OA 
BRANCH  15  16
HETATM   16  C   UNL     1     -13.636   9.775  71.635  1.00  0.00    -0.291 C  
BRANCH  16  17
HETATM   17  C   UNL     1     -12.788  11.045  71.527  1.00  0.00    -0.450 C  
BRANCH  17  18
HETATM   18  O   UNL     1     -12.364  11.392  70.204  1.00  0.00    -0.297 OA 
BRANCH  18  19
HETATM   19  C   UNL     1     -11.950  12.736  69.987  1.00  0.00    -0.301 C  
BRANCH  19  20
HETATM   20  C   UNL     1     -11.883  13.075  68.491  1.00  0.00    -0.325 C  
BRANCH  20  21
HETATM   21  N   UNL     1     -11.175  14.392  68.142  1.00  0.00    -0.269 N  
HETATM   22  C   UNL     1     -11.711  15.452  69.112  1.00  0.00    -0.345 C  
HETATM   23  C   UNL     1      -9.673  14.263  68.368  1.00  0.00    -0.225 C  
BRANCH  21  24
HETATM   24  C   UNL     1     -11.498  14.807  66.681  1.00  0.00    -0.335 C  
BRANCH  24  25
HETATM   25  C   UNL     1     -11.447  13.693  65.670  1.00  0.00    -0.320 A  
HETATM   26  C   UNL     1     -10.208  13.195  65.237  1.00  0.00    -0.299 A  
HETATM   27  C   UNL     1     -10.144  12.274  64.194  1.00  0.00    -0.329 A  
HETATM   28  C   UNL     1     -11.315  11.826  63.589  1.00  0.00    -0.525 A  
HETATM   29  C   UNL     1     -12.554  12.266  64.049  1.00  0.00    -0.521 A  
HETATM   30  C   UNL     1     -12.622  13.185  65.095  1.00  0.00    -0.525 A  
ENDBRANCH  24  25
ENDBRANCH  21  24
ENDBRANCH  20  21
ENDBRANCH  19  20
ENDBRANCH  18  19
ENDBRANCH  17  18
ENDBRANCH  16  17
ENDBRANCH  15  16
ENDBRANCH  12  15
ENDBRANCH   6   9
ENDBRANCH   5   6
ENDBRANCH   2   5
TORSDOF 12
ENDMDL
MODEL       69
REMARK 921   NORMALIZED FREE ENERGY PREDICTED BY IDOCK:   -4.94 KCAL/MOL
REMARK 922        TOTAL FREE ENERGY PREDICTED BY IDOCK:   -9.68 KCAL/MOL
REMARK 923 INTER-LIGAND FREE ENERGY PREDICTED BY IDOCK:   -9.34 KCAL/MOL
REMARK 924 INTRA-LIGAND FREE ENERGY PREDICTED BY IDOCK:   -0.34 KCAL/MOL
REMARK 927      BINDING AFFINITY PREDICTED BY RF-SCORE:    0.00 PKD
ROOT
HETATM    1  C   UNL     1     -10.375  19.769  66.492  1.00  0.00    -0.621 C  
HETATM    2  C   UNL     1      -9.915  18.724  67.518  1.00  0.00    -0.382 C  
HETATM    3  C   UNL     1      -8.568  18.127  67.087  1.00  0.00    -0.250 C  
HETATM    4  C   UNL     1      -9.659  19.492  68.843  1.00  0.00    -0.460 C  
ENDROOT
BRANCH   2   5
HETATM    5  C   UNL     1     -10.997  17.635  67.813  1.00  0.00    -0.111 C  
BRANCH   5   6
HETATM    6  C   UNL     1     -10.685  16.163  68.284  1.00  0.00    -0.307 C  
HETATM    7  C   UNL     1     -11.620  15.684  69.417  1.00  0.00    -0.378 C  
HETATM    8  C   UNL     1      -9.241  16.011  68.806  1.00  0.00    -0.224 C  
BRANCH   6   9
HETATM    9  C   UNL     1     -10.934  15.235  67.064  1.00  0.00    -0.324 A  
HETATM   10  C   UNL     1     -12.007  14.329  66.993  1.00  0.00    -0.463 A  
HETATM   11  C   UNL     1     -12.200  13.516  65.875  1.00  0.00    -0.507 A  
HETATM   12  C   UNL     1     -11.320  13.570  64.801  1.00  0.00    -0.347 A  
HETATM   13  C   UNL     1     -10.050  15.264  65.965  1.00  0.00    -0.340 A  
HETATM   14  C   UNL     1     -10.235  14.439  64.850  1.00  0.00    -0.357 A  
BRANCH  12  15
HETATM   15  O   UNL     1     -11.606  12.701  63.784  1.00  0.00    -0.400 OA 
BRANCH  15  16
HETATM   16  C   UNL     1     -10.599  11.747  63.474  1.00  0.00    -0.440 C  
BRANCH  16  17
HETATM   17  C   UNL     1     -10.605  10.680  64.571  1.00  0.00    -0.075 C  
BRANCH  17  18
HETATM   18  O   UNL     1      -9.395   9.924  64.701  1.00  0.00    -0.249 OA 
BRANCH  18  19
HETATM   19  C   UNL     1      -9.184   9.245  65.935  1.00  0.00    -0.219 C  
BRANCH  19  20
HETATM   20  C   UNL     1      -8.611  10.182  67.007  1.00  0.00    -0.129 C  
BRANCH  20  21
HETATM   21  N   UNL     1      -9.533  10.463  68.202  1.00  0.00    -0.143 N  
HETATM   22  C   UNL     1      -9.449  11.970  68.480  1.00  0.00    -0.133 C  
HETATM   23  C   UNL     1     -10.978  10.130  67.846  1.00  0.00    -0.277 C  
BRANCH  21  24
HETATM   24  C   UNL     1      -9.056   9.672  69.449  1.00  0.00    -0.188 C  
BRANCH  24  25
HETATM   25  C   UNL     1     -10.140   8.956  70.209  1.00  0.00    -0.218 A  
HETATM   26  C   UNL     1     -10.459   7.627  69.892  1.00  0.00    -0.231 A  
HETATM   27  C   UNL     1     -11.558   7.006  70.482  1.00  0.00    -0.364 A  
HETATM   28  C   UNL     1     -12.334   7.697  71.407  1.00  0.00    -0.358 A  
HETATM   29  C   UNL     1     -11.993   8.997  71.776  1.00  0.00    -0.438 A  
HETATM   30  C   UNL     1     -10.891   9.620  71.191  1.00  0.00    -0.404 A  
ENDBRANCH  24  25
ENDBRANCH  21  24
ENDBRANCH  20  21
ENDBRANCH  19  20
ENDBRANCH  18  19
ENDBRANCH  17  18
ENDBRANCH  16  17
ENDBRANCH  15  16
ENDBRANCH  12  15
ENDBRANCH   6   9
ENDBRANCH   5   6
ENDBRANCH   2   5
TORSDOF 12
ENDMDL
MODEL       70
REMARK 921   NORMALIZED FREE ENERGY PREDICTED BY IDOCK:   -4.92 KCAL/MOL
REMARK 922        TOTAL FREE ENERGY PREDICTED BY IDOCK:   -9.64 KCAL/MOL
REMARK 923 INTER-LIGAND FREE ENERGY PREDICTED BY IDOCK:   -9.08 KCAL/MOL
REMARK 924 INTRA-LIGAND FREE ENERGY PREDICTED BY IDOCK:   -0.57 KCAL/MOL
REMARK 927      BINDING AFFINITY PREDICTED BY RF-SCORE:    0.00 PKD
ROOT
HETATM    1  C   UNL     1     -10.858   5.750  69.487  1.00  0.00    -0.410 C  
HETATM    2  C   UNL     1      -9.565   5.367  70.220  1.00  0.00    -0.236 C  
HETATM    3  C   UNL     1      -9.675   3.934  70.758  1.00  0.00    -0.255 C  
HETATM    4  C   UNL     1      -8.439   5.357  69.151  1.00  0.00    -0.103 C  
ENDROOT
BRANCH   2   5
HETATM    5  C   UNL     1      -9.153   6.400  71.319  1.00  0.00    -0.148 C  
BRANCH   5   6
HETATM    6  C   UNL     1     -10.130   6.991  72.407  1.00  0.00    -0.193 C  
HETATM    7  C   UNL     1      -9.400   7.424  73.698  1.00  0.00    -0.306 C  
HETATM    8  C   UNL     1     -11.216   5.980  72.828  1.00  0.00    -0.299 C  
BRANCH   6   9
HETATM    9  C   UNL     1     -10.769   8.268  71.794  1.00  0.00    -0.332 A  
HETATM   10  C   UNL     1     -12.066   8.707  72.111  1.00  0.00    -0.451 A  
HETATM   11  C   UNL     1     -12.603   9.863  71.543  1.00  0.00    -0.513 A  
HETATM   12  C   UNL     1     -11.867  10.609  70.630  1.00  0.00    -0.363 A  
HETATM   13  C   UNL     1     -10.046   9.037  70.858  1.00  0.00    -0.329 A  
HETATM   14  C   UNL     1     -10.588  10.189  70.277  1.00  0.00    -0.324 A  
BRANCH  12  15
HETATM   15  O   UNL     1     -12.519  11.701  70.127  1.00  0.00    -0.221 OA 
BRANCH  15  16
HETATM   16  C   UNL     1     -11.755  12.553  69.285  1.00  0.00    -0.321 C  
BRANCH  16  17
HETATM   17  C   UNL     1     -11.892  13.985  69.811  1.00  0.00    -0.324 C  
BRANCH  17  18
HETATM   18  O   UNL     1     -10.971  14.934  69.261  1.00  0.00    -0.249 OA 
BRANCH  18  19
HETATM   19  C   UNL     1     -11.521  16.013  68.513  1.00  0.00    -0.357 C  
BRANCH  19  20
HETATM   20  C   UNL     1     -10.714  16.290  67.238  1.00  0.00    -0.265 C  
BRANCH  20  21
HETATM   21  N   UNL     1      -9.989  17.643  67.194  1.00  0.00    -0.304 N  
HETATM   22  C   UNL     1     -10.602  18.435  66.032  1.00  0.00    -0.309 C  
HETATM   23  C   UNL     1     -10.242  18.422  68.480  1.00  0.00    -0.364 C  
BRANCH  21  24
HETATM   24  C   UNL     1      -8.471  17.433  66.943  1.00  0.00    -0.241 C  
BRANCH  24  25
HETATM   25  C   UNL     1      -7.585  18.571  67.375  1.00  0.00    -0.224 A  
HETATM   26  C   UNL     1      -6.931  18.519  68.616  1.00  0.00    -0.289 A  
HETATM   27  C   UNL     1      -6.234  19.627  69.091  1.00  0.00    -0.322 A  
HETATM   28  C   UNL     1      -6.165  20.788  68.326  1.00  0.00    -0.373 A  
HETATM   29  C   UNL     1      -6.759  20.832  67.066  1.00  0.00    -0.375 A  
HETATM   30  C   UNL     1      -7.455  19.723  66.585  1.00  0.00    -0.276 A  
ENDBRANCH  24  25
ENDBRANCH  21  24
ENDBRANCH  20  21
ENDBRANCH  19  20
ENDBRANCH  18  19
ENDBRANCH  17  18
ENDBRANCH  16  17
ENDBRANCH  15  16
ENDBRANCH  12  15
ENDBRANCH   6   9
ENDBRANCH   5   6
ENDBRANCH   2   5
TORSDOF 12
ENDMDL
MODEL       71
REMARK 921   NORMALIZED FREE ENERGY PREDICTED BY IDOCK:   -4.92 KCAL/MOL
REMARK 922        TOTAL FREE ENERGY PREDICTED BY IDOCK:   -9.64 KCAL/MOL
REMARK 923 INTER-LIGAND FREE ENERGY PREDICTED BY IDOCK:   -7.75 KCAL/MOL
REMARK 924 INTRA-LIGAND FREE ENERGY PREDICTED BY IDOCK:   -1.89 KCAL/MOL
REMARK 927      BINDING AFFINITY PREDICTED BY RF-SCORE:    0.00 PKD
ROOT
HETATM    1  C   UNL     1      -9.452   5.766  70.097  1.00  0.00    -0.195 C  
HETATM    2  C   UNL     1     -10.583   6.673  69.594  1.00  0.00    -0.276 C  
HETATM    3  C   UNL     1     -10.973   6.277  68.163  1.00  0.00    -0.412 C  
HETATM    4  C   UNL     1     -11.817   6.377  70.490  1.00  0.00    -0.316 C  
ENDROOT
BRANCH   2   5
HETATM    5  C   UNL     1     -10.260   8.196  69.738  1.00  0.00    -0.203 C  
BRANCH   5   6
HETATM    6  C   UNL     1      -9.062   8.931  69.023  1.00  0.00    -0.137 C  
HETATM    7  C   UNL     1      -8.036   7.951  68.411  1.00  0.00    -0.123 C  
HETATM    8  C   UNL     1      -8.281   9.847  69.988  1.00  0.00    -0.187 C  
BRANCH   6   9
HETATM    9  C   UNL     1      -9.668   9.749  67.850  1.00  0.00    -0.168 A  
HETATM   10  C   UNL     1     -10.550  10.828  68.039  1.00  0.00    -0.245 A  
HETATM   11  C   UNL     1     -11.070  11.542  66.959  1.00  0.00    -0.365 A  
HETATM   12  C   UNL     1     -10.738  11.191  65.655  1.00  0.00    -0.185 A  
HETATM   13  C   UNL     1      -9.355   9.407  66.518  1.00  0.00    -0.222 A  
HETATM   14  C   UNL     1      -9.887  10.114  65.433  1.00  0.00    -0.375 A  
BRANCH  12  15
HETATM   15  O   UNL     1     -11.338  11.952  64.689  1.00  0.00    -0.317 OA 
BRANCH  15  16
HETATM   16  C   UNL     1     -12.446  12.736  65.109  1.00  0.00    -0.501 C  
BRANCH  16  17
HETATM   17  C   UNL     1     -12.212  14.175  64.641  1.00  0.00    -0.445 C  
BRANCH  17  18
HETATM   18  O   UNL     1     -10.863  14.644  64.746  1.00  0.00    -0.399 OA 
BRANCH  18  19
HETATM   19  C   UNL     1     -10.658  15.882  65.420  1.00  0.00    -0.419 C  
BRANCH  19  20
HETATM   20  C   UNL     1     -10.939  15.762  66.924  1.00  0.00    -0.207 C  
BRANCH  20  21
HETATM   21  N   UNL     1     -10.129  16.704  67.826  1.00  0.00    -0.266 N  
HETATM   22  C   UNL     1     -10.551  18.134  67.463  1.00  0.00    -0.401 C  
HETATM   23  C   UNL     1     -10.479  16.468  69.290  1.00  0.00    -0.326 C  
BRANCH  21  24
HETATM   24  C   UNL     1      -8.609  16.524  67.567  1.00  0.00    -0.177 C  
BRANCH  24  25
HETATM   25  C   UNL     1      -8.006  15.265  68.128  1.00  0.00    -0.128 A  
HETATM   26  C   UNL     1      -7.144  15.332  69.234  1.00  0.00    -0.177 A  
HETATM   27  C   UNL     1      -6.463  14.196  69.666  1.00  0.00    -0.134 A  
HETATM   28  C   UNL     1      -6.649  12.981  69.013  1.00  0.00    -0.105 A  
HETATM   29  C   UNL     1      -7.547  12.888  67.952  1.00  0.00    -0.138 A  
HETATM   30  C   UNL     1      -8.235  14.022  67.519  1.00  0.00    -0.195 A  
ENDBRANCH  24  25
ENDBRANCH  21  24
ENDBRANCH  20  21
ENDBRANCH  19  20
ENDBRANCH  18  19
ENDBRANCH  17  18
ENDBRANCH  16  17
ENDBRANCH  15  16
ENDBRANCH  12  15
ENDBRANCH   6   9
ENDBRANCH   5   6
ENDBRANCH   2   5
TORSDOF 12
ENDMDL
MODEL       72
REMARK 921   NORMALIZED FREE ENERGY PREDICTED BY IDOCK:   -4.92 KCAL/MOL
REMARK 922        TOTAL FREE ENERGY PREDICTED BY IDOCK:   -9.64 KCAL/MOL
REMARK 923 INTER-LIGAND FREE ENERGY PREDICTED BY IDOCK:   -9.17 KCAL/MOL
REMARK 924 INTRA-LIGAND FREE ENERGY PREDICTED BY IDOCK:   -0.47 KCAL/MOL
REMARK 927      BINDING AFFINITY PREDICTED BY RF-SCORE:    0.00 PKD
ROOT
HETATM    1  C   UNL     1      -9.773   5.674  68.705  1.00  0.00    -0.178 C  
HETATM    2  C   UNL     1     -10.176   5.820  70.178  1.00  0.00    -0.301 C  
HETATM    3  C   UNL     1     -11.635   6.286  70.277  1.00  0.00    -0.379 C  
HETATM    4  C   UNL     1     -10.120   4.396  70.794  1.00  0.00    -0.199 C  
ENDROOT
BRANCH   2   5
HETATM    5  C   UNL     1      -9.193   6.719  70.998  1.00  0.00    -0.156 C  
BRANCH   5   6
HETATM    6  C   UNL     1      -9.637   7.847  72.006  1.00  0.00    -0.242 C  
HETATM    7  C   UNL     1      -8.440   8.561  72.673  1.00  0.00    -0.169 C  
HETATM    8  C   UNL     1     -10.518   7.297  73.146  1.00  0.00    -0.385 C  
BRANCH   6   9
HETATM    9  C   UNL     1     -10.403   8.916  71.180  1.00  0.00    -0.338 A  
HETATM   10  C   UNL     1     -11.675   9.397  71.535  1.00  0.00    -0.465 A  
HETATM   11  C   UNL     1     -12.329  10.363  70.769  1.00  0.00    -0.463 A  
HETATM   12  C   UNL     1     -11.740  10.867  69.616  1.00  0.00    -0.331 A  
HETATM   13  C   UNL     1      -9.831   9.437  70.000  1.00  0.00    -0.253 A  
HETATM   14  C   UNL     1     -10.492  10.395  69.223  1.00  0.00    -0.257 A  
BRANCH  12  15
HETATM   15  O   UNL     1     -12.498  11.786  68.942  1.00  0.00    -0.195 OA 
BRANCH  15  16
HETATM   16  C   UNL     1     -11.835  12.983  68.558  1.00  0.00    -0.325 C  
BRANCH  16  17
HETATM   17  C   UNL     1     -12.025  13.165  67.050  1.00  0.00    -0.355 C  
BRANCH  17  18
HETATM   18  O   UNL     1     -11.421  14.338  66.492  1.00  0.00    -0.335 OA 
BRANCH  18  19
HETATM   19  C   UNL     1     -10.165  14.173  65.841  1.00  0.00    -0.319 C  
BRANCH  19  20
HETATM   20  C   UNL     1      -9.022  13.997  66.850  1.00  0.00    -0.227 C  
BRANCH  20  21
HETATM   21  N   UNL     1      -8.362  15.295  67.337  1.00  0.00    -0.167 N  
HETATM   22  C   UNL     1      -9.123  15.733  68.595  1.00  0.00    -0.204 C  
HETATM   23  C   UNL     1      -6.912  15.038  67.729  1.00  0.00    -0.174 C  
BRANCH  21  24
HETATM   24  C   UNL     1      -8.471  16.396  66.247  1.00  0.00    -0.337 C  
BRANCH  24  25
HETATM   25  C   UNL     1      -8.843  17.764  66.752  1.00  0.00    -0.275 A  
HETATM   26  C   UNL     1     -10.128  18.276  66.511  1.00  0.00    -0.396 A  
HETATM   27  C   UNL     1     -10.434  19.595  66.838  1.00  0.00    -0.606 A  
HETATM   28  C   UNL     1      -9.470  20.409  67.425  1.00  0.00    -0.561 A  
HETATM   29  C   UNL     1      -8.209  19.896  67.724  1.00  0.00    -0.337 A  
HETATM   30  C   UNL     1      -7.900  18.575  67.402  1.00  0.00    -0.241 A  
ENDBRANCH  24  25
ENDBRANCH  21  24
ENDBRANCH  20  21
ENDBRANCH  19  20
ENDBRANCH  18  19
ENDBRANCH  17  18
ENDBRANCH  16  17
ENDBRANCH  15  16
ENDBRANCH  12  15
ENDBRANCH   6   9
ENDBRANCH   5   6
ENDBRANCH   2   5
TORSDOF 12
ENDMDL
MODEL       73
REMARK 921   NORMALIZED FREE ENERGY PREDICTED BY IDOCK:   -4.91 KCAL/MOL
REMARK 922        TOTAL FREE ENERGY PREDICTED BY IDOCK:   -9.63 KCAL/MOL
REMARK 923 INTER-LIGAND FREE ENERGY PREDICTED BY IDOCK:   -8.97 KCAL/MOL
REMARK 924 INTRA-LIGAND FREE ENERGY PREDICTED BY IDOCK:   -0.66 KCAL/MOL
REMARK 927      BINDING AFFINITY PREDICTED BY RF-SCORE:    0.00 PKD
ROOT
HETATM    1  C   UNL     1     -10.962   6.285  68.342  1.00  0.00    -0.409 C  
HETATM    2  C   UNL     1      -9.828   6.019  69.342  1.00  0.00    -0.203 C  
HETATM    3  C   UNL     1     -10.144   4.764  70.168  1.00  0.00    -0.310 C  
HETATM    4  C   UNL     1      -8.566   5.692  68.499  1.00  0.00    -0.107 C  
ENDROOT
BRANCH   2   5
HETATM    5  C   UNL     1      -9.486   7.261  70.228  1.00  0.00    -0.165 C  
BRANCH   5   6
HETATM    6  C   UNL     1     -10.546   8.118  71.020  1.00  0.00    -0.242 C  
HETATM    7  C   UNL     1     -10.092   8.455  72.458  1.00  0.00    -0.362 C  
HETATM    8  C   UNL     1     -11.906   7.400  71.139  1.00  0.00    -0.330 C  
BRANCH   6   9
HETATM    9  C   UNL     1     -10.696   9.466  70.262  1.00  0.00    -0.299 A  
HETATM   10  C   UNL     1     -11.728  10.385  70.522  1.00  0.00    -0.434 A  
HETATM   11  C   UNL     1     -11.824  11.589  69.822  1.00  0.00    -0.429 A  
HETATM   12  C   UNL     1     -10.904  11.905  68.831  1.00  0.00    -0.221 A  
HETATM   13  C   UNL     1      -9.780   9.807  69.244  1.00  0.00    -0.204 A  
HETATM   14  C   UNL     1      -9.885  11.007  68.532  1.00  0.00    -0.194 A  
BRANCH  12  15
HETATM   15  O   UNL     1     -11.129  13.100  68.203  1.00  0.00    -0.235 OA 
BRANCH  15  16
HETATM   16  C   UNL     1     -11.865  13.040  66.989  1.00  0.00    -0.377 C  
BRANCH  16  17
HETATM   17  C   UNL     1     -10.912  13.380  65.841  1.00  0.00    -0.274 C  
BRANCH  17  18
HETATM   18  O   UNL     1     -10.958  14.738  65.385  1.00  0.00    -0.321 OA 
BRANCH  18  19
HETATM   19  C   UNL     1      -9.883  15.588  65.772  1.00  0.00    -0.357 C  
BRANCH  19  20
HETATM   20  C   UNL     1     -10.370  17.010  66.086  1.00  0.00    -0.319 C  
BRANCH  20  21
HETATM   21  N   UNL     1     -10.149  17.481  67.530  1.00  0.00    -0.313 N  
HETATM   22  C   UNL     1     -10.647  18.930  67.603  1.00  0.00    -0.428 C  
HETATM   23  C   UNL     1     -10.985  16.647  68.494  1.00  0.00    -0.339 C  
BRANCH  21  24
HETATM   24  C   UNL     1      -8.640  17.426  67.890  1.00  0.00    -0.232 C  
BRANCH  24  25
HETATM   25  C   UNL     1      -7.802  18.537  67.316  1.00  0.00    -0.240 A  
HETATM   26  C   UNL     1      -7.484  19.655  68.103  1.00  0.00    -0.339 A  
HETATM   27  C   UNL     1      -6.841  20.754  67.539  1.00  0.00    -0.407 A  
HETATM   28  C   UNL     1      -6.491  20.740  66.192  1.00  0.00    -0.282 A  
HETATM   29  C   UNL     1      -6.747  19.613  65.414  1.00  0.00    -0.319 A  
HETATM   30  C   UNL     1      -7.386  18.509  65.976  1.00  0.00    -0.275 A  
ENDBRANCH  24  25
ENDBRANCH  21  24
ENDBRANCH  20  21
ENDBRANCH  19  20
ENDBRANCH  18  19
ENDBRANCH  17  18
ENDBRANCH  16  17
ENDBRANCH  15  16
ENDBRANCH  12  15
ENDBRANCH   6   9
ENDBRANCH   5   6
ENDBRANCH   2   5
TORSDOF 12
ENDMDL
MODEL       74
REMARK 921   NORMALIZED FREE ENERGY PREDICTED BY IDOCK:   -4.90 KCAL/MOL
REMARK 922        TOTAL FREE ENERGY PREDICTED BY IDOCK:   -9.61 KCAL/MOL
REMARK 923 INTER-LIGAND FREE ENERGY PREDICTED BY IDOCK:   -7.92 KCAL/MOL
REMARK 924 INTRA-LIGAND FREE ENERGY PREDICTED BY IDOCK:   -1.69 KCAL/MOL
REMARK 927      BINDING AFFINITY PREDICTED BY RF-SCORE:    0.00 PKD
ROOT
HETATM    1  C   UNL     1      -7.612  10.532  66.918  1.00  0.00    -0.110 C  
HETATM    2  C   UNL     1      -7.286   9.370  67.866  1.00  0.00    -0.083 C  
HETATM    3  C   UNL     1      -5.935   8.749  67.485  1.00  0.00    -0.047 C  
HETATM    4  C   UNL     1      -7.109   9.990  69.278  1.00  0.00    -0.074 C  
ENDROOT
BRANCH   2   5
HETATM    5  C   UNL     1      -8.436   8.315  67.963  1.00  0.00    -0.132 C  
BRANCH   5   6
HETATM    6  C   UNL     1      -9.913   8.547  67.461  1.00  0.00    -0.258 C  
HETATM    7  C   UNL     1     -10.785   7.275  67.554  1.00  0.00    -0.326 C  
HETATM    8  C   UNL     1      -9.963   9.015  65.993  1.00  0.00    -0.246 C  
BRANCH   6   9
HETATM    9  C   UNL     1     -10.549   9.606  68.403  1.00  0.00    -0.264 A  
HETATM   10  C   UNL     1     -11.174  10.775  67.935  1.00  0.00    -0.386 A  
HETATM   11  C   UNL     1     -11.739  11.700  68.815  1.00  0.00    -0.392 A  
HETATM   12  C   UNL     1     -11.684  11.495  70.188  1.00  0.00    -0.309 A  
HETATM   13  C   UNL     1     -10.498   9.425  69.802  1.00  0.00    -0.243 A  
HETATM   14  C   UNL     1     -11.051  10.360  70.684  1.00  0.00    -0.283 A  
BRANCH  12  15
HETATM   15  O   UNL     1     -12.249  12.490  70.937  1.00  0.00    -0.347 OA 
BRANCH  15  16
HETATM   16  C   UNL     1     -12.975  13.478  70.219  1.00  0.00     0.192 C  
BRANCH  16  17
HETATM   17  C   UNL     1     -12.565  14.851  70.757  1.00  0.00    -0.354 C  
BRANCH  17  18
HETATM   18  O   UNL     1     -11.828  15.675  69.845  1.00  0.00    -0.327 OA 
BRANCH  18  19
HETATM   19  C   UNL     1     -10.573  15.180  69.393  1.00  0.00    -0.255 C  
BRANCH  19  20
HETATM   20  C   UNL     1      -9.898  16.152  68.415  1.00  0.00    -0.222 C  
BRANCH  20  21
HETATM   21  N   UNL     1      -9.610  15.589  67.016  1.00  0.00    -0.220 N  
HETATM   22  C   UNL     1     -10.604  16.258  66.058  1.00  0.00    -0.281 C  
HETATM   23  C   UNL     1      -8.201  15.968  66.572  1.00  0.00    -0.299 C  
BRANCH  21  24
HETATM   24  C   UNL     1      -9.819  14.051  67.000  1.00  0.00    -0.260 C  
BRANCH  24  25
HETATM   25  C   UNL     1     -10.687  13.532  65.886  1.00  0.00    -0.279 A  
HETATM   26  C   UNL     1     -12.080  13.701  65.945  1.00  0.00    -0.476 A  
HETATM   27  C   UNL     1     -12.904  13.094  65.000  1.00  0.00    -0.370 A  
HETATM   28  C   UNL     1     -12.347  12.331  63.977  1.00  0.00    -0.569 A  
HETATM   29  C   UNL     1     -10.963  12.205  63.872  1.00  0.00    -0.463 A  
HETATM   30  C   UNL     1     -10.134  12.815  64.814  1.00  0.00    -0.240 A  
ENDBRANCH  24  25
ENDBRANCH  21  24
ENDBRANCH  20  21
ENDBRANCH  19  20
ENDBRANCH  18  19
ENDBRANCH  17  18
ENDBRANCH  16  17
ENDBRANCH  15  16
ENDBRANCH  12  15
ENDBRANCH   6   9
ENDBRANCH   5   6
ENDBRANCH   2   5
TORSDOF 12
ENDMDL
MODEL       75
REMARK 921   NORMALIZED FREE ENERGY PREDICTED BY IDOCK:   -4.90 KCAL/MOL
REMARK 922        TOTAL FREE ENERGY PREDICTED BY IDOCK:   -9.61 KCAL/MOL
REMARK 923 INTER-LIGAND FREE ENERGY PREDICTED BY IDOCK:   -8.97 KCAL/MOL
REMARK 924 INTRA-LIGAND FREE ENERGY PREDICTED BY IDOCK:   -0.64 KCAL/MOL
REMARK 927      BINDING AFFINITY PREDICTED BY RF-SCORE:    0.00 PKD
ROOT
HETATM    1  C   UNL     1     -11.238   5.206  72.847  1.00  0.00    -0.362 C  
HETATM    2  C   UNL     1     -10.934   6.488  72.061  1.00  0.00    -0.283 C  
HETATM    3  C   UNL     1     -11.983   6.685  70.957  1.00  0.00    -0.415 C  
HETATM    4  C   UNL     1     -11.109   7.667  73.056  1.00  0.00    -0.437 C  
ENDROOT
BRANCH   2   5
HETATM    5  C   UNL     1      -9.467   6.548  71.525  1.00  0.00    -0.162 C  
BRANCH   5   6
HETATM    6  C   UNL     1      -9.027   6.145  70.065  1.00  0.00    -0.148 C  
HETATM    7  C   UNL     1      -9.698   4.842  69.574  1.00  0.00    -0.271 C  
HETATM    8  C   UNL     1      -7.504   5.931  69.952  1.00  0.00    -0.079 C  
BRANCH   6   9
HETATM    9  C   UNL     1      -9.499   7.284  69.120  1.00  0.00    -0.148 A  
HETATM   10  C   UNL     1      -9.427   8.646  69.462  1.00  0.00    -0.162 A  
HETATM   11  C   UNL     1      -9.856   9.641  68.582  1.00  0.00    -0.171 A  
HETATM   12  C   UNL     1     -10.385   9.307  67.341  1.00  0.00    -0.263 A  
HETATM   13  C   UNL     1     -10.048   6.971  67.859  1.00  0.00    -0.204 A  
HETATM   14  C   UNL     1     -10.492   7.968  66.982  1.00  0.00    -0.410 A  
BRANCH  12  15
HETATM   15  O   UNL     1     -10.794  10.374  66.589  1.00  0.00    -0.176 OA 
BRANCH  15  16
HETATM   16  C   UNL     1     -10.075  10.603  65.385  1.00  0.00    -0.291 C  
BRANCH  16  17
HETATM   17  C   UNL     1     -10.697  11.814  64.686  1.00  0.00    -0.310 C  
BRANCH  17  18
HETATM   18  O   UNL     1     -11.564  12.615  65.497  1.00  0.00    -0.333 OA 
BRANCH  18  19
HETATM   19  C   UNL     1     -11.190  13.974  65.700  1.00  0.00    -0.310 C  
BRANCH  19  20
HETATM   20  C   UNL     1      -9.770  14.093  66.271  1.00  0.00    -0.297 C  
BRANCH  20  21
HETATM   21  N   UNL     1      -9.523  15.304  67.182  1.00  0.00    -0.210 N  
HETATM   22  C   UNL     1      -9.342  14.756  68.604  1.00  0.00    -0.198 C  
HETATM   23  C   UNL     1      -8.234  16.012  66.783  1.00  0.00    -0.272 C  
BRANCH  21  24
HETATM   24  C   UNL     1     -10.739  16.267  67.141  1.00  0.00    -0.247 C  
BRANCH  24  25
HETATM   25  C   UNL     1     -10.407  17.728  67.278  1.00  0.00    -0.364 A  
HETATM   26  C   UNL     1     -10.147  18.274  68.545  1.00  0.00    -0.419 A  
HETATM   27  C   UNL     1      -9.989  19.649  68.701  1.00  0.00    -0.553 A  
HETATM   28  C   UNL     1     -10.069  20.489  67.594  1.00  0.00    -0.412 A  
HETATM   29  C   UNL     1     -10.266  19.955  66.323  1.00  0.00    -0.614 A  
HETATM   30  C   UNL     1     -10.421  18.579  66.161  1.00  0.00    -0.447 A  
ENDBRANCH  24  25
ENDBRANCH  21  24
ENDBRANCH  20  21
ENDBRANCH  19  20
ENDBRANCH  18  19
ENDBRANCH  17  18
ENDBRANCH  16  17
ENDBRANCH  15  16
ENDBRANCH  12  15
ENDBRANCH   6   9
ENDBRANCH   5   6
ENDBRANCH   2   5
TORSDOF 12
ENDMDL
MODEL       76
REMARK 921   NORMALIZED FREE ENERGY PREDICTED BY IDOCK:   -4.90 KCAL/MOL
REMARK 922        TOTAL FREE ENERGY PREDICTED BY IDOCK:   -9.61 KCAL/MOL
REMARK 923 INTER-LIGAND FREE ENERGY PREDICTED BY IDOCK:   -8.28 KCAL/MOL
REMARK 924 INTRA-LIGAND FREE ENERGY PREDICTED BY IDOCK:   -1.32 KCAL/MOL
REMARK 927      BINDING AFFINITY PREDICTED BY RF-SCORE:    0.00 PKD
ROOT
HETATM    1  C   UNL     1      -7.970   9.091  69.277  1.00  0.00    -0.096 C  
HETATM    2  C   UNL     1      -8.026   7.739  70.000  1.00  0.00    -0.113 C  
HETATM    3  C   UNL     1      -7.664   6.610  69.025  1.00  0.00    -0.109 C  
HETATM    4  C   UNL     1      -6.911   7.771  71.080  1.00  0.00    -0.049 C  
ENDROOT
BRANCH   2   5
HETATM    5  C   UNL     1      -9.382   7.494  70.739  1.00  0.00    -0.162 C  
BRANCH   5   6
HETATM    6  C   UNL     1     -10.801   7.542  70.053  1.00  0.00    -0.260 C  
HETATM    7  C   UNL     1     -11.775   6.482  70.613  1.00  0.00    -0.436 C  
HETATM    8  C   UNL     1     -10.721   7.312  68.530  1.00  0.00    -0.165 C  
BRANCH   6   9
HETATM    9  C   UNL     1     -11.410   8.935  70.372  1.00  0.00    -0.229 A  
HETATM   10  C   UNL     1     -11.156  10.081  69.598  1.00  0.00    -0.300 A  
HETATM   11  C   UNL     1     -11.727  11.315  69.915  1.00  0.00    -0.430 A  
HETATM   12  C   UNL     1     -12.556  11.446  71.023  1.00  0.00    -0.386 A  
HETATM   13  C   UNL     1     -12.247   9.097  71.496  1.00  0.00    -0.422 A  
HETATM   14  C   UNL     1     -12.808  10.336  71.823  1.00  0.00    -0.565 A  
BRANCH  12  15
HETATM   15  O   UNL     1     -13.026  12.713  71.237  1.00  0.00    -0.322 OA 
BRANCH  15  16
HETATM   16  C   UNL     1     -12.738  13.666  70.224  1.00  0.00    -0.098 C  
BRANCH  16  17
HETATM   17  C   UNL     1     -12.518  15.022  70.900  1.00  0.00    -0.345 C  
BRANCH  17  18
HETATM   18  O   UNL     1     -11.700  15.947  70.173  1.00  0.00    -0.332 OA 
BRANCH  18  19
HETATM   19  C   UNL     1     -10.851  15.408  69.165  1.00  0.00    -0.249 C  
BRANCH  19  20
HETATM   20  C   UNL     1     -11.071  16.097  67.811  1.00  0.00    -0.254 C  
BRANCH  20  21
HETATM   21  N   UNL     1     -10.968  15.185  66.580  1.00  0.00    -0.322 N  
HETATM   22  C   UNL     1     -12.214  14.291  66.587  1.00  0.00    -0.381 C  
HETATM   23  C   UNL     1     -10.991  16.015  65.302  1.00  0.00    -0.299 C  
BRANCH  21  24
HETATM   24  C   UNL     1      -9.691  14.306  66.666  1.00  0.00    -0.287 C  
BRANCH  24  25
HETATM   25  C   UNL     1      -9.789  12.963  65.993  1.00  0.00    -0.256 A  
HETATM   26  C   UNL     1      -9.957  12.885  64.602  1.00  0.00    -0.153 A  
HETATM   27  C   UNL     1     -10.201  11.658  63.989  1.00  0.00    -0.391 A  
HETATM   28  C   UNL     1     -10.259  10.497  64.755  1.00  0.00    -0.373 A  
HETATM   29  C   UNL     1     -10.035  10.552  66.128  1.00  0.00    -0.286 A  
HETATM   30  C   UNL     1      -9.786  11.778  66.745  1.00  0.00    -0.213 A  
ENDBRANCH  24  25
ENDBRANCH  21  24
ENDBRANCH  20  21
ENDBRANCH  19  20
ENDBRANCH  18  19
ENDBRANCH  17  18
ENDBRANCH  16  17
ENDBRANCH  15  16
ENDBRANCH  12  15
ENDBRANCH   6   9
ENDBRANCH   5   6
ENDBRANCH   2   5
TORSDOF 12
ENDMDL
MODEL       77
REMARK 921   NORMALIZED FREE ENERGY PREDICTED BY IDOCK:   -4.88 KCAL/MOL
REMARK 922        TOTAL FREE ENERGY PREDICTED BY IDOCK:   -9.58 KCAL/MOL
REMARK 923 INTER-LIGAND FREE ENERGY PREDICTED BY IDOCK:   -7.61 KCAL/MOL
REMARK 924 INTRA-LIGAND FREE ENERGY PREDICTED BY IDOCK:   -1.96 KCAL/MOL
REMARK 927      BINDING AFFINITY PREDICTED BY RF-SCORE:    0.00 PKD
ROOT
HETATM    1  C   UNL     1     -11.074  10.602  67.230  1.00  0.00    -0.313 C  
HETATM    2  C   UNL     1      -9.900  10.694  66.246  1.00  0.00    -0.263 C  
HETATM    3  C   UNL     1      -9.356   9.289  65.950  1.00  0.00    -0.297 C  
HETATM    4  C   UNL     1     -10.485  11.235  64.913  1.00  0.00    -0.375 C  
ENDROOT
BRANCH   2   5
HETATM    5  C   UNL     1      -8.789  11.693  66.706  1.00  0.00    -0.184 C  
BRANCH   5   6
HETATM    6  C   UNL     1      -7.701  11.383  67.804  1.00  0.00    -0.115 C  
HETATM    7  C   UNL     1      -6.562  10.478  67.283  1.00  0.00    -0.072 C  
HETATM    8  C   UNL     1      -8.301  10.676  69.037  1.00  0.00    -0.153 C  
BRANCH   6   9
HETATM    9  C   UNL     1      -7.059  12.740  68.201  1.00  0.00    -0.105 A  
HETATM   10  C   UNL     1      -7.143  13.894  67.401  1.00  0.00    -0.091 A  
HETATM   11  C   UNL     1      -6.557  15.098  67.795  1.00  0.00    -0.186 A  
HETATM   12  C   UNL     1      -5.855  15.183  68.991  1.00  0.00    -0.097 A  
HETATM   13  C   UNL     1      -6.334  12.851  69.406  1.00  0.00    -0.109 A  
HETATM   14  C   UNL     1      -5.733  14.054  69.795  1.00  0.00    -0.108 A  
BRANCH  12  15
HETATM   15  O   UNL     1      -5.306  16.411  69.245  1.00  0.00    -0.118 OA 
BRANCH  15  16
HETATM   16  C   UNL     1      -6.208  17.424  69.666  1.00  0.00    -0.233 C  
BRANCH  16  17
HETATM   17  C   UNL     1      -5.646  18.775  69.216  1.00  0.00    -0.210 C  
BRANCH  17  18
HETATM   18  O   UNL     1      -6.252  19.334  68.045  1.00  0.00    -0.208 OA 
BRANCH  18  19
HETATM   19  C   UNL     1      -7.670  19.250  67.945  1.00  0.00    -0.283 C  
BRANCH  19  20
HETATM   20  C   UNL     1      -8.108  18.575  66.638  1.00  0.00    -0.264 C  
BRANCH  20  21
HETATM   21  N   UNL     1      -9.432  17.800  66.703  1.00  0.00    -0.283 N  
HETATM   22  C   UNL     1      -9.797  17.675  68.188  1.00  0.00    -0.318 C  
HETATM   23  C   UNL     1     -10.540  18.586  66.011  1.00  0.00    -0.331 C  
BRANCH  21  24
HETATM   24  C   UNL     1      -9.261  16.387  66.083  1.00  0.00    -0.330 C  
BRANCH  24  25
HETATM   25  C   UNL     1     -10.534  15.602  65.914  1.00  0.00    -0.358 A  
HETATM   26  C   UNL     1     -11.041  14.848  66.984  1.00  0.00    -0.338 A  
HETATM   27  C   UNL     1     -12.129  13.999  66.794  1.00  0.00    -0.480 A  
HETATM   28  C   UNL     1     -12.733  13.910  65.543  1.00  0.00    -0.536 A  
HETATM   29  C   UNL     1     -12.278  14.698  64.489  1.00  0.00    -0.473 A  
HETATM   30  C   UNL     1     -11.191  15.552  64.675  1.00  0.00    -0.381 A  
ENDBRANCH  24  25
ENDBRANCH  21  24
ENDBRANCH  20  21
ENDBRANCH  19  20
ENDBRANCH  18  19
ENDBRANCH  17  18
ENDBRANCH  16  17
ENDBRANCH  15  16
ENDBRANCH  12  15
ENDBRANCH   6   9
ENDBRANCH   5   6
ENDBRANCH   2   5
TORSDOF 12
ENDMDL
MODEL       78
REMARK 921   NORMALIZED FREE ENERGY PREDICTED BY IDOCK:   -4.86 KCAL/MOL
REMARK 922        TOTAL FREE ENERGY PREDICTED BY IDOCK:   -9.54 KCAL/MOL
REMARK 923 INTER-LIGAND FREE ENERGY PREDICTED BY IDOCK:   -8.51 KCAL/MOL
REMARK 924 INTRA-LIGAND FREE ENERGY PREDICTED BY IDOCK:   -1.03 KCAL/MOL
REMARK 927      BINDING AFFINITY PREDICTED BY RF-SCORE:    0.00 PKD
ROOT
HETATM    1  C   UNL     1     -10.681   7.193  67.074  1.00  0.00    -0.420 C  
HETATM    2  C   UNL     1     -10.026   6.641  68.347  1.00  0.00    -0.146 C  
HETATM    3  C   UNL     1     -11.108   6.192  69.339  1.00  0.00    -0.479 C  
HETATM    4  C   UNL     1      -9.250   5.364  67.926  1.00  0.00    -0.117 C  
ENDROOT
BRANCH   2   5
HETATM    5  C   UNL     1      -8.990   7.626  68.982  1.00  0.00    -0.137 C  
BRANCH   5   6
HETATM    6  C   UNL     1      -9.358   8.996  69.669  1.00  0.00    -0.169 C  
HETATM    7  C   UNL     1      -9.006   9.027  71.174  1.00  0.00    -0.303 C  
HETATM    8  C   UNL     1     -10.862   9.320  69.557  1.00  0.00    -0.211 C  
BRANCH   6   9
HETATM    9  C   UNL     1      -8.501  10.092  68.978  1.00  0.00    -0.151 A  
HETATM   10  C   UNL     1      -7.435  10.751  69.616  1.00  0.00    -0.082 A  
HETATM   11  C   UNL     1      -6.685  11.728  68.959  1.00  0.00    -0.102 A  
HETATM   12  C   UNL     1      -6.986  12.089  67.651  1.00  0.00    -0.118 A  
HETATM   13  C   UNL     1      -8.792  10.483  67.654  1.00  0.00    -0.131 A  
HETATM   14  C   UNL     1      -8.049  11.472  67.000  1.00  0.00    -0.161 A  
BRANCH  12  15
HETATM   15  O   UNL     1      -6.193  13.077  67.135  1.00  0.00    -0.286 OA 
BRANCH  15  16
HETATM   16  C   UNL     1      -6.133  14.284  67.882  1.00  0.00    -0.148 C  
BRANCH  16  17
HETATM   17  C   UNL     1      -7.241  15.211  67.374  1.00  0.00    -0.199 C  
BRANCH  17  18
HETATM   18  O   UNL     1      -7.950  15.935  68.386  1.00  0.00    -0.139 OA 
BRANCH  18  19
HETATM   19  C   UNL     1      -8.953  15.228  69.108  1.00  0.00    -0.233 C  
BRANCH  19  20
HETATM   20  C   UNL     1      -9.809  14.354  68.181  1.00  0.00    -0.223 C  
BRANCH  20  21
HETATM   21  N   UNL     1     -11.317  14.363  68.470  1.00  0.00    -0.267 N  
HETATM   22  C   UNL     1     -12.027  14.277  67.113  1.00  0.00    -0.417 C  
HETATM   23  C   UNL     1     -11.708  13.136  69.285  1.00  0.00    -0.321 C  
BRANCH  21  24
HETATM   24  C   UNL     1     -11.720  15.678  69.189  1.00  0.00    -0.390 C  
BRANCH  24  25
HETATM   25  C   UNL     1     -12.276  15.507  70.577  1.00  0.00    -0.444 A  
HETATM   26  C   UNL     1     -13.656  15.325  70.763  1.00  0.00    -0.313 A  
HETATM   27  C   UNL     1     -14.199  15.318  72.046  1.00  0.00    -0.679 A  
HETATM   28  C   UNL     1     -13.370  15.472  73.154  1.00  0.00    -0.632 A  
HETATM   29  C   UNL     1     -11.993  15.594  72.986  1.00  0.00    -0.590 A  
HETATM   30  C   UNL     1     -11.444  15.597  71.704  1.00  0.00    -0.506 A  
ENDBRANCH  24  25
ENDBRANCH  21  24
ENDBRANCH  20  21
ENDBRANCH  19  20
ENDBRANCH  18  19
ENDBRANCH  17  18
ENDBRANCH  16  17
ENDBRANCH  15  16
ENDBRANCH  12  15
ENDBRANCH   6   9
ENDBRANCH   5   6
ENDBRANCH   2   5
TORSDOF 12
ENDMDL
MODEL       79
REMARK 921   NORMALIZED FREE ENERGY PREDICTED BY IDOCK:   -4.85 KCAL/MOL
REMARK 922        TOTAL FREE ENERGY PREDICTED BY IDOCK:   -9.52 KCAL/MOL
REMARK 923 INTER-LIGAND FREE ENERGY PREDICTED BY IDOCK:   -8.25 KCAL/MOL
REMARK 924 INTRA-LIGAND FREE ENERGY PREDICTED BY IDOCK:   -1.28 KCAL/MOL
REMARK 927      BINDING AFFINITY PREDICTED BY RF-SCORE:    0.00 PKD
ROOT
HETATM    1  C   UNL     1      -9.736  20.543  67.425  1.00  0.00    -0.587 C  
HETATM    2  C   UNL     1      -9.014  19.193  67.526  1.00  0.00    -0.332 C  
HETATM    3  C   UNL     1      -8.029  19.040  66.358  1.00  0.00    -0.300 C  
HETATM    4  C   UNL     1      -8.163  19.245  68.823  1.00  0.00    -0.390 C  
ENDROOT
BRANCH   2   5
HETATM    5  C   UNL     1      -9.992  17.981  67.660  1.00  0.00    -0.332 C  
BRANCH   5   6
HETATM    6  C   UNL     1      -9.546  16.491  67.918  1.00  0.00    -0.233 C  
HETATM    7  C   UNL     1      -9.751  16.048  69.384  1.00  0.00    -0.248 C  
HETATM    8  C   UNL     1      -8.056  16.263  67.589  1.00  0.00    -0.161 C  
BRANCH   6   9
HETATM    9  C   UNL     1     -10.453  15.588  67.038  1.00  0.00    -0.304 A  
HETATM   10  C   UNL     1     -11.272  14.574  67.564  1.00  0.00    -0.333 A  
HETATM   11  C   UNL     1     -12.077  13.787  66.740  1.00  0.00    -0.460 A  
HETATM   12  C   UNL     1     -12.079  13.977  65.363  1.00  0.00    -0.401 A  
HETATM   13  C   UNL     1     -10.465  15.755  65.637  1.00  0.00    -0.402 A  
HETATM   14  C   UNL     1     -11.262  14.957  64.808  1.00  0.00    -0.393 A  
BRANCH  12  15
HETATM   15  O   UNL     1     -12.890  13.122  64.669  1.00  0.00    -0.693 OA 
BRANCH  15  16
HETATM   16  C   UNL     1     -12.433  12.734  63.381  1.00  0.00    -0.339 C  
BRANCH  16  17
HETATM   17  C   UNL     1     -11.578  11.475  63.542  1.00  0.00    -0.192 C  
BRANCH  17  18
HETATM   18  O   UNL     1     -10.161  11.687  63.536  1.00  0.00    -0.353 OA 
BRANCH  18  19
HETATM   19  C   UNL     1      -9.452  11.359  64.726  1.00  0.00    -0.153 C  
BRANCH  19  20
HETATM   20  C   UNL     1     -10.387  10.808  65.811  1.00  0.00    -0.230 C  
BRANCH  20  21
HETATM   21  N   UNL     1      -9.717   9.937  66.883  1.00  0.00    -0.178 N  
HETATM   22  C   UNL     1     -10.237  10.429  68.240  1.00  0.00    -0.160 C  
HETATM   23  C   UNL     1     -10.134   8.480  66.719  1.00  0.00    -0.299 C  
BRANCH  21  24
HETATM   24  C   UNL     1      -8.175  10.099  66.822  1.00  0.00    -0.122 C  
BRANCH  24  25
HETATM   25  C   UNL     1      -7.575  10.957  67.904  1.00  0.00    -0.095 A  
HETATM   26  C   UNL     1      -7.527  12.351  67.749  1.00  0.00    -0.126 A  
HETATM   27  C   UNL     1      -6.841  13.139  68.670  1.00  0.00    -0.099 A  
HETATM   28  C   UNL     1      -6.214  12.547  69.763  1.00  0.00    -0.113 A  
HETATM   29  C   UNL     1      -6.305  11.172  69.961  1.00  0.00    -0.147 A  
HETATM   30  C   UNL     1      -6.995  10.379  69.044  1.00  0.00    -0.071 A  
ENDBRANCH  24  25
ENDBRANCH  21  24
ENDBRANCH  20  21
ENDBRANCH  19  20
ENDBRANCH  18  19
ENDBRANCH  17  18
ENDBRANCH  16  17
ENDBRANCH  15  16
ENDBRANCH  12  15
ENDBRANCH   6   9
ENDBRANCH   5   6
ENDBRANCH   2   5
TORSDOF 12
ENDMDL
MODEL       80
REMARK 921   NORMALIZED FREE ENERGY PREDICTED BY IDOCK:   -4.85 KCAL/MOL
REMARK 922        TOTAL FREE ENERGY PREDICTED BY IDOCK:   -9.51 KCAL/MOL
REMARK 923 INTER-LIGAND FREE ENERGY PREDICTED BY IDOCK:   -9.23 KCAL/MOL
REMARK 924 INTRA-LIGAND FREE ENERGY PREDICTED BY IDOCK:   -0.29 KCAL/MOL
REMARK 927      BINDING AFFINITY PREDICTED BY RF-SCORE:    0.00 PKD
ROOT
HETATM    1  C   UNL     1     -10.535   4.310  72.731  1.00  0.00    -0.249 C  
HETATM    2  C   UNL     1      -9.540   4.793  71.668  1.00  0.00    -0.216 C  
HETATM    3  C   UNL     1      -8.740   3.603  71.122  1.00  0.00    -0.122 C  
HETATM    4  C   UNL     1     -10.388   5.340  70.487  1.00  0.00    -0.336 C  
ENDROOT
BRANCH   2   5
HETATM    5  C   UNL     1      -8.629   5.963  72.165  1.00  0.00    -0.129 C  
BRANCH   5   6
HETATM    6  C   UNL     1      -9.063   7.054  73.217  1.00  0.00    -0.164 C  
HETATM    7  C   UNL     1      -7.874   7.896  73.734  1.00  0.00    -0.223 C  
HETATM    8  C   UNL     1      -9.740   6.434  74.457  1.00  0.00    -0.329 C  
BRANCH   6   9
HETATM    9  C   UNL     1     -10.028   8.028  72.487  1.00  0.00    -0.338 A  
HETATM   10  C   UNL     1      -9.637   8.825  71.396  1.00  0.00    -0.337 A  
HETATM   11  C   UNL     1     -10.536   9.684  70.763  1.00  0.00    -0.392 A  
HETATM   12  C   UNL     1     -11.849   9.786  71.208  1.00  0.00    -0.399 A  
HETATM   13  C   UNL     1     -11.363   8.157  72.925  1.00  0.00    -0.301 A  
HETATM   14  C   UNL     1     -12.261   9.028  72.299  1.00  0.00    -0.387 A  
BRANCH  12  15
HETATM   15  O   UNL     1     -12.617  10.684  70.519  1.00  0.00    -0.332 OA 
BRANCH  15  16
HETATM   16  C   UNL     1     -12.215  12.045  70.603  1.00  0.00    -0.316 C  
BRANCH  16  17
HETATM   17  C   UNL     1     -11.998  12.562  69.179  1.00  0.00    -0.236 C  
BRANCH  17  18
HETATM   18  O   UNL     1     -11.927  11.555  68.162  1.00  0.00    -0.571 OA 
BRANCH  18  19
HETATM   19  C   UNL     1     -10.873  11.667  67.212  1.00  0.00    -0.256 C  
BRANCH  19  20
HETATM   20  C   UNL     1     -11.392  11.547  65.772  1.00  0.00    -0.095 C  
BRANCH  20  21
HETATM   21  N   UNL     1     -11.573  12.874  65.022  1.00  0.00    -0.318 N  
HETATM   22  C   UNL     1     -12.191  12.531  63.660  1.00  0.00    -0.550 C  
HETATM   23  C   UNL     1     -12.549  13.776  65.768  1.00  0.00    -0.480 C  
BRANCH  21  24
HETATM   24  C   UNL     1     -10.200  13.568  64.815  1.00  0.00    -0.332 C  
BRANCH  24  25
HETATM   25  C   UNL     1      -9.946  14.764  65.692  1.00  0.00    -0.390 A  
HETATM   26  C   UNL     1      -9.293  14.605  66.924  1.00  0.00    -0.258 A  
HETATM   27  C   UNL     1      -9.188  15.675  67.810  1.00  0.00    -0.193 A  
HETATM   28  C   UNL     1      -9.715  16.917  67.466  1.00  0.00    -0.249 A  
HETATM   29  C   UNL     1     -10.312  17.104  66.222  1.00  0.00    -0.315 A  
HETATM   30  C   UNL     1     -10.415  16.037  65.330  1.00  0.00    -0.415 A  
ENDBRANCH  24  25
ENDBRANCH  21  24
ENDBRANCH  20  21
ENDBRANCH  19  20
ENDBRANCH  18  19
ENDBRANCH  17  18
ENDBRANCH  16  17
ENDBRANCH  15  16
ENDBRANCH  12  15
ENDBRANCH   6   9
ENDBRANCH   5   6
ENDBRANCH   2   5
TORSDOF 12
ENDMDL
MODEL       81
REMARK 921   NORMALIZED FREE ENERGY PREDICTED BY IDOCK:   -4.85 KCAL/MOL
REMARK 922        TOTAL FREE ENERGY PREDICTED BY IDOCK:   -9.51 KCAL/MOL
REMARK 923 INTER-LIGAND FREE ENERGY PREDICTED BY IDOCK:   -8.91 KCAL/MOL
REMARK 924 INTRA-LIGAND FREE ENERGY PREDICTED BY IDOCK:   -0.61 KCAL/MOL
REMARK 927      BINDING AFFINITY PREDICTED BY RF-SCORE:    0.00 PKD
ROOT
HETATM    1  C   UNL     1     -10.422  12.568  63.668  1.00  0.00    -0.418 C  
HETATM    2  C   UNL     1     -10.778  12.517  65.159  1.00  0.00    -0.323 C  
HETATM    3  C   UNL     1     -12.289  12.717  65.342  1.00  0.00    -0.528 C  
HETATM    4  C   UNL     1     -10.459  11.076  65.640  1.00  0.00    -0.293 C  
ENDROOT
BRANCH   2   5
HETATM    5  C   UNL     1      -9.925  13.497  66.029  1.00  0.00    -0.308 C  
BRANCH   5   6
HETATM    6  C   UNL     1     -10.181  15.048  66.147  1.00  0.00    -0.311 C  
HETATM    7  C   UNL     1     -11.211  15.567  65.119  1.00  0.00    -0.322 C  
HETATM    8  C   UNL     1      -8.892  15.870  65.937  1.00  0.00    -0.168 C  
BRANCH   6   9
HETATM    9  C   UNL     1     -10.777  15.302  67.558  1.00  0.00    -0.285 A  
HETATM   10  C   UNL     1     -11.754  14.476  68.141  1.00  0.00    -0.369 A  
HETATM   11  C   UNL     1     -12.262  14.735  69.415  1.00  0.00    -0.251 A  
HETATM   12  C   UNL     1     -11.821  15.835  70.140  1.00  0.00    -0.355 A  
HETATM   13  C   UNL     1     -10.353  16.418  68.311  1.00  0.00    -0.279 A  
HETATM   14  C   UNL     1     -10.872  16.686  69.583  1.00  0.00    -0.282 A  
BRANCH  12  15
HETATM   15  O   UNL     1     -12.419  15.991  71.361  1.00  0.00    -0.446 OA 
BRANCH  15  16
HETATM   16  C   UNL     1     -11.935  15.157  72.405  1.00  0.00    -0.393 C  
BRANCH  16  17
HETATM   17  C   UNL     1     -13.125  14.392  72.989  1.00  0.00    -0.481 C  
BRANCH  17  18
HETATM   18  O   UNL     1     -13.790  13.504  72.083  1.00  0.00    -0.495 OA 
BRANCH  18  19
HETATM   19  C   UNL     1     -13.373  12.142  72.086  1.00  0.00    -0.333 C  
BRANCH  19  20
HETATM   20  C   UNL     1     -12.208  11.904  71.115  1.00  0.00    -0.065 C  
BRANCH  20  21
HETATM   21  N   UNL     1     -12.213  10.548  70.395  1.00  0.00    -0.311 N  
HETATM   22  C   UNL     1     -13.534   9.859  70.761  1.00  0.00    -0.039 C  
HETATM   23  C   UNL     1     -12.189  10.750  68.884  1.00  0.00     0.105 C  
BRANCH  21  24
HETATM   24  C   UNL     1     -11.018   9.680  70.873  1.00  0.00    -0.342 C  
BRANCH  24  25
HETATM   25  C   UNL     1     -10.798   8.408  70.100  1.00  0.00    -0.238 A  
HETATM   26  C   UNL     1     -10.039   8.427  68.919  1.00  0.00    -0.209 A  
HETATM   27  C   UNL     1      -9.956   7.291  68.116  1.00  0.00    -0.181 A  
HETATM   28  C   UNL     1     -10.611   6.122  68.493  1.00  0.00    -0.327 A  
HETATM   29  C   UNL     1     -11.318   6.072  69.693  1.00  0.00    -0.328 A  
HETATM   30  C   UNL     1     -11.401   7.205  70.501  1.00  0.00    -0.333 A  
ENDBRANCH  24  25
ENDBRANCH  21  24
ENDBRANCH  20  21
ENDBRANCH  19  20
ENDBRANCH  18  19
ENDBRANCH  17  18
ENDBRANCH  16  17
ENDBRANCH  15  16
ENDBRANCH  12  15
ENDBRANCH   6   9
ENDBRANCH   5   6
ENDBRANCH   2   5
TORSDOF 12
ENDMDL
MODEL       82
REMARK 921   NORMALIZED FREE ENERGY PREDICTED BY IDOCK:   -4.84 KCAL/MOL
REMARK 922        TOTAL FREE ENERGY PREDICTED BY IDOCK:   -9.51 KCAL/MOL
REMARK 923 INTER-LIGAND FREE ENERGY PREDICTED BY IDOCK:   -8.76 KCAL/MOL
REMARK 924 INTRA-LIGAND FREE ENERGY PREDICTED BY IDOCK:   -0.75 KCAL/MOL
REMARK 927      BINDING AFFINITY PREDICTED BY RF-SCORE:    0.00 PKD
ROOT
HETATM    1  C   UNL     1     -10.768  14.967  64.950  1.00  0.00    -0.420 C  
HETATM    2  C   UNL     1     -11.128  13.591  65.526  1.00  0.00    -0.303 C  
HETATM    3  C   UNL     1     -12.653  13.446  65.616  1.00  0.00    -0.496 C  
HETATM    4  C   UNL     1     -10.640  12.540  64.493  1.00  0.00    -0.363 C  
ENDROOT
BRANCH   2   5
HETATM    5  C   UNL     1     -10.406  13.283  66.878  1.00  0.00    -0.255 C  
BRANCH   5   6
HETATM    6  C   UNL     1     -10.544  14.151  68.188  1.00  0.00    -0.249 C  
HETATM    7  C   UNL     1     -11.343  15.454  67.964  1.00  0.00    -0.345 C  
HETATM    8  C   UNL     1      -9.173  14.562  68.763  1.00  0.00    -0.162 C  
BRANCH   6   9
HETATM    9  C   UNL     1     -11.341  13.298  69.213  1.00  0.00    -0.311 A  
HETATM   10  C   UNL     1     -11.401  11.894  69.164  1.00  0.00    -0.338 A  
HETATM   11  C   UNL     1     -12.125  11.163  70.108  1.00  0.00    -0.443 A  
HETATM   12  C   UNL     1     -12.824  11.811  71.119  1.00  0.00    -0.267 A  
HETATM   13  C   UNL     1     -12.067  13.932  70.243  1.00  0.00    -0.423 A  
HETATM   14  C   UNL     1     -12.805  13.201  71.181  1.00  0.00    -0.349 A  
BRANCH  12  15
HETATM   15  O   UNL     1     -13.515  10.981  71.958  1.00  0.00    -0.378 OA 
BRANCH  15  16
HETATM   16  C   UNL     1     -12.962   9.686  72.151  1.00  0.00    -0.406 C  
BRANCH  16  17
HETATM   17  C   UNL     1     -14.065   8.657  71.887  1.00  0.00    -0.443 C  
BRANCH  17  18
HETATM   18  O   UNL     1     -13.671   7.518  71.113  1.00  0.00    -0.285 OA 
BRANCH  18  19
HETATM   19  C   UNL     1     -12.530   6.793  71.559  1.00  0.00    -0.341 C  
BRANCH  19  20
HETATM   20  C   UNL     1     -11.464   6.681  70.461  1.00  0.00    -0.376 C  
BRANCH  20  21
HETATM   21  N   UNL     1     -10.015   6.552  70.954  1.00  0.00    -0.184 N  
HETATM   22  C   UNL     1      -9.747   7.763  71.856  1.00  0.00    -0.169 C  
HETATM   23  C   UNL     1      -9.853   5.292  71.797  1.00  0.00    -0.170 C  
BRANCH  21  24
HETATM   24  C   UNL     1      -9.033   6.565  69.752  1.00  0.00    -0.142 C  
BRANCH  24  25
HETATM   25  C   UNL     1      -9.483   5.785  68.546  1.00  0.00    -0.141 A  
HETATM   26  C   UNL     1      -9.148   4.428  68.423  1.00  0.00    -0.165 A  
HETATM   27  C   UNL     1      -9.426   3.737  67.246  1.00  0.00    -0.238 A  
HETATM   28  C   UNL     1     -10.058   4.388  66.190  1.00  0.00    -0.257 A  
HETATM   29  C   UNL     1     -10.450   5.718  66.321  1.00  0.00    -0.131 A  
HETATM   30  C   UNL     1     -10.177   6.412  67.500  1.00  0.00    -0.211 A  
ENDBRANCH  24  25
ENDBRANCH  21  24
ENDBRANCH  20  21
ENDBRANCH  19  20
ENDBRANCH  18  19
ENDBRANCH  17  18
ENDBRANCH  16  17
ENDBRANCH  15  16
ENDBRANCH  12  15
ENDBRANCH   6   9
ENDBRANCH   5   6
ENDBRANCH   2   5
TORSDOF 12
ENDMDL
MODEL       83
REMARK 921   NORMALIZED FREE ENERGY PREDICTED BY IDOCK:   -4.84 KCAL/MOL
REMARK 922        TOTAL FREE ENERGY PREDICTED BY IDOCK:   -9.50 KCAL/MOL
REMARK 923 INTER-LIGAND FREE ENERGY PREDICTED BY IDOCK:   -8.66 KCAL/MOL
REMARK 924 INTRA-LIGAND FREE ENERGY PREDICTED BY IDOCK:   -0.84 KCAL/MOL
REMARK 927      BINDING AFFINITY PREDICTED BY RF-SCORE:    0.00 PKD
ROOT
HETATM    1  C   UNL     1      -9.502   5.577  71.777  1.00  0.00    -0.175 C  
HETATM    2  C   UNL     1     -10.312   6.029  72.999  1.00  0.00    -0.224 C  
HETATM    3  C   UNL     1     -11.404   4.997  73.313  1.00  0.00    -0.393 C  
HETATM    4  C   UNL     1      -9.333   6.021  74.204  1.00  0.00    -0.143 C  
ENDROOT
BRANCH   2   5
HETATM    5  C   UNL     1     -10.870   7.483  72.864  1.00  0.00    -0.425 C  
BRANCH   5   6
HETATM    6  C   UNL     1     -11.663   8.028  71.615  1.00  0.00    -0.325 C  
HETATM    7  C   UNL     1     -12.449   9.323  71.921  1.00  0.00    -0.457 C  
HETATM    8  C   UNL     1     -12.685   7.004  71.081  1.00  0.00    -0.361 C  
BRANCH   6   9
HETATM    9  C   UNL     1     -10.610   8.380  70.529  1.00  0.00    -0.236 A  
HETATM   10  C   UNL     1     -10.654   7.866  69.221  1.00  0.00    -0.195 A  
HETATM   11  C   UNL     1      -9.691   8.211  68.271  1.00  0.00    -0.175 A  
HETATM   12  C   UNL     1      -8.646   9.065  68.601  1.00  0.00    -0.129 A  
HETATM   13  C   UNL     1      -9.535   9.238  70.842  1.00  0.00    -0.330 A  
HETATM   14  C   UNL     1      -8.561   9.572  69.894  1.00  0.00    -0.217 A  
BRANCH  12  15
HETATM   15  O   UNL     1      -7.757   9.298  67.589  1.00  0.00    -0.091 OA 
BRANCH  15  16
HETATM   16  C   UNL     1      -8.319   9.611  66.322  1.00  0.00    -0.116 C  
BRANCH  16  17
HETATM   17  C   UNL     1      -8.491  11.130  66.242  1.00  0.00    -0.168 C  
BRANCH  17  18
HETATM   18  O   UNL     1      -9.844  11.600  66.294  1.00  0.00    -0.207 OA 
BRANCH  18  19
HETATM   19  C   UNL     1     -10.114  12.704  67.152  1.00  0.00    -0.223 C  
BRANCH  19  20
HETATM   20  C   UNL     1      -9.197  13.897  66.846  1.00  0.00    -0.259 C  
BRANCH  20  21
HETATM   21  N   UNL     1      -9.912  15.202  66.469  1.00  0.00    -0.255 N  
HETATM   22  C   UNL     1     -10.701  14.919  65.184  1.00  0.00    -0.411 C  
HETATM   23  C   UNL     1     -10.907  15.594  67.556  1.00  0.00    -0.316 C  
BRANCH  21  24
HETATM   24  C   UNL     1      -8.876  16.329  66.212  1.00  0.00    -0.331 C  
BRANCH  24  25
HETATM   25  C   UNL     1      -9.267  17.690  66.721  1.00  0.00    -0.281 A  
HETATM   26  C   UNL     1      -8.779  18.144  67.957  1.00  0.00    -0.276 A  
HETATM   27  C   UNL     1      -9.253  19.332  68.508  1.00  0.00    -0.434 A  
HETATM   28  C   UNL     1     -10.201  20.088  67.824  1.00  0.00    -0.549 A  
HETATM   29  C   UNL     1     -10.649  19.680  66.569  1.00  0.00    -0.591 A  
HETATM   30  C   UNL     1     -10.174  18.493  66.012  1.00  0.00    -0.371 A  
ENDBRANCH  24  25
ENDBRANCH  21  24
ENDBRANCH  20  21
ENDBRANCH  19  20
ENDBRANCH  18  19
ENDBRANCH  17  18
ENDBRANCH  16  17
ENDBRANCH  15  16
ENDBRANCH  12  15
ENDBRANCH   6   9
ENDBRANCH   5   6
ENDBRANCH   2   5
TORSDOF 12
ENDMDL
MODEL       84
REMARK 921   NORMALIZED FREE ENERGY PREDICTED BY IDOCK:   -4.83 KCAL/MOL
REMARK 922        TOTAL FREE ENERGY PREDICTED BY IDOCK:   -9.49 KCAL/MOL
REMARK 923 INTER-LIGAND FREE ENERGY PREDICTED BY IDOCK:   -7.49 KCAL/MOL
REMARK 924 INTRA-LIGAND FREE ENERGY PREDICTED BY IDOCK:   -2.00 KCAL/MOL
REMARK 927      BINDING AFFINITY PREDICTED BY RF-SCORE:    0.00 PKD
ROOT
HETATM    1  C   UNL     1     -11.003   6.024  68.729  1.00  0.00    -0.384 C  
HETATM    2  C   UNL     1      -9.896   5.895  69.783  1.00  0.00    -0.217 C  
HETATM    3  C   UNL     1      -9.959   4.509  70.439  1.00  0.00    -0.284 C  
HETATM    4  C   UNL     1      -8.548   5.965  69.016  1.00  0.00    -0.114 C  
ENDROOT
BRANCH   2   5
HETATM    5  C   UNL     1      -9.900   7.062  70.824  1.00  0.00    -0.190 C  
BRANCH   5   6
HETATM    6  C   UNL     1     -11.194   7.664  71.493  1.00  0.00    -0.277 C  
HETATM    7  C   UNL     1     -11.070   7.795  73.028  1.00  0.00    -0.419 C  
HETATM    8  C   UNL     1     -12.446   6.807  71.219  1.00  0.00    -0.365 C  
BRANCH   6   9
HETATM    9  C   UNL     1     -11.370   9.100  70.926  1.00  0.00    -0.359 A  
HETATM   10  C   UNL     1     -10.554   9.632  69.912  1.00  0.00    -0.281 A  
HETATM   11  C   UNL     1     -10.747  10.926  69.425  1.00  0.00    -0.265 A  
HETATM   12  C   UNL     1     -11.751  11.734  69.946  1.00  0.00    -0.323 A  
HETATM   13  C   UNL     1     -12.375   9.943  71.444  1.00  0.00    -0.498 A  
HETATM   14  C   UNL     1     -12.561  11.246  70.966  1.00  0.00    -0.495 A  
BRANCH  12  15
HETATM   15  O   UNL     1     -11.815  12.987  69.401  1.00  0.00    -0.306 OA 
BRANCH  15  16
HETATM   16  C   UNL     1     -11.848  13.052  67.983  1.00  0.00    -0.347 C  
BRANCH  16  17
HETATM   17  C   UNL     1     -10.648  13.882  67.519  1.00  0.00    -0.256 C  
BRANCH  17  18
HETATM   18  O   UNL     1      -9.964  14.605  68.550  1.00  0.00    -0.222 OA 
BRANCH  18  19
HETATM   19  C   UNL     1      -8.558  14.410  68.654  1.00  0.00    -0.161 C  
BRANCH  19  20
HETATM   20  C   UNL     1      -8.008  13.601  67.472  1.00  0.00    -0.182 C  
BRANCH  20  21
HETATM   21  N   UNL     1      -6.818  12.684  67.793  1.00  0.00    -0.111 N  
HETATM   22  C   UNL     1      -5.581  13.585  67.892  1.00  0.00    -0.116 C  
HETATM   23  C   UNL     1      -7.020  12.010  69.145  1.00  0.00    -0.066 C  
BRANCH  21  24
HETATM   24  C   UNL     1      -6.619  11.642  66.660  1.00  0.00    -0.040 C  
BRANCH  24  25
HETATM   25  C   UNL     1      -7.794  10.736  66.406  1.00  0.00    -0.148 A  
HETATM   26  C   UNL     1      -8.896  11.204  65.673  1.00  0.00    -0.165 A  
HETATM   27  C   UNL     1     -10.048  10.430  65.563  1.00  0.00    -0.352 A  
HETATM   28  C   UNL     1     -10.105   9.176  66.164  1.00  0.00    -0.278 A  
HETATM   29  C   UNL     1      -8.997   8.675  66.843  1.00  0.00    -0.161 A  
HETATM   30  C   UNL     1      -7.840   9.445  66.953  1.00  0.00    -0.105 A  
ENDBRANCH  24  25
ENDBRANCH  21  24
ENDBRANCH  20  21
ENDBRANCH  19  20
ENDBRANCH  18  19
ENDBRANCH  17  18
ENDBRANCH  16  17
ENDBRANCH  15  16
ENDBRANCH  12  15
ENDBRANCH   6   9
ENDBRANCH   5   6
ENDBRANCH   2   5
TORSDOF 12
ENDMDL
MODEL       85
REMARK 921   NORMALIZED FREE ENERGY PREDICTED BY IDOCK:   -4.83 KCAL/MOL
REMARK 922        TOTAL FREE ENERGY PREDICTED BY IDOCK:   -9.48 KCAL/MOL
REMARK 923 INTER-LIGAND FREE ENERGY PREDICTED BY IDOCK:   -8.70 KCAL/MOL
REMARK 924 INTRA-LIGAND FREE ENERGY PREDICTED BY IDOCK:   -0.78 KCAL/MOL
REMARK 927      BINDING AFFINITY PREDICTED BY RF-SCORE:    0.00 PKD
ROOT
HETATM    1  C   UNL     1      -9.105   2.134  71.126  1.00  0.00    -0.162 C  
HETATM    2  C   UNL     1      -9.416   3.182  72.202  1.00  0.00    -0.195 C  
HETATM    3  C   UNL     1     -10.234   2.543  73.333  1.00  0.00    -0.201 C  
HETATM    4  C   UNL     1      -8.054   3.599  72.818  1.00  0.00    -0.081 C  
ENDROOT
BRANCH   2   5
HETATM    5  C   UNL     1     -10.080   4.476  71.626  1.00  0.00    -0.249 C  
BRANCH   5   6
HETATM    6  C   UNL     1     -10.793   5.582  72.495  1.00  0.00    -0.302 C  
HETATM    7  C   UNL     1     -10.052   5.876  73.818  1.00  0.00    -0.223 C  
HETATM    8  C   UNL     1     -12.236   5.189  72.871  1.00  0.00     0.164 C  
BRANCH   6   9
HETATM    9  C   UNL     1     -10.775   6.892  71.661  1.00  0.00    -0.246 A  
HETATM   10  C   UNL     1     -10.910   8.170  72.233  1.00  0.00    -0.388 A  
HETATM   11  C   UNL     1     -10.883   9.325  71.449  1.00  0.00    -0.434 A  
HETATM   12  C   UNL     1     -10.736   9.240  70.070  1.00  0.00    -0.232 A  
HETATM   13  C   UNL     1     -10.637   6.832  70.258  1.00  0.00    -0.251 A  
HETATM   14  C   UNL     1     -10.624   7.989  69.471  1.00  0.00    -0.216 A  
BRANCH  12  15
HETATM   15  O   UNL     1     -10.755  10.442  69.419  1.00  0.00    -0.211 OA 
BRANCH  15  16
HETATM   16  C   UNL     1      -9.976  10.523  68.233  1.00  0.00    -0.159 C  
BRANCH  16  17
HETATM   17  C   UNL     1     -10.930  10.729  67.054  1.00  0.00    -0.227 C  
BRANCH  17  18
HETATM   18  O   UNL     1     -11.960  11.704  67.258  1.00  0.00    -0.627 OA 
BRANCH  18  19
HETATM   19  C   UNL     1     -11.858  12.918  66.522  1.00  0.00    -0.407 C  
BRANCH  19  20
HETATM   20  C   UNL     1     -12.144  14.141  67.404  1.00  0.00    -0.344 C  
BRANCH  20  21
HETATM   21  N   UNL     1     -10.913  14.789  68.056  1.00  0.00    -0.263 N  
HETATM   22  C   UNL     1      -9.712  14.451  67.164  1.00  0.00    -0.248 C  
HETATM   23  C   UNL     1     -11.066  16.305  68.086  1.00  0.00    -0.329 C  
BRANCH  21  24
HETATM   24  C   UNL     1     -10.690  14.210  69.479  1.00  0.00    -0.018 C  
BRANCH  24  25
HETATM   25  C   UNL     1     -11.905  14.199  70.367  1.00  0.00    -0.367 A  
HETATM   26  C   UNL     1     -12.492  15.410  70.767  1.00  0.00    -0.476 A  
HETATM   27  C   UNL     1     -13.520  15.417  71.708  1.00  0.00    -0.581 A  
HETATM   28  C   UNL     1     -13.985  14.218  72.241  1.00  0.00    -0.629 A  
HETATM   29  C   UNL     1     -13.452  13.006  71.808  1.00  0.00    -0.401 A  
HETATM   30  C   UNL     1     -12.426  12.994  70.863  1.00  0.00    -0.396 A  
ENDBRANCH  24  25
ENDBRANCH  21  24
ENDBRANCH  20  21
ENDBRANCH  19  20
ENDBRANCH  18  19
ENDBRANCH  17  18
ENDBRANCH  16  17
ENDBRANCH  15  16
ENDBRANCH  12  15
ENDBRANCH   6   9
ENDBRANCH   5   6
ENDBRANCH   2   5
TORSDOF 12
ENDMDL
MODEL       86
REMARK 921   NORMALIZED FREE ENERGY PREDICTED BY IDOCK:   -4.82 KCAL/MOL
REMARK 922        TOTAL FREE ENERGY PREDICTED BY IDOCK:   -9.47 KCAL/MOL
REMARK 923 INTER-LIGAND FREE ENERGY PREDICTED BY IDOCK:   -8.10 KCAL/MOL
REMARK 924 INTRA-LIGAND FREE ENERGY PREDICTED BY IDOCK:   -1.37 KCAL/MOL
REMARK 927      BINDING AFFINITY PREDICTED BY RF-SCORE:    0.00 PKD
ROOT
HETATM    1  C   UNL     1      -7.816   9.555  70.454  1.00  0.00    -0.190 C  
HETATM    2  C   UNL     1      -8.632   8.513  71.229  1.00  0.00    -0.219 C  
HETATM    3  C   UNL     1      -8.722   7.212  70.420  1.00  0.00    -0.150 C  
HETATM    4  C   UNL     1      -7.821   8.185  72.512  1.00  0.00    -0.182 C  
ENDROOT
BRANCH   2   5
HETATM    5  C   UNL     1     -10.030   9.042  71.687  1.00  0.00    -0.383 C  
BRANCH   5   6
HETATM    6  C   UNL     1     -11.365   8.879  70.865  1.00  0.00    -0.336 C  
HETATM    7  C   UNL     1     -12.615   9.338  71.650  1.00  0.00    -0.446 C  
HETATM    8  C   UNL     1     -11.617   7.416  70.444  1.00  0.00    -0.210 C  
BRANCH   6   9
HETATM    9  C   UNL     1     -11.245   9.801  69.620  1.00  0.00    -0.216 A  
HETATM   10  C   UNL     1     -10.784   9.350  68.370  1.00  0.00    -0.213 A  
HETATM   11  C   UNL     1     -10.695  10.209  67.274  1.00  0.00    -0.316 A  
HETATM   12  C   UNL     1     -11.049  11.547  67.394  1.00  0.00    -0.282 A  
HETATM   13  C   UNL     1     -11.589  11.165  69.718  1.00  0.00    -0.409 A  
HETATM   14  C   UNL     1     -11.487  12.030  68.623  1.00  0.00    -0.350 A  
BRANCH  12  15
HETATM   15  O   UNL     1     -10.888  12.285  66.253  1.00  0.00    -0.260 OA 
BRANCH  15  16
HETATM   16  C   UNL     1     -12.040  12.429  65.434  1.00  0.00    -0.365 C  
BRANCH  16  17
HETATM   17  C   UNL     1     -11.675  13.341  64.261  1.00  0.00    -0.407 C  
BRANCH  17  18
HETATM   18  O   UNL     1     -11.954  14.733  64.453  1.00  0.00    -0.451 OA 
BRANCH  18  19
HETATM   19  C   UNL     1     -10.880  15.554  64.900  1.00  0.00    -0.427 C  
BRANCH  19  20
HETATM   20  C   UNL     1     -10.975  15.842  66.405  1.00  0.00    -0.159 C  
BRANCH  20  21
HETATM   21  N   UNL     1     -10.023  16.925  66.933  1.00  0.00    -0.270 N  
HETATM   22  C   UNL     1     -10.382  18.224  66.201  1.00  0.00    -0.398 C  
HETATM   23  C   UNL     1     -10.249  17.147  68.424  1.00  0.00    -0.340 C  
BRANCH  21  24
HETATM   24  C   UNL     1      -8.550  16.541  66.630  1.00  0.00    -0.254 C  
BRANCH  24  25
HETATM   25  C   UNL     1      -7.940  15.538  67.572  1.00  0.00    -0.189 A  
HETATM   26  C   UNL     1      -6.955  15.943  68.487  1.00  0.00    -0.122 A  
HETATM   27  C   UNL     1      -6.277  15.000  69.256  1.00  0.00    -0.111 A  
HETATM   28  C   UNL     1      -6.588  13.649  69.134  1.00  0.00    -0.109 A  
HETATM   29  C   UNL     1      -7.604  13.239  68.274  1.00  0.00    -0.139 A  
HETATM   30  C   UNL     1      -8.289  14.181  67.506  1.00  0.00    -0.194 A  
ENDBRANCH  24  25
ENDBRANCH  21  24
ENDBRANCH  20  21
ENDBRANCH  19  20
ENDBRANCH  18  19
ENDBRANCH  17  18
ENDBRANCH  16  17
ENDBRANCH  15  16
ENDBRANCH  12  15
ENDBRANCH   6   9
ENDBRANCH   5   6
ENDBRANCH   2   5
TORSDOF 12
ENDMDL
MODEL       87
REMARK 921   NORMALIZED FREE ENERGY PREDICTED BY IDOCK:   -4.81 KCAL/MOL
REMARK 922        TOTAL FREE ENERGY PREDICTED BY IDOCK:   -9.44 KCAL/MOL
REMARK 923 INTER-LIGAND FREE ENERGY PREDICTED BY IDOCK:   -8.68 KCAL/MOL
REMARK 924 INTRA-LIGAND FREE ENERGY PREDICTED BY IDOCK:   -0.77 KCAL/MOL
REMARK 927      BINDING AFFINITY PREDICTED BY RF-SCORE:    0.00 PKD
ROOT
HETATM    1  C   UNL     1     -12.332   7.072  70.965  1.00  0.00    -0.402 C  
HETATM    2  C   UNL     1     -12.058   8.340  71.783  1.00  0.00    -0.364 C  
HETATM    3  C   UNL     1     -13.327   8.759  72.539  1.00  0.00    -0.403 C  
HETATM    4  C   UNL     1     -11.007   7.952  72.858  1.00  0.00    -0.452 C  
ENDROOT
BRANCH   2   5
HETATM    5  C   UNL     1     -11.445   9.500  70.932  1.00  0.00    -0.405 C  
BRANCH   5   6
HETATM    6  C   UNL     1     -10.306   9.320  69.857  1.00  0.00    -0.241 C  
HETATM    7  C   UNL     1     -10.258   7.892  69.267  1.00  0.00    -0.216 C  
HETATM    8  C   UNL     1      -8.906   9.610  70.435  1.00  0.00    -0.227 C  
BRANCH   6   9
HETATM    9  C   UNL     1     -10.634  10.286  68.685  1.00  0.00    -0.232 A  
HETATM   10  C   UNL     1     -11.635  11.271  68.757  1.00  0.00    -0.383 A  
HETATM   11  C   UNL     1     -11.896  12.124  67.683  1.00  0.00    -0.316 A  
HETATM   12  C   UNL     1     -11.176  12.011  66.500  1.00  0.00    -0.334 A  
HETATM   13  C   UNL     1      -9.924  10.185  67.470  1.00  0.00    -0.231 A  
HETATM   14  C   UNL     1     -10.195  11.031  66.388  1.00  0.00    -0.284 A  
BRANCH  12  15
HETATM   15  O   UNL     1     -11.550  12.887  65.519  1.00  0.00    -0.326 OA 
BRANCH  15  16
HETATM   16  C   UNL     1     -11.755  14.233  65.927  1.00  0.00    -0.372 C  
BRANCH  16  17
HETATM   17  C   UNL     1     -11.578  15.131  64.700  1.00  0.00    -0.357 C  
BRANCH  17  18
HETATM   18  O   UNL     1     -11.221  16.490  64.979  1.00  0.00    -0.298 OA 
BRANCH  18  19
HETATM   19  C   UNL     1     -10.016  16.708  65.706  1.00  0.00    -0.243 C  
BRANCH  19  20
HETATM   20  C   UNL     1     -10.286  17.359  67.069  1.00  0.00    -0.318 C  
BRANCH  20  21
HETATM   21  N   UNL     1      -9.272  18.426  67.505  1.00  0.00    -0.270 N  
HETATM   22  C   UNL     1      -8.588  18.933  66.229  1.00  0.00    -0.257 C  
HETATM   23  C   UNL     1      -9.988  19.604  68.155  1.00  0.00    -0.437 C  
BRANCH  21  24
HETATM   24  C   UNL     1      -8.214  17.807  68.457  1.00  0.00    -0.296 C  
BRANCH  24  25
HETATM   25  C   UNL     1      -8.084  16.309  68.386  1.00  0.00    -0.183 A  
HETATM   26  C   UNL     1      -7.025  15.729  67.670  1.00  0.00    -0.194 A  
HETATM   27  C   UNL     1      -6.981  14.351  67.470  1.00  0.00    -0.182 A  
HETATM   28  C   UNL     1      -7.980  13.538  67.999  1.00  0.00    -0.151 A  
HETATM   29  C   UNL     1      -9.004  14.095  68.762  1.00  0.00    -0.065 A  
HETATM   30  C   UNL     1      -9.050  15.473  68.968  1.00  0.00    -0.236 A  
ENDBRANCH  24  25
ENDBRANCH  21  24
ENDBRANCH  20  21
ENDBRANCH  19  20
ENDBRANCH  18  19
ENDBRANCH  17  18
ENDBRANCH  16  17
ENDBRANCH  15  16
ENDBRANCH  12  15
ENDBRANCH   6   9
ENDBRANCH   5   6
ENDBRANCH   2   5
TORSDOF 12
ENDMDL
MODEL       88
REMARK 921   NORMALIZED FREE ENERGY PREDICTED BY IDOCK:   -4.80 KCAL/MOL
REMARK 922        TOTAL FREE ENERGY PREDICTED BY IDOCK:   -9.43 KCAL/MOL
REMARK 923 INTER-LIGAND FREE ENERGY PREDICTED BY IDOCK:   -8.74 KCAL/MOL
REMARK 924 INTRA-LIGAND FREE ENERGY PREDICTED BY IDOCK:   -0.69 KCAL/MOL
REMARK 927      BINDING AFFINITY PREDICTED BY RF-SCORE:    0.00 PKD
ROOT
HETATM    1  C   UNL     1      -9.339   7.184  70.155  1.00  0.00    -0.158 C  
HETATM    2  C   UNL     1     -10.475   6.196  69.859  1.00  0.00    -0.294 C  
HETATM    3  C   UNL     1     -10.161   4.834  70.493  1.00  0.00    -0.252 C  
HETATM    4  C   UNL     1     -11.735   6.744  70.582  1.00  0.00    -0.440 C  
ENDROOT
BRANCH   2   5
HETATM    5  C   UNL     1     -10.820   6.094  68.338  1.00  0.00    -0.382 C  
BRANCH   5   6
HETATM    6  C   UNL     1      -9.798   5.680  67.211  1.00  0.00    -0.163 C  
HETATM    7  C   UNL     1     -10.414   4.726  66.162  1.00  0.00    -0.332 C  
HETATM    8  C   UNL     1      -8.555   4.968  67.783  1.00  0.00    -0.103 C  
BRANCH   6   9
HETATM    9  C   UNL     1      -9.397   6.981  66.463  1.00  0.00    -0.201 A  
HETATM   10  C   UNL     1      -8.332   7.045  65.548  1.00  0.00    -0.135 A  
HETATM   11  C   UNL     1      -8.006   8.234  64.892  1.00  0.00    -0.144 A  
HETATM   12  C   UNL     1      -8.723   9.398  65.141  1.00  0.00    -0.181 A  
HETATM   13  C   UNL     1     -10.103   8.178  66.706  1.00  0.00    -0.365 A  
HETATM   14  C   UNL     1      -9.768   9.373  66.060  1.00  0.00    -0.345 A  
BRANCH  12  15
HETATM   15  O   UNL     1      -8.283  10.497  64.456  1.00  0.00    -0.154 OA 
BRANCH  15  16
HETATM   16  C   UNL     1      -8.748  10.628  63.120  1.00  0.00    -0.190 C  
BRANCH  16  17
HETATM   17  C   UNL     1     -10.089  11.365  63.156  1.00  0.00    -0.352 C  
BRANCH  17  18
HETATM   18  O   UNL     1     -10.038  12.713  63.639  1.00  0.00    -0.385 OA 
BRANCH  18  19
HETATM   19  C   UNL     1     -10.936  13.061  64.688  1.00  0.00    -0.342 C  
BRANCH  19  20
HETATM   20  C   UNL     1     -10.219  13.159  66.041  1.00  0.00    -0.286 C  
BRANCH  20  21
HETATM   21  N   UNL     1     -11.134  13.233  67.272  1.00  0.00    -0.272 N  
HETATM   22  C   UNL     1     -12.261  14.214  66.925  1.00  0.00    -0.365 C  
HETATM   23  C   UNL     1     -11.762  11.873  67.548  1.00  0.00    -0.265 C  
BRANCH  21  24
HETATM   24  C   UNL     1     -10.343  13.756  68.500  1.00  0.00    -0.244 C  
BRANCH  24  25
HETATM   25  C   UNL     1     -11.184  14.312  69.618  1.00  0.00    -0.256 A  
HETATM   26  C   UNL     1     -10.940  15.606  70.104  1.00  0.00    -0.350 A  
HETATM   27  C   UNL     1     -11.608  16.072  71.234  1.00  0.00    -0.506 A  
HETATM   28  C   UNL     1     -12.539  15.261  71.876  1.00  0.00    -0.428 A  
HETATM   29  C   UNL     1     -12.835  13.998  71.369  1.00  0.00    -0.434 A  
HETATM   30  C   UNL     1     -12.171  13.529  70.236  1.00  0.00    -0.417 A  
ENDBRANCH  24  25
ENDBRANCH  21  24
ENDBRANCH  20  21
ENDBRANCH  19  20
ENDBRANCH  18  19
ENDBRANCH  17  18
ENDBRANCH  16  17
ENDBRANCH  15  16
ENDBRANCH  12  15
ENDBRANCH   6   9
ENDBRANCH   5   6
ENDBRANCH   2   5
TORSDOF 12
ENDMDL
MODEL       89
REMARK 921   NORMALIZED FREE ENERGY PREDICTED BY IDOCK:   -4.79 KCAL/MOL
REMARK 922        TOTAL FREE ENERGY PREDICTED BY IDOCK:   -9.42 KCAL/MOL
REMARK 923 INTER-LIGAND FREE ENERGY PREDICTED BY IDOCK:   -8.50 KCAL/MOL
REMARK 924 INTRA-LIGAND FREE ENERGY PREDICTED BY IDOCK:   -0.92 KCAL/MOL
REMARK 927      BINDING AFFINITY PREDICTED BY RF-SCORE:    0.00 PKD
ROOT
HETATM    1  C   UNL     1      -8.641  16.459  66.271  1.00  0.00    -0.375 C  
HETATM    2  C   UNL     1      -9.491  15.291  66.789  1.00  0.00    -0.264 C  
HETATM    3  C   UNL     1      -8.586  14.104  67.147  1.00  0.00    -0.230 C  
HETATM    4  C   UNL     1     -10.140  15.772  68.115  1.00  0.00    -0.220 C  
ENDROOT
BRANCH   2   5
HETATM    5  C   UNL     1     -10.653  14.900  65.819  1.00  0.00    -0.342 C  
BRANCH   5   6
HETATM    6  C   UNL     1     -11.685  13.736  66.077  1.00  0.00    -0.383 C  
HETATM    7  C   UNL     1     -12.931  13.824  65.167  1.00  0.00    -0.279 C  
HETATM    8  C   UNL     1     -12.197  13.721  67.532  1.00  0.00    -0.262 C  
BRANCH   6   9
HETATM    9  C   UNL     1     -10.962  12.405  65.730  1.00  0.00    -0.333 A  
HETATM   10  C   UNL     1     -10.466  12.111  64.448  1.00  0.00    -0.352 A  
HETATM   11  C   UNL     1      -9.816  10.905  64.177  1.00  0.00    -0.369 A  
HETATM   12  C   UNL     1      -9.656   9.950  65.174  1.00  0.00    -0.300 A  
HETATM   13  C   UNL     1     -10.795  11.416  66.721  1.00  0.00    -0.336 A  
HETATM   14  C   UNL     1     -10.156  10.201  66.447  1.00  0.00    -0.300 A  
BRANCH  12  15
HETATM   15  O   UNL     1      -9.029   8.803  64.770  1.00  0.00    -0.113 OA 
BRANCH  15  16
HETATM   16  C   UNL     1      -8.147   8.208  65.711  1.00  0.00    -0.115 C  
BRANCH  16  17
HETATM   17  C   UNL     1      -8.641   6.786  65.988  1.00  0.00    -0.145 C  
BRANCH  17  18
HETATM   18  O   UNL     1      -9.989   6.684  66.461  1.00  0.00    -0.159 OA 
BRANCH  18  19
HETATM   19  C   UNL     1     -10.173   6.272  67.812  1.00  0.00    -0.170 C  
BRANCH  19  20
HETATM   20  C   UNL     1      -9.590   7.292  68.800  1.00  0.00    -0.142 C  
BRANCH  20  21
HETATM   21  N   UNL     1      -9.835   6.989  70.285  1.00  0.00    -0.176 N  
HETATM   22  C   UNL     1     -11.302   6.558  70.411  1.00  0.00    -0.383 C  
HETATM   23  C   UNL     1      -8.962   5.826  70.741  1.00  0.00    -0.148 C  
BRANCH  21  24
HETATM   24  C   UNL     1      -9.586   8.260  71.142  1.00  0.00    -0.163 C  
BRANCH  24  25
HETATM   25  C   UNL     1     -10.679   9.293  71.093  1.00  0.00    -0.403 A  
HETATM   26  C   UNL     1     -11.711   9.269  72.044  1.00  0.00    -0.336 A  
HETATM   27  C   UNL     1     -12.805  10.122  71.919  1.00  0.00    -0.526 A  
HETATM   28  C   UNL     1     -12.870  11.019  70.856  1.00  0.00    -0.393 A  
HETATM   29  C   UNL     1     -11.825  11.094  69.938  1.00  0.00    -0.439 A  
HETATM   30  C   UNL     1     -10.726  10.245  70.063  1.00  0.00    -0.345 A  
ENDBRANCH  24  25
ENDBRANCH  21  24
ENDBRANCH  20  21
ENDBRANCH  19  20
ENDBRANCH  18  19
ENDBRANCH  17  18
ENDBRANCH  16  17
ENDBRANCH  15  16
ENDBRANCH  12  15
ENDBRANCH   6   9
ENDBRANCH   5   6
ENDBRANCH   2   5
TORSDOF 12
ENDMDL
MODEL       90
REMARK 921   NORMALIZED FREE ENERGY PREDICTED BY IDOCK:   -4.78 KCAL/MOL
REMARK 922        TOTAL FREE ENERGY PREDICTED BY IDOCK:   -9.40 KCAL/MOL
REMARK 923 INTER-LIGAND FREE ENERGY PREDICTED BY IDOCK:   -9.08 KCAL/MOL
REMARK 924 INTRA-LIGAND FREE ENERGY PREDICTED BY IDOCK:   -0.32 KCAL/MOL
REMARK 927      BINDING AFFINITY PREDICTED BY RF-SCORE:    0.00 PKD
ROOT
HETATM    1  C   UNL     1      -9.111   4.944  69.559  1.00  0.00    -0.149 C  
HETATM    2  C   UNL     1      -8.414   5.998  70.429  1.00  0.00    -0.132 C  
HETATM    3  C   UNL     1      -8.423   5.551  71.898  1.00  0.00    -0.123 C  
HETATM    4  C   UNL     1      -6.928   6.027  69.981  1.00  0.00    -0.069 C  
ENDROOT
BRANCH   2   5
HETATM    5  C   UNL     1      -8.989   7.438  70.227  1.00  0.00    -0.147 C  
BRANCH   5   6
HETATM    6  C   UNL     1     -10.325   7.971  70.873  1.00  0.00    -0.221 C  
HETATM    7  C   UNL     1     -10.123   8.519  72.304  1.00  0.00    -0.386 C  
HETATM    8  C   UNL     1     -11.406   6.875  70.965  1.00  0.00    -0.342 C  
BRANCH   6   9
HETATM    9  C   UNL     1     -10.810   9.156  69.994  1.00  0.00    -0.256 A  
HETATM   10  C   UNL     1     -10.594   9.224  68.607  1.00  0.00    -0.219 A  
HETATM   11  C   UNL     1     -11.051  10.305  67.850  1.00  0.00    -0.341 A  
HETATM   12  C   UNL     1     -11.723  11.358  68.458  1.00  0.00    -0.318 A  
HETATM   13  C   UNL     1     -11.486  10.243  70.589  1.00  0.00    -0.435 A  
HETATM   14  C   UNL     1     -11.932  11.333  69.833  1.00  0.00    -0.440 A  
BRANCH  12  15
HETATM   15  O   UNL     1     -12.091  12.366  67.610  1.00  0.00    -0.470 OA 
BRANCH  15  16
HETATM   16  C   UNL     1     -11.974  13.687  68.119  1.00  0.00    -0.355 C  
BRANCH  16  17
HETATM   17  C   UNL     1     -11.446  14.582  66.996  1.00  0.00    -0.370 C  
BRANCH  17  18
HETATM   18  O   UNL     1     -10.162  15.173  67.231  1.00  0.00    -0.239 OA 
BRANCH  18  19
HETATM   19  C   UNL     1      -9.599  15.943  66.174  1.00  0.00    -0.333 C  
BRANCH  19  20
HETATM   20  C   UNL     1     -10.410  17.218  65.906  1.00  0.00    -0.278 C  
BRANCH  20  21
HETATM   21  N   UNL     1      -9.818  18.512  66.483  1.00  0.00    -0.346 N  
HETATM   22  C   UNL     1     -10.463  19.673  65.714  1.00  0.00    -0.444 C  
HETATM   23  C   UNL     1     -10.191  18.657  67.954  1.00  0.00    -0.392 C  
BRANCH  21  24
HETATM   24  C   UNL     1      -8.279  18.539  66.279  1.00  0.00    -0.225 C  
BRANCH  24  25
HETATM   25  C   UNL     1      -7.505  19.292  67.327  1.00  0.00    -0.253 A  
HETATM   26  C   UNL     1      -6.998  20.569  67.042  1.00  0.00    -0.346 A  
HETATM   27  C   UNL     1      -6.154  21.210  67.946  1.00  0.00    -0.400 A  
HETATM   28  C   UNL     1      -5.825  20.592  69.150  1.00  0.00    -0.395 A  
HETATM   29  C   UNL     1      -6.369  19.351  69.471  1.00  0.00    -0.347 A  
HETATM   30  C   UNL     1      -7.218  18.708  68.571  1.00  0.00    -0.314 A  
ENDBRANCH  24  25
ENDBRANCH  21  24
ENDBRANCH  20  21
ENDBRANCH  19  20
ENDBRANCH  18  19
ENDBRANCH  17  18
ENDBRANCH  16  17
ENDBRANCH  15  16
ENDBRANCH  12  15
ENDBRANCH   6   9
ENDBRANCH   5   6
ENDBRANCH   2   5
TORSDOF 12
ENDMDL
MODEL       91
REMARK 921   NORMALIZED FREE ENERGY PREDICTED BY IDOCK:   -4.78 KCAL/MOL
REMARK 922        TOTAL FREE ENERGY PREDICTED BY IDOCK:   -9.40 KCAL/MOL
REMARK 923 INTER-LIGAND FREE ENERGY PREDICTED BY IDOCK:   -8.33 KCAL/MOL
REMARK 924 INTRA-LIGAND FREE ENERGY PREDICTED BY IDOCK:   -1.07 KCAL/MOL
REMARK 927      BINDING AFFINITY PREDICTED BY RF-SCORE:    0.00 PKD
ROOT
HETATM    1  C   UNL     1     -11.538  11.895  63.580  1.00  0.00    -0.537 C  
HETATM    2  C   UNL     1     -11.227  12.290  65.029  1.00  0.00    -0.367 C  
HETATM    3  C   UNL     1     -10.048  13.273  65.062  1.00  0.00    -0.247 C  
HETATM    4  C   UNL     1     -12.467  13.065  65.551  1.00  0.00    -0.496 C  
ENDROOT
BRANCH   2   5
HETATM    5  C   UNL     1     -11.019  11.059  65.971  1.00  0.00    -0.136 C  
BRANCH   5   6
HETATM    6  C   UNL     1      -9.795  10.067  65.895  1.00  0.00    -0.330 C  
HETATM    7  C   UNL     1      -9.302   9.831  64.450  1.00  0.00    -0.278 C  
HETATM    8  C   UNL     1     -10.130   8.681  66.484  1.00  0.00    -0.339 C  
BRANCH   6   9
HETATM    9  C   UNL     1      -8.626  10.732  66.673  1.00  0.00    -0.143 A  
HETATM   10  C   UNL     1      -7.348  10.929  66.121  1.00  0.00    -0.103 A  
HETATM   11  C   UNL     1      -6.325  11.535  66.850  1.00  0.00    -0.146 A  
HETATM   12  C   UNL     1      -6.540  11.950  68.159  1.00  0.00    -0.057 A  
HETATM   13  C   UNL     1      -8.817  11.153  68.006  1.00  0.00    -0.142 A  
HETATM   14  C   UNL     1      -7.787  11.748  68.743  1.00  0.00    -0.076 A  
BRANCH  12  15
HETATM   15  O   UNL     1      -5.448  12.502  68.770  1.00  0.00    -0.057 OA 
BRANCH  15  16
HETATM   16  C   UNL     1      -5.698  13.210  69.977  1.00  0.00    -0.131 C  
BRANCH  16  17
HETATM   17  C   UNL     1      -5.991  14.668  69.617  1.00  0.00    -0.110 C  
BRANCH  17  18
HETATM   18  O   UNL     1      -7.251  15.174  70.074  1.00  0.00    -0.156 OA 
BRANCH  18  19
HETATM   19  C   UNL     1      -8.022  15.928  69.145  1.00  0.00    -0.233 C  
BRANCH  19  20
HETATM   20  C   UNL     1      -9.014  15.040  68.380  1.00  0.00    -0.179 C  
BRANCH  20  21
HETATM   21  N   UNL     1     -10.477  15.138  68.835  1.00  0.00    -0.232 N  
HETATM   22  C   UNL     1     -11.235  15.884  67.730  1.00  0.00    -0.258 C  
HETATM   23  C   UNL     1     -11.085  13.746  68.967  1.00  0.00    -0.259 C  
BRANCH  21  24
HETATM   24  C   UNL     1     -10.576  15.931  70.166  1.00  0.00    -0.295 C  
BRANCH  24  25
HETATM   25  C   UNL     1     -11.694  15.513  71.082  1.00  0.00    -0.439 A  
HETATM   26  C   UNL     1     -13.011  15.451  70.599  1.00  0.00    -0.450 A  
HETATM   27  C   UNL     1     -14.071  15.215  71.471  1.00  0.00    -0.636 A  
HETATM   28  C   UNL     1     -13.826  15.019  72.828  1.00  0.00    -0.472 A  
HETATM   29  C   UNL     1     -12.520  15.019  73.310  1.00  0.00    -0.570 A  
HETATM   30  C   UNL     1     -11.455  15.251  72.440  1.00  0.00    -0.460 A  
ENDBRANCH  24  25
ENDBRANCH  21  24
ENDBRANCH  20  21
ENDBRANCH  19  20
ENDBRANCH  18  19
ENDBRANCH  17  18
ENDBRANCH  16  17
ENDBRANCH  15  16
ENDBRANCH  12  15
ENDBRANCH   6   9
ENDBRANCH   5   6
ENDBRANCH   2   5
TORSDOF 12
ENDMDL
MODEL       92
REMARK 921   NORMALIZED FREE ENERGY PREDICTED BY IDOCK:   -4.77 KCAL/MOL
REMARK 922        TOTAL FREE ENERGY PREDICTED BY IDOCK:   -9.38 KCAL/MOL
REMARK 923 INTER-LIGAND FREE ENERGY PREDICTED BY IDOCK:   -8.49 KCAL/MOL
REMARK 924 INTRA-LIGAND FREE ENERGY PREDICTED BY IDOCK:   -0.89 KCAL/MOL
REMARK 927      BINDING AFFINITY PREDICTED BY RF-SCORE:    0.00 PKD
ROOT
HETATM    1  C   UNL     1     -10.514  18.475  66.599  1.00  0.00    -0.436 C  
HETATM    2  C   UNL     1      -9.484  19.152  67.513  1.00  0.00    -0.365 C  
HETATM    3  C   UNL     1      -8.558  20.050  66.682  1.00  0.00    -0.382 C  
HETATM    4  C   UNL     1     -10.284  20.090  68.458  1.00  0.00    -0.484 C  
ENDROOT
BRANCH   2   5
HETATM    5  C   UNL     1      -8.704  18.141  68.415  1.00  0.00    -0.302 C  
BRANCH   5   6
HETATM    6  C   UNL     1      -7.945  16.865  67.884  1.00  0.00    -0.187 C  
HETATM    7  C   UNL     1      -6.918  16.312  68.897  1.00  0.00    -0.170 C  
HETATM    8  C   UNL     1      -7.174  17.145  66.577  1.00  0.00    -0.308 C  
BRANCH   6   9
HETATM    9  C   UNL     1      -9.015  15.759  67.670  1.00  0.00    -0.190 A  
HETATM   10  C   UNL     1      -9.157  15.049  66.464  1.00  0.00    -0.319 A  
HETATM   11  C   UNL     1     -10.128  14.058  66.313  1.00  0.00    -0.307 A  
HETATM   12  C   UNL     1     -10.998  13.756  67.354  1.00  0.00    -0.284 A  
HETATM   13  C   UNL     1      -9.915  15.440  68.708  1.00  0.00    -0.208 A  
HETATM   14  C   UNL     1     -10.898  14.457  68.552  1.00  0.00    -0.260 A  
BRANCH  12  15
HETATM   15  O   UNL     1     -11.919  12.787  67.066  1.00  0.00    -0.386 OA 
BRANCH  15  16
HETATM   16  C   UNL     1     -11.400  11.497  66.777  1.00  0.00    -0.238 C  
BRANCH  16  17
HETATM   17  C   UNL     1     -11.288  10.726  68.095  1.00  0.00    -0.308 C  
BRANCH  17  18
HETATM   18  O   UNL     1     -12.332  10.975  69.044  1.00  0.00    -0.481 OA 
BRANCH  18  19
HETATM   19  C   UNL     1     -12.089  10.587  70.392  1.00  0.00    -0.329 C  
BRANCH  19  20
HETATM   20  C   UNL     1     -11.769   9.089  70.502  1.00  0.00    -0.126 C  
BRANCH  20  21
HETATM   21  N   UNL     1     -12.434   8.355  71.675  1.00  0.00    -0.316 N  
HETATM   22  C   UNL     1     -13.388   9.356  72.339  1.00  0.00    -0.424 C  
HETATM   23  C   UNL     1     -13.264   7.182  71.164  1.00  0.00    -0.191 C  
BRANCH  21  24
HETATM   24  C   UNL     1     -11.362   7.892  72.698  1.00  0.00    -0.408 C  
BRANCH  24  25
HETATM   25  C   UNL     1     -10.003   7.606  72.120  1.00  0.00    -0.232 A  
HETATM   26  C   UNL     1      -8.963   8.535  72.277  1.00  0.00    -0.299 A  
HETATM   27  C   UNL     1      -7.749   8.352  71.619  1.00  0.00    -0.140 A  
HETATM   28  C   UNL     1      -7.554   7.233  70.815  1.00  0.00    -0.084 A  
HETATM   29  C   UNL     1      -8.557   6.273  70.698  1.00  0.00    -0.139 A  
HETATM   30  C   UNL     1      -9.772   6.449  71.359  1.00  0.00    -0.187 A  
ENDBRANCH  24  25
ENDBRANCH  21  24
ENDBRANCH  20  21
ENDBRANCH  19  20
ENDBRANCH  18  19
ENDBRANCH  17  18
ENDBRANCH  16  17
ENDBRANCH  15  16
ENDBRANCH  12  15
ENDBRANCH   6   9
ENDBRANCH   5   6
ENDBRANCH   2   5
TORSDOF 12
ENDMDL
MODEL       93
REMARK 921   NORMALIZED FREE ENERGY PREDICTED BY IDOCK:   -4.77 KCAL/MOL
REMARK 922        TOTAL FREE ENERGY PREDICTED BY IDOCK:   -9.38 KCAL/MOL
REMARK 923 INTER-LIGAND FREE ENERGY PREDICTED BY IDOCK:   -8.77 KCAL/MOL
REMARK 924 INTRA-LIGAND FREE ENERGY PREDICTED BY IDOCK:   -0.61 KCAL/MOL
REMARK 927      BINDING AFFINITY PREDICTED BY RF-SCORE:    0.00 PKD
ROOT
HETATM    1  C   UNL     1     -10.333   3.785  73.331  1.00  0.00    -0.238 C  
HETATM    2  C   UNL     1     -10.282   5.301  73.102  1.00  0.00    -0.213 C  
HETATM    3  C   UNL     1     -10.155   6.029  74.447  1.00  0.00    -0.316 C  
HETATM    4  C   UNL     1      -8.972   5.584  72.317  1.00  0.00    -0.143 C  
ENDROOT
BRANCH   2   5
HETATM    5  C   UNL     1     -11.468   5.832  72.232  1.00  0.00    -0.320 C  
BRANCH   5   6
HETATM    6  C   UNL     1     -11.618   7.319  71.729  1.00  0.00    -0.309 C  
HETATM    7  C   UNL     1     -10.775   8.319  72.552  1.00  0.00    -0.411 C  
HETATM    8  C   UNL     1     -13.078   7.812  71.791  1.00  0.00    -0.353 C  
BRANCH   6   9
HETATM    9  C   UNL     1     -11.080   7.360  70.273  1.00  0.00    -0.278 A  
HETATM   10  C   UNL     1     -10.547   8.520  69.682  1.00  0.00    -0.221 A  
HETATM   11  C   UNL     1     -10.069   8.515  68.370  1.00  0.00    -0.221 A  
HETATM   12  C   UNL     1     -10.121   7.357  67.604  1.00  0.00    -0.186 A  
HETATM   13  C   UNL     1     -11.130   6.201  69.470  1.00  0.00    -0.490 A  
HETATM   14  C   UNL     1     -10.664   6.199  68.151  1.00  0.00    -0.367 A  
BRANCH  12  15
HETATM   15  O   UNL     1      -9.647   7.496  66.328  1.00  0.00    -0.157 OA 
BRANCH  15  16
HETATM   16  C   UNL     1      -8.332   8.018  66.203  1.00  0.00    -0.125 C  
BRANCH  16  17
HETATM   17  C   UNL     1      -8.325   9.008  65.035  1.00  0.00    -0.166 C  
BRANCH  17  18
HETATM   18  O   UNL     1      -8.886  10.295  65.316  1.00  0.00    -0.161 OA 
BRANCH  18  19
HETATM   19  C   UNL     1     -10.200  10.550  64.832  1.00  0.00    -0.300 C  
BRANCH  19  20
HETATM   20  C   UNL     1     -10.927  11.597  65.687  1.00  0.00    -0.266 C  
BRANCH  20  21
HETATM   21  N   UNL     1     -11.565  12.758  64.912  1.00  0.00    -0.316 N  
HETATM   22  C   UNL     1     -12.225  12.149  63.668  1.00  0.00    -0.562 C  
HETATM   23  C   UNL     1     -12.654  13.419  65.748  1.00  0.00    -0.393 C  
BRANCH  21  24
HETATM   24  C   UNL     1     -10.477  13.780  64.481  1.00  0.00    -0.356 C  
BRANCH  24  25
HETATM   25  C   UNL     1     -10.150  14.837  65.501  1.00  0.00    -0.409 A  
HETATM   26  C   UNL     1     -10.642  16.142  65.342  1.00  0.00    -0.399 A  
HETATM   27  C   UNL     1     -10.222  17.162  66.192  1.00  0.00    -0.343 A  
HETATM   28  C   UNL     1      -9.325  16.886  67.220  1.00  0.00    -0.238 A  
HETATM   29  C   UNL     1      -8.875  15.584  67.426  1.00  0.00    -0.203 A  
HETATM   30  C   UNL     1      -9.296  14.559  66.579  1.00  0.00    -0.307 A  
ENDBRANCH  24  25
ENDBRANCH  21  24
ENDBRANCH  20  21
ENDBRANCH  19  20
ENDBRANCH  18  19
ENDBRANCH  17  18
ENDBRANCH  16  17
ENDBRANCH  15  16
ENDBRANCH  12  15
ENDBRANCH   6   9
ENDBRANCH   5   6
ENDBRANCH   2   5
TORSDOF 12
ENDMDL
MODEL       94
REMARK 921   NORMALIZED FREE ENERGY PREDICTED BY IDOCK:   -4.76 KCAL/MOL
REMARK 922        TOTAL FREE ENERGY PREDICTED BY IDOCK:   -9.37 KCAL/MOL
REMARK 923 INTER-LIGAND FREE ENERGY PREDICTED BY IDOCK:   -8.96 KCAL/MOL
REMARK 924 INTRA-LIGAND FREE ENERGY PREDICTED BY IDOCK:   -0.41 KCAL/MOL
REMARK 927      BINDING AFFINITY PREDICTED BY RF-SCORE:    0.00 PKD
ROOT
HETATM    1  C   UNL     1      -9.898   9.095  71.221  1.00  0.00    -0.363 C  
HETATM    2  C   UNL     1      -8.901   8.528  70.202  1.00  0.00    -0.138 C  
HETATM    3  C   UNL     1      -7.916   9.622  69.769  1.00  0.00    -0.154 C  
HETATM    4  C   UNL     1      -8.070   7.451  70.952  1.00  0.00    -0.105 C  
ENDROOT
BRANCH   2   5
HETATM    5  C   UNL     1      -9.594   7.820  68.992  1.00  0.00    -0.155 C  
BRANCH   5   6
HETATM    6  C   UNL     1      -8.853   7.349  67.683  1.00  0.00    -0.127 C  
HETATM    7  C   UNL     1      -9.332   5.966  67.186  1.00  0.00    -0.118 C  
HETATM    8  C   UNL     1      -7.327   7.247  67.880  1.00  0.00    -0.097 C  
BRANCH   6   9
HETATM    9  C   UNL     1      -9.201   8.377  66.572  1.00  0.00    -0.238 A  
HETATM   10  C   UNL     1     -10.226   9.332  66.700  1.00  0.00    -0.323 A  
HETATM   11  C   UNL     1     -10.504  10.243  65.680  1.00  0.00    -0.152 A  
HETATM   12  C   UNL     1      -9.780  10.219  64.495  1.00  0.00    -0.329 A  
HETATM   13  C   UNL     1      -8.487   8.368  65.355  1.00  0.00    -0.193 A  
HETATM   14  C   UNL     1      -8.776   9.272  64.326  1.00  0.00    -0.204 A  
BRANCH  12  15
HETATM   15  O   UNL     1     -10.173  11.145  63.567  1.00  0.00    -0.333 OA 
BRANCH  15  16
HETATM   16  C   UNL     1     -10.356  12.470  64.046  1.00  0.00    -0.404 C  
BRANCH  16  17
HETATM   17  C   UNL     1     -11.731  12.955  63.580  1.00  0.00    -0.512 C  
BRANCH  17  18
HETATM   18  O   UNL     1     -12.724  13.070  64.606  1.00  0.00    -0.658 OA 
BRANCH  18  19
HETATM   19  C   UNL     1     -12.260  13.164  65.949  1.00  0.00    -0.436 C  
BRANCH  19  20
HETATM   20  C   UNL     1     -11.928  14.612  66.335  1.00  0.00    -0.261 C  
BRANCH  20  21
HETATM   21  N   UNL     1     -11.096  14.782  67.614  1.00  0.00    -0.295 N  
HETATM   22  C   UNL     1     -11.998  15.484  68.637  1.00  0.00    -0.210 C  
HETATM   23  C   UNL     1     -10.712  13.420  68.182  1.00  0.00    -0.253 C  
BRANCH  21  24
HETATM   24  C   UNL     1      -9.845  15.656  67.331  1.00  0.00    -0.225 C  
BRANCH  24  25
HETATM   25  C   UNL     1     -10.069  17.142  67.406  1.00  0.00    -0.301 A  
HETATM   26  C   UNL     1     -10.344  17.870  66.239  1.00  0.00    -0.364 A  
HETATM   27  C   UNL     1     -10.402  19.262  66.273  1.00  0.00    -0.566 A  
HETATM   28  C   UNL     1     -10.205  19.937  67.474  1.00  0.00    -0.562 A  
HETATM   29  C   UNL     1      -9.990  19.224  68.651  1.00  0.00    -0.506 A  
HETATM   30  C   UNL     1      -9.936  17.831  68.622  1.00  0.00    -0.379 A  
ENDBRANCH  24  25
ENDBRANCH  21  24
ENDBRANCH  20  21
ENDBRANCH  19  20
ENDBRANCH  18  19
ENDBRANCH  17  18
ENDBRANCH  16  17
ENDBRANCH  15  16
ENDBRANCH  12  15
ENDBRANCH   6   9
ENDBRANCH   5   6
ENDBRANCH   2   5
TORSDOF 12
ENDMDL
MODEL       95
REMARK 921   NORMALIZED FREE ENERGY PREDICTED BY IDOCK:   -4.76 KCAL/MOL
REMARK 922        TOTAL FREE ENERGY PREDICTED BY IDOCK:   -9.36 KCAL/MOL
REMARK 923 INTER-LIGAND FREE ENERGY PREDICTED BY IDOCK:   -7.66 KCAL/MOL
REMARK 924 INTRA-LIGAND FREE ENERGY PREDICTED BY IDOCK:   -1.70 KCAL/MOL
REMARK 927      BINDING AFFINITY PREDICTED BY RF-SCORE:    0.00 PKD
ROOT
HETATM    1  C   UNL     1      -8.193   6.665  68.607  1.00  0.00    -0.119 C  
HETATM    2  C   UNL     1      -7.724   8.052  69.064  1.00  0.00    -0.100 C  
HETATM    3  C   UNL     1      -6.617   7.908  70.117  1.00  0.00    -0.037 C  
HETATM    4  C   UNL     1      -7.075   8.727  67.825  1.00  0.00    -0.083 C  
ENDROOT
BRANCH   2   5
HETATM    5  C   UNL     1      -8.896   8.973  69.535  1.00  0.00    -0.146 C  
BRANCH   5   6
HETATM    6  C   UNL     1     -10.385   8.860  69.030  1.00  0.00    -0.226 C  
HETATM    7  C   UNL     1     -10.994   7.459  69.263  1.00  0.00    -0.091 C  
HETATM    8  C   UNL     1     -10.515   9.156  67.522  1.00  0.00    -0.335 C  
BRANCH   6   9
HETATM    9  C   UNL     1     -11.224   9.866  69.867  1.00  0.00    -0.298 A  
HETATM   10  C   UNL     1     -11.967   9.492  71.000  1.00  0.00    -0.407 A  
HETATM   11  C   UNL     1     -12.704  10.427  71.728  1.00  0.00    -0.525 A  
HETATM   12  C   UNL     1     -12.734  11.761  71.339  1.00  0.00    -0.308 A  
HETATM   13  C   UNL     1     -11.278  11.224  69.487  1.00  0.00    -0.337 A  
HETATM   14  C   UNL     1     -12.028  12.159  70.209  1.00  0.00    -0.389 A  
BRANCH  12  15
HETATM   15  O   UNL     1     -13.516  12.566  72.121  1.00  0.00    -0.532 OA 
BRANCH  15  16
HETATM   16  C   UNL     1     -13.536  13.944  71.776  1.00  0.00    -0.385 C  
BRANCH  16  17
HETATM   17  C   UNL     1     -12.593  14.684  72.728  1.00  0.00    -0.341 C  
BRANCH  17  18
HETATM   18  O   UNL     1     -11.406  15.217  72.128  1.00  0.00    -0.442 OA 
BRANCH  18  19
HETATM   19  C   UNL     1     -11.537  15.792  70.832  1.00  0.00    -0.405 C  
BRANCH  19  20
HETATM   20  C   UNL     1     -10.292  15.537  69.971  1.00  0.00    -0.302 C  
BRANCH  20  21
HETATM   21  N   UNL     1     -10.397  15.987  68.507  1.00  0.00    -0.233 N  
HETATM   22  C   UNL     1     -11.541  15.181  67.878  1.00  0.00    -0.311 C  
HETATM   23  C   UNL     1     -10.765  17.465  68.431  1.00  0.00    -0.301 C  
BRANCH  21  24
HETATM   24  C   UNL     1      -9.071  15.690  67.755  1.00  0.00    -0.181 C  
BRANCH  24  25
HETATM   25  C   UNL     1      -8.267  14.541  68.301  1.00  0.00    -0.149 A  
HETATM   26  C   UNL     1      -7.191  14.786  69.168  1.00  0.00    -0.148 A  
HETATM   27  C   UNL     1      -6.348  13.748  69.557  1.00  0.00    -0.118 A  
HETATM   28  C   UNL     1      -6.582  12.453  69.101  1.00  0.00    -0.099 A  
HETATM   29  C   UNL     1      -7.681  12.186  68.288  1.00  0.00    -0.135 A  
HETATM   30  C   UNL     1      -8.530  13.222  67.900  1.00  0.00    -0.177 A  
ENDBRANCH  24  25
ENDBRANCH  21  24
ENDBRANCH  20  21
ENDBRANCH  19  20
ENDBRANCH  18  19
ENDBRANCH  17  18
ENDBRANCH  16  17
ENDBRANCH  15  16
ENDBRANCH  12  15
ENDBRANCH   6   9
ENDBRANCH   5   6
ENDBRANCH   2   5
TORSDOF 12
ENDMDL
MODEL       96
REMARK 921   NORMALIZED FREE ENERGY PREDICTED BY IDOCK:   -4.74 KCAL/MOL
REMARK 922        TOTAL FREE ENERGY PREDICTED BY IDOCK:   -9.33 KCAL/MOL
REMARK 923 INTER-LIGAND FREE ENERGY PREDICTED BY IDOCK:   -9.28 KCAL/MOL
REMARK 924 INTRA-LIGAND FREE ENERGY PREDICTED BY IDOCK:   -0.05 KCAL/MOL
REMARK 927      BINDING AFFINITY PREDICTED BY RF-SCORE:    0.00 PKD
ROOT
HETATM    1  C   UNL     1      -9.456   2.923  68.568  1.00  0.00    -0.200 C  
HETATM    2  C   UNL     1      -9.230   4.403  68.233  1.00  0.00    -0.182 C  
HETATM    3  C   UNL     1      -7.728   4.720  68.260  1.00  0.00    -0.081 C  
HETATM    4  C   UNL     1      -9.701   4.600  66.767  1.00  0.00    -0.214 C  
ENDROOT
BRANCH   2   5
HETATM    5  C   UNL     1     -10.072   5.371  69.126  1.00  0.00    -0.293 C  
BRANCH   5   6
HETATM    6  C   UNL     1      -9.802   5.648  70.654  1.00  0.00    -0.244 C  
HETATM    7  C   UNL     1      -8.336   6.044  70.942  1.00  0.00    -0.126 C  
HETATM    8  C   UNL     1     -10.112   4.419  71.534  1.00  0.00    -0.221 C  
BRANCH   6   9
HETATM    9  C   UNL     1     -10.689   6.858  71.058  1.00  0.00    -0.258 A  
HETATM   10  C   UNL     1     -10.218   8.182  71.082  1.00  0.00    -0.234 A  
HETATM   11  C   UNL     1     -11.049   9.244  71.447  1.00  0.00    -0.437 A  
HETATM   12  C   UNL     1     -12.369   9.014  71.813  1.00  0.00    -0.367 A  
HETATM   13  C   UNL     1     -12.030   6.650  71.444  1.00  0.00    -0.405 A  
HETATM   14  C   UNL     1     -12.859   7.712  71.823  1.00  0.00    -0.357 A  
BRANCH  12  15
HETATM   15  O   UNL     1     -13.065  10.135  72.175  1.00  0.00    -0.435 OA 
BRANCH  15  16
HETATM   16  C   UNL     1     -13.026  11.218  71.257  1.00  0.00    -0.327 C  
BRANCH  16  17
HETATM   17  C   UNL     1     -13.187  12.517  72.051  1.00  0.00    -0.419 C  
BRANCH  17  18
HETATM   18  O   UNL     1     -13.217  13.717  71.269  1.00  0.00    -0.307 OA 
BRANCH  18  19
HETATM   19  C   UNL     1     -11.988  14.143  70.689  1.00  0.00    -0.315 C  
BRANCH  19  20
HETATM   20  C   UNL     1     -11.732  13.461  69.338  1.00  0.00    -0.325 C  
BRANCH  20  21
HETATM   21  N   UNL     1     -11.340  14.399  68.187  1.00  0.00    -0.280 N  
HETATM   22  C   UNL     1     -11.661  15.826  68.651  1.00  0.00    -0.386 C  
HETATM   23  C   UNL     1      -9.841  14.316  67.923  1.00  0.00    -0.226 C  
BRANCH  21  24
HETATM   24  C   UNL     1     -12.163  14.064  66.914  1.00  0.00    -0.380 C  
BRANCH  24  25
HETATM   25  C   UNL     1     -11.539  13.050  65.994  1.00  0.00    -0.409 A  
HETATM   26  C   UNL     1     -11.197  11.778  66.480  1.00  0.00    -0.380 A  
HETATM   27  C   UNL     1     -10.482  10.887  65.682  1.00  0.00    -0.274 A  
HETATM   28  C   UNL     1     -10.121  11.249  64.387  1.00  0.00    -0.357 A  
HETATM   29  C   UNL     1     -10.505  12.484  63.872  1.00  0.00    -0.464 A  
HETATM   30  C   UNL     1     -11.224  13.377  64.666  1.00  0.00    -0.377 A  
ENDBRANCH  24  25
ENDBRANCH  21  24
ENDBRANCH  20  21
ENDBRANCH  19  20
ENDBRANCH  18  19
ENDBRANCH  17  18
ENDBRANCH  16  17
ENDBRANCH  15  16
ENDBRANCH  12  15
ENDBRANCH   6   9
ENDBRANCH   5   6
ENDBRANCH   2   5
TORSDOF 12
ENDMDL
MODEL       97
REMARK 921   NORMALIZED FREE ENERGY PREDICTED BY IDOCK:   -4.69 KCAL/MOL
REMARK 922        TOTAL FREE ENERGY PREDICTED BY IDOCK:   -9.25 KCAL/MOL
REMARK 923 INTER-LIGAND FREE ENERGY PREDICTED BY IDOCK:   -8.40 KCAL/MOL
REMARK 924 INTRA-LIGAND FREE ENERGY PREDICTED BY IDOCK:   -0.85 KCAL/MOL
REMARK 927      BINDING AFFINITY PREDICTED BY RF-SCORE:    0.00 PKD
ROOT
HETATM    1  C   UNL     1     -11.002  16.529  64.892  1.00  0.00    -0.223 C  
HETATM    2  C   UNL     1     -10.445  16.318  66.306  1.00  0.00    -0.314 C  
HETATM    3  C   UNL     1      -8.931  16.074  66.239  1.00  0.00    -0.380 C  
HETATM    4  C   UNL     1     -10.647  17.659  67.063  1.00  0.00    -0.254 C  
ENDROOT
BRANCH   2   5
HETATM    5  C   UNL     1     -11.205  15.213  67.108  1.00  0.00    -0.320 C  
BRANCH   5   6
HETATM    6  C   UNL     1     -11.297  13.697  66.682  1.00  0.00    -0.343 C  
HETATM    7  C   UNL     1      -9.979  13.162  66.078  1.00  0.00    -0.283 C  
HETATM    8  C   UNL     1     -12.400  13.451  65.633  1.00  0.00    -0.521 C  
BRANCH   6   9
HETATM    9  C   UNL     1     -11.569  12.880  67.975  1.00  0.00    -0.385 A  
HETATM   10  C   UNL     1     -11.882  13.476  69.210  1.00  0.00    -0.392 A  
HETATM   11  C   UNL     1     -12.126  12.706  70.349  1.00  0.00    -0.381 A  
HETATM   12  C   UNL     1     -12.050  11.320  70.294  1.00  0.00    -0.373 A  
HETATM   13  C   UNL     1     -11.489  11.472  67.949  1.00  0.00    -0.372 A  
HETATM   14  C   UNL     1     -11.719  10.701  69.093  1.00  0.00    -0.324 A  
BRANCH  12  15
HETATM   15  O   UNL     1     -12.282  10.688  71.485  1.00  0.00    -0.335 OA 
BRANCH  15  16
HETATM   16  C   UNL     1     -13.141   9.557  71.436  1.00  0.00    -0.370 C  
BRANCH  16  17
HETATM   17  C   UNL     1     -12.294   8.309  71.697  1.00  0.00    -0.315 C  
BRANCH  17  18
HETATM   18  O   UNL     1     -11.357   8.415  72.776  1.00  0.00    -0.346 OA 
BRANCH  18  19
HETATM   19  C   UNL     1      -9.974   8.358  72.442  1.00  0.00    -0.310 C  
BRANCH  19  20
HETATM   20  C   UNL     1      -9.762   8.182  70.932  1.00  0.00    -0.166 C  
BRANCH  20  21
HETATM   21  N   UNL     1      -8.751   7.100  70.528  1.00  0.00    -0.148 N  
HETATM   22  C   UNL     1      -7.986   7.641  69.313  1.00  0.00    -0.126 C  
HETATM   23  C   UNL     1      -7.747   6.866  71.651  1.00  0.00    -0.095 C  
BRANCH  21  24
HETATM   24  C   UNL     1      -9.489   5.790  70.142  1.00  0.00    -0.160 C  
BRANCH  24  25
HETATM   25  C   UNL     1      -9.555   4.746  71.224  1.00  0.00    -0.232 A  
HETATM   26  C   UNL     1      -8.716   3.623  71.168  1.00  0.00    -0.122 A  
HETATM   27  C   UNL     1      -8.874   2.579  72.078  1.00  0.00    -0.111 A  
HETATM   28  C   UNL     1      -9.855   2.656  73.063  1.00  0.00    -0.177 A  
HETATM   29  C   UNL     1     -10.654   3.792  73.167  1.00  0.00    -0.268 A  
HETATM   30  C   UNL     1     -10.497   4.841  72.261  1.00  0.00    -0.255 A  
ENDBRANCH  24  25
ENDBRANCH  21  24
ENDBRANCH  20  21
ENDBRANCH  19  20
ENDBRANCH  18  19
ENDBRANCH  17  18
ENDBRANCH  16  17
ENDBRANCH  15  16
ENDBRANCH  12  15
ENDBRANCH   6   9
ENDBRANCH   5   6
ENDBRANCH   2   5
TORSDOF 12
ENDMDL
MODEL       98
REMARK 921   NORMALIZED FREE ENERGY PREDICTED BY IDOCK:   -4.68 KCAL/MOL
REMARK 922        TOTAL FREE ENERGY PREDICTED BY IDOCK:   -9.23 KCAL/MOL
REMARK 923 INTER-LIGAND FREE ENERGY PREDICTED BY IDOCK:   -8.59 KCAL/MOL
REMARK 924 INTRA-LIGAND FREE ENERGY PREDICTED BY IDOCK:   -0.64 KCAL/MOL
REMARK 927      BINDING AFFINITY PREDICTED BY RF-SCORE:    0.00 PKD
ROOT
HETATM    1  C   UNL     1      -9.440   7.300  70.214  1.00  0.00    -0.165 C  
HETATM    2  C   UNL     1     -10.504   6.230  69.935  1.00  0.00    -0.284 C  
HETATM    3  C   UNL     1     -10.060   4.885  70.526  1.00  0.00    -0.312 C  
HETATM    4  C   UNL     1     -11.777   6.661  70.712  1.00  0.00    -0.445 C  
ENDROOT
BRANCH   2   5
HETATM    5  C   UNL     1     -10.894   6.131  68.424  1.00  0.00    -0.382 C  
BRANCH   5   6
HETATM    6  C   UNL     1      -9.900   5.742  67.263  1.00  0.00    -0.158 C  
HETATM    7  C   UNL     1     -10.545   4.820  66.204  1.00  0.00    -0.282 C  
HETATM    8  C   UNL     1      -8.648   5.010  67.788  1.00  0.00    -0.103 C  
BRANCH   6   9
HETATM    9  C   UNL     1      -9.509   7.061  66.542  1.00  0.00    -0.199 A  
HETATM   10  C   UNL     1      -8.416   7.163  65.664  1.00  0.00    -0.141 A  
HETATM   11  C   UNL     1      -8.100   8.366  65.031  1.00  0.00    -0.147 A  
HETATM   12  C   UNL     1      -8.856   9.508  65.266  1.00  0.00    -0.184 A  
HETATM   13  C   UNL     1     -10.255   8.237  66.771  1.00  0.00    -0.375 A  
HETATM   14  C   UNL     1      -9.930   9.447  66.147  1.00  0.00    -0.351 A  
BRANCH  12  15
HETATM   15  O   UNL     1      -8.423  10.625  64.605  1.00  0.00    -0.163 OA 
BRANCH  15  16
HETATM   16  C   UNL     1      -8.730  10.691  63.220  1.00  0.00    -0.177 C  
BRANCH  16  17
HETATM   17  C   UNL     1     -10.217  11.024  63.080  1.00  0.00    -0.245 C  
BRANCH  17  18
HETATM   18  O   UNL     1     -10.552  12.411  63.210  1.00  0.00    -0.410 OA 
BRANCH  18  19
HETATM   19  C   UNL     1     -11.225  12.807  64.400  1.00  0.00    -0.347 C  
BRANCH  19  20
HETATM   20  C   UNL     1     -10.254  13.401  65.430  1.00  0.00    -0.298 C  
BRANCH  20  21
HETATM   21  N   UNL     1     -10.678  14.745  66.041  1.00  0.00    -0.302 N  
HETATM   22  C   UNL     1     -10.978  15.688  64.869  1.00  0.00    -0.431 C  
HETATM   23  C   UNL     1     -11.958  14.579  66.852  1.00  0.00    -0.346 C  
BRANCH  21  24
HETATM   24  C   UNL     1      -9.528  15.330  66.904  1.00  0.00    -0.234 C  
BRANCH  24  25
HETATM   25  C   UNL     1      -9.437  16.833  66.920  1.00  0.00    -0.253 A  
HETATM   26  C   UNL     1      -8.289  17.471  66.424  1.00  0.00    -0.297 A  
HETATM   27  C   UNL     1      -8.129  18.847  66.573  1.00  0.00    -0.298 A  
HETATM   28  C   UNL     1      -9.120  19.600  67.197  1.00  0.00    -0.393 A  
HETATM   29  C   UNL     1     -10.290  18.988  67.639  1.00  0.00    -0.504 A  
HETATM   30  C   UNL     1     -10.456  17.611  67.489  1.00  0.00    -0.365 A  
ENDBRANCH  24  25
ENDBRANCH  21  24
ENDBRANCH  20  21
ENDBRANCH  19  20
ENDBRANCH  18  19
ENDBRANCH  17  18
ENDBRANCH  16  17
ENDBRANCH  15  16
ENDBRANCH  12  15
ENDBRANCH   6   9
ENDBRANCH   5   6
ENDBRANCH   2   5
TORSDOF 12
ENDMDL
MODEL       99
REMARK 921   NORMALIZED FREE ENERGY PREDICTED BY IDOCK:   -4.67 KCAL/MOL
REMARK 922        TOTAL FREE ENERGY PREDICTED BY IDOCK:   -9.21 KCAL/MOL
REMARK 923 INTER-LIGAND FREE ENERGY PREDICTED BY IDOCK:   -7.81 KCAL/MOL
REMARK 924 INTRA-LIGAND FREE ENERGY PREDICTED BY IDOCK:   -1.41 KCAL/MOL
REMARK 927      BINDING AFFINITY PREDICTED BY RF-SCORE:    0.00 PKD
ROOT
HETATM    1  C   UNL     1     -11.568   6.387  69.907  1.00  0.00    -0.422 C  
HETATM    2  C   UNL     1     -10.622   5.894  71.011  1.00  0.00    -0.312 C  
HETATM    3  C   UNL     1     -11.394   5.736  72.328  1.00  0.00    -0.334 C  
HETATM    4  C   UNL     1     -10.160   4.472  70.592  1.00  0.00    -0.232 C  
ENDROOT
BRANCH   2   5
HETATM    5  C   UNL     1      -9.339   6.774  71.159  1.00  0.00    -0.159 C  
BRANCH   5   6
HETATM    6  C   UNL     1      -9.295   8.187  71.857  1.00  0.00    -0.251 C  
HETATM    7  C   UNL     1      -8.731   8.130  73.295  1.00  0.00    -0.313 C  
HETATM    8  C   UNL     1     -10.692   8.835  71.953  1.00  0.00    -0.429 C  
BRANCH   6   9
HETATM    9  C   UNL     1      -8.329   9.074  71.024  1.00  0.00    -0.237 A  
HETATM   10  C   UNL     1      -8.754   9.876  69.950  1.00  0.00    -0.225 A  
HETATM   11  C   UNL     1      -7.855  10.663  69.229  1.00  0.00    -0.140 A  
HETATM   12  C   UNL     1      -6.502  10.662  69.546  1.00  0.00    -0.078 A  
HETATM   13  C   UNL     1      -6.950   9.082  71.320  1.00  0.00    -0.089 A  
HETATM   14  C   UNL     1      -6.046   9.861  70.588  1.00  0.00    -0.095 A  
BRANCH  12  15
HETATM   15  O   UNL     1      -5.727  11.454  68.744  1.00  0.00    -0.043 OA 
BRANCH  15  16
HETATM   16  C   UNL     1      -6.422  12.269  67.811  1.00  0.00    -0.106 C  
BRANCH  16  17
HETATM   17  C   UNL     1      -6.029  13.725  68.071  1.00  0.00    -0.135 C  
BRANCH  17  18
HETATM   18  O   UNL     1      -7.122  14.636  68.244  1.00  0.00    -0.099 OA 
BRANCH  18  19
HETATM   19  C   UNL     1      -8.009  14.801  67.142  1.00  0.00    -0.174 C  
BRANCH  19  20
HETATM   20  C   UNL     1      -9.474  14.626  67.563  1.00  0.00    -0.198 C  
BRANCH  20  21
HETATM   21  N   UNL     1     -10.493  14.593  66.414  1.00  0.00    -0.288 N  
HETATM   22  C   UNL     1     -10.510  15.998  65.799  1.00  0.00    -0.374 C  
HETATM   23  C   UNL     1     -10.045  13.612  65.336  1.00  0.00    -0.271 C  
BRANCH  21  24
HETATM   24  C   UNL     1     -11.904  14.240  66.955  1.00  0.00    -0.428 C  
BRANCH  24  25
HETATM   25  C   UNL     1     -11.923  13.463  68.244  1.00  0.00    -0.352 A  
HETATM   26  C   UNL     1     -11.732  12.073  68.229  1.00  0.00    -0.396 A  
HETATM   27  C   UNL     1     -11.898  11.326  69.393  1.00  0.00    -0.424 A  
HETATM   28  C   UNL     1     -12.235  11.960  70.585  1.00  0.00    -0.424 A  
HETATM   29  C   UNL     1     -12.368  13.346  70.627  1.00  0.00    -0.423 A  
HETATM   30  C   UNL     1     -12.199  14.098  69.465  1.00  0.00    -0.351 A  
ENDBRANCH  24  25
ENDBRANCH  21  24
ENDBRANCH  20  21
ENDBRANCH  19  20
ENDBRANCH  18  19
ENDBRANCH  17  18
ENDBRANCH  16  17
ENDBRANCH  15  16
ENDBRANCH  12  15
ENDBRANCH   6   9
ENDBRANCH   5   6
ENDBRANCH   2   5
TORSDOF 12
ENDMDL
MODEL      100
REMARK 921   NORMALIZED FREE ENERGY PREDICTED BY IDOCK:   -4.66 KCAL/MOL
REMARK 922        TOTAL FREE ENERGY PREDICTED BY IDOCK:   -9.20 KCAL/MOL
REMARK 923 INTER-LIGAND FREE ENERGY PREDICTED BY IDOCK:   -6.92 KCAL/MOL
REMARK 924 INTRA-LIGAND FREE ENERGY PREDICTED BY IDOCK:   -2.28 KCAL/MOL
REMARK 927      BINDING AFFINITY PREDICTED BY RF-SCORE:    0.00 PKD
ROOT
HETATM    1  C   UNL     1      -9.630   7.535  71.107  1.00  0.00    -0.164 C  
HETATM    2  C   UNL     1     -10.663   6.503  70.634  1.00  0.00    -0.297 C  
HETATM    3  C   UNL     1     -10.124   5.084  70.860  1.00  0.00    -0.302 C  
HETATM    4  C   UNL     1     -11.900   6.663  71.559  1.00  0.00    -0.387 C  
ENDROOT
BRANCH   2   5
HETATM    5  C   UNL     1     -11.146   6.745  69.167  1.00  0.00    -0.270 C  
BRANCH   5   6
HETATM    6  C   UNL     1     -10.205   6.757  67.902  1.00  0.00    -0.207 C  
HETATM    7  C   UNL     1     -10.651   5.758  66.812  1.00  0.00    -0.373 C  
HETATM    8  C   UNL     1      -8.745   6.406  68.257  1.00  0.00    -0.116 C  
BRANCH   6   9
HETATM    9  C   UNL     1     -10.298   8.179  67.283  1.00  0.00    -0.373 A  
HETATM   10  C   UNL     1      -9.781   8.502  66.016  1.00  0.00    -0.195 A  
HETATM   11  C   UNL     1      -9.890   9.791  65.492  1.00  0.00    -0.378 A  
HETATM   12  C   UNL     1     -10.504  10.801  66.223  1.00  0.00    -0.226 A  
HETATM   13  C   UNL     1     -10.908   9.224  68.009  1.00  0.00    -0.166 A  
HETATM   14  C   UNL     1     -11.005  10.520  67.490  1.00  0.00    -0.365 A  
BRANCH  12  15
HETATM   15  O   UNL     1     -10.519  12.023  65.608  1.00  0.00    -0.240 OA 
BRANCH  15  16
HETATM   16  C   UNL     1     -11.777  12.459  65.114  1.00  0.00    -0.382 C  
BRANCH  16  17
HETATM   17  C   UNL     1     -12.344  13.482  66.101  1.00  0.00    -0.407 C  
BRANCH  17  18
HETATM   18  O   UNL     1     -11.425  14.491  66.538  1.00  0.00    -0.345 OA 
BRANCH  18  19
HETATM   19  C   UNL     1     -11.203  14.603  67.940  1.00  0.00    -0.304 C  
BRANCH  19  20
HETATM   20  C   UNL     1      -9.890  13.928  68.361  1.00  0.00    -0.229 C  
BRANCH  20  21
HETATM   21  N   UNL     1      -8.635  14.807  68.272  1.00  0.00    -0.157 N  
HETATM   22  C   UNL     1      -8.471  15.194  66.796  1.00  0.00    -0.237 C  
HETATM   23  C   UNL     1      -8.827  16.088  69.076  1.00  0.00    -0.244 C  
BRANCH  21  24
HETATM   24  C   UNL     1      -7.387  14.016  68.748  1.00  0.00    -0.127 C  
BRANCH  24  25
HETATM   25  C   UNL     1      -7.333  12.577  68.310  1.00  0.00    -0.115 A  
HETATM   26  C   UNL     1      -7.693  11.557  69.204  1.00  0.00     0.030 A  
HETATM   27  C   UNL     1      -7.502  10.220  68.862  1.00  0.00    -0.094 A  
HETATM   28  C   UNL     1      -6.969   9.889  67.620  1.00  0.00    -0.086 A  
HETATM   29  C   UNL     1      -6.664  10.889  66.700  1.00  0.00    -0.127 A  
HETATM   30  C   UNL     1      -6.857  12.229  67.036  1.00  0.00    -0.034 A  
ENDBRANCH  24  25
ENDBRANCH  21  24
ENDBRANCH  20  21
ENDBRANCH  19  20
ENDBRANCH  18  19
ENDBRANCH  17  18
ENDBRANCH  16  17
ENDBRANCH  15  16
ENDBRANCH  12  15
ENDBRANCH   6   9
ENDBRANCH   5   6
ENDBRANCH   2   5
TORSDOF 12
ENDMDL
MODEL      101
REMARK 921   NORMALIZED FREE ENERGY PREDICTED BY IDOCK:   -4.66 KCAL/MOL
REMARK 922        TOTAL FREE ENERGY PREDICTED BY IDOCK:   -9.20 KCAL/MOL
REMARK 923 INTER-LIGAND FREE ENERGY PREDICTED BY IDOCK:   -8.56 KCAL/MOL
REMARK 924 INTRA-LIGAND FREE ENERGY PREDICTED BY IDOCK:   -0.63 KCAL/MOL
REMARK 927      BINDING AFFINITY PREDICTED BY RF-SCORE:    0.00 PKD
ROOT
HETATM    1  C   UNL     1      -9.450   5.637  69.213  1.00  0.00    -0.167 C  
HETATM    2  C   UNL     1     -10.523   6.687  68.896  1.00  0.00    -0.239 C  
HETATM    3  C   UNL     1     -11.165   6.384  67.535  1.00  0.00    -0.278 C  
HETATM    4  C   UNL     1     -11.638   6.514  69.963  1.00  0.00    -0.455 C  
ENDROOT
BRANCH   2   5
HETATM    5  C   UNL     1      -9.997   8.156  69.008  1.00  0.00    -0.191 C  
BRANCH   5   6
HETATM    6  C   UNL     1      -8.950   8.811  68.028  1.00  0.00    -0.141 C  
HETATM    7  C   UNL     1      -8.241   7.776  67.126  1.00  0.00    -0.118 C  
HETATM    8  C   UNL     1      -7.843   9.576  68.783  1.00  0.00    -0.084 C  
BRANCH   6   9
HETATM    9  C   UNL     1      -9.742   9.765  67.092  1.00  0.00    -0.223 A  
HETATM   10  C   UNL     1     -10.676  10.704  67.562  1.00  0.00    -0.321 A  
HETATM   11  C   UNL     1     -11.365  11.548  66.689  1.00  0.00    -0.285 A  
HETATM   12  C   UNL     1     -11.153  11.468  65.318  1.00  0.00    -0.191 A  
HETATM   13  C   UNL     1      -9.553   9.698  65.695  1.00  0.00    -0.338 A  
HETATM   14  C   UNL     1     -10.253  10.533  64.818  1.00  0.00    -0.373 A  
BRANCH  12  15
HETATM   15  O   UNL     1     -11.911  12.330  64.572  1.00  0.00    -0.380 OA 
BRANCH  15  16
HETATM   16  C   UNL     1     -12.463  13.439  65.268  1.00  0.00    -0.483 C  
BRANCH  16  17
HETATM   17  C   UNL     1     -11.747  14.703  64.785  1.00  0.00    -0.428 C  
BRANCH  17  18
HETATM   18  O   UNL     1     -10.316  14.644  64.801  1.00  0.00    -0.396 OA 
BRANCH  18  19
HETATM   19  C   UNL     1      -9.645  15.442  65.771  1.00  0.00    -0.333 C  
BRANCH  19  20
HETATM   20  C   UNL     1     -10.632  16.101  66.745  1.00  0.00    -0.277 C  
BRANCH  20  21
HETATM   21  N   UNL     1     -10.000  16.787  67.964  1.00  0.00    -0.263 N  
HETATM   22  C   UNL     1     -10.566  18.212  68.012  1.00  0.00    -0.341 C  
HETATM   23  C   UNL     1     -10.413  16.074  69.247  1.00  0.00    -0.257 C  
BRANCH  21  24
HETATM   24  C   UNL     1      -8.456  16.840  67.813  1.00  0.00    -0.193 C  
BRANCH  24  25
HETATM   25  C   UNL     1      -7.888  18.197  67.492  1.00  0.00    -0.223 A  
HETATM   26  C   UNL     1      -7.597  18.538  66.162  1.00  0.00    -0.273 A  
HETATM   27  C   UNL     1      -6.932  19.727  65.869  1.00  0.00    -0.302 A  
HETATM   28  C   UNL     1      -6.571  20.594  66.897  1.00  0.00    -0.323 A  
HETATM   29  C   UNL     1      -6.907  20.295  68.215  1.00  0.00    -0.320 A  
HETATM   30  C   UNL     1      -7.576  19.108  68.512  1.00  0.00    -0.369 A  
ENDBRANCH  24  25
ENDBRANCH  21  24
ENDBRANCH  20  21
ENDBRANCH  19  20
ENDBRANCH  18  19
ENDBRANCH  17  18
ENDBRANCH  16  17
ENDBRANCH  15  16
ENDBRANCH  12  15
ENDBRANCH   6   9
ENDBRANCH   5   6
ENDBRANCH   2   5
TORSDOF 12
ENDMDL
MODEL      102
REMARK 921   NORMALIZED FREE ENERGY PREDICTED BY IDOCK:   -4.64 KCAL/MOL
REMARK 922        TOTAL FREE ENERGY PREDICTED BY IDOCK:   -9.17 KCAL/MOL
REMARK 923 INTER-LIGAND FREE ENERGY PREDICTED BY IDOCK:   -7.77 KCAL/MOL
REMARK 924 INTRA-LIGAND FREE ENERGY PREDICTED BY IDOCK:   -1.39 KCAL/MOL
REMARK 927      BINDING AFFINITY PREDICTED BY RF-SCORE:    0.00 PKD
ROOT
HETATM    1  C   UNL     1     -12.244   7.225  70.756  1.00  0.00    -0.256 C  
HETATM    2  C   UNL     1     -10.952   7.042  71.563  1.00  0.00    -0.260 C  
HETATM    3  C   UNL     1     -10.812   8.176  72.588  1.00  0.00    -0.429 C  
HETATM    4  C   UNL     1     -11.121   5.728  72.373  1.00  0.00    -0.332 C  
ENDROOT
BRANCH   2   5
HETATM    5  C   UNL     1      -9.684   6.873  70.664  1.00  0.00    -0.180 C  
BRANCH   5   6
HETATM    6  C   UNL     1      -9.714   6.608  69.110  1.00  0.00    -0.148 C  
HETATM    7  C   UNL     1     -11.069   6.051  68.622  1.00  0.00    -0.293 C  
HETATM    8  C   UNL     1      -8.633   5.599  68.669  1.00  0.00    -0.104 C  
BRANCH   6   9
HETATM    9  C   UNL     1      -9.507   7.981  68.414  1.00  0.00    -0.148 A  
HETATM   10  C   UNL     1     -10.040   8.290  67.149  1.00  0.00    -0.334 A  
HETATM   11  C   UNL     1      -9.836   9.538  66.559  1.00  0.00    -0.305 A  
HETATM   12  C   UNL     1      -9.083  10.511  67.204  1.00  0.00    -0.143 A  
HETATM   13  C   UNL     1      -8.739   8.982  69.044  1.00  0.00    -0.138 A  
HETATM   14  C   UNL     1      -8.523  10.229  68.446  1.00  0.00    -0.124 A  
BRANCH  12  15
HETATM   15  O   UNL     1      -8.937  11.678  66.505  1.00  0.00    -0.184 OA 
BRANCH  15  16
HETATM   16  C   UNL     1     -10.123  12.223  65.944  1.00  0.00    -0.251 C  
BRANCH  16  17
HETATM   17  C   UNL     1     -10.047  13.747  66.069  1.00  0.00    -0.311 C  
BRANCH  17  18
HETATM   18  O   UNL     1      -8.817  14.261  66.594  1.00  0.00    -0.223 OA 
BRANCH  18  19
HETATM   19  C   UNL     1      -8.908  15.328  67.533  1.00  0.00    -0.179 C  
BRANCH  19  20
HETATM   20  C   UNL     1      -9.499  14.857  68.869  1.00  0.00    -0.209 C  
BRANCH  20  21
HETATM   21  N   UNL     1     -10.823  15.520  69.278  1.00  0.00    -0.235 N  
HETATM   22  C   UNL     1     -10.827  15.590  70.810  1.00  0.00    -0.261 C  
HETATM   23  C   UNL     1     -10.890  16.945  68.741  1.00  0.00    -0.289 C  
BRANCH  21  24
HETATM   24  C   UNL     1     -12.025  14.669  68.787  1.00  0.00    -0.266 C  
BRANCH  24  25
HETATM   25  C   UNL     1     -12.252  13.384  69.538  1.00  0.00    -0.260 A  
HETATM   26  C   UNL     1     -12.903  13.404  70.782  1.00  0.00    -0.221 A  
HETATM   27  C   UNL     1     -12.982  12.247  71.554  1.00  0.00    -0.390 A  
HETATM   28  C   UNL     1     -12.432  11.057  71.084  1.00  0.00    -0.502 A  
HETATM   29  C   UNL     1     -11.837  11.010  69.825  1.00  0.00    -0.421 A  
HETATM   30  C   UNL     1     -11.758  12.165  69.048  1.00  0.00    -0.377 A  
ENDBRANCH  24  25
ENDBRANCH  21  24
ENDBRANCH  20  21
ENDBRANCH  19  20
ENDBRANCH  18  19
ENDBRANCH  17  18
ENDBRANCH  16  17
ENDBRANCH  15  16
ENDBRANCH  12  15
ENDBRANCH   6   9
ENDBRANCH   5   6
ENDBRANCH   2   5
TORSDOF 12
ENDMDL
MODEL      103
REMARK 921   NORMALIZED FREE ENERGY PREDICTED BY IDOCK:   -4.64 KCAL/MOL
REMARK 922        TOTAL FREE ENERGY PREDICTED BY IDOCK:   -9.16 KCAL/MOL
REMARK 923 INTER-LIGAND FREE ENERGY PREDICTED BY IDOCK:   -8.72 KCAL/MOL
REMARK 924 INTRA-LIGAND FREE ENERGY PREDICTED BY IDOCK:   -0.45 KCAL/MOL
REMARK 927      BINDING AFFINITY PREDICTED BY RF-SCORE:    0.00 PKD
ROOT
HETATM    1  C   UNL     1      -9.558   4.522  67.822  1.00  0.00    -0.208 C  
HETATM    2  C   UNL     1      -9.514   6.041  67.611  1.00  0.00    -0.112 C  
HETATM    3  C   UNL     1      -8.692   6.370  66.358  1.00  0.00    -0.140 C  
HETATM    4  C   UNL     1     -10.972   6.487  67.318  1.00  0.00    -0.475 C  
ENDROOT
BRANCH   2   5
HETATM    5  C   UNL     1      -9.035   6.823  68.877  1.00  0.00    -0.131 C  
BRANCH   5   6
HETATM    6  C   UNL     1      -9.726   6.751  70.293  1.00  0.00    -0.179 C  
HETATM    7  C   UNL     1      -8.712   6.602  71.449  1.00  0.00    -0.129 C  
HETATM    8  C   UNL     1     -10.706   5.565  70.404  1.00  0.00    -0.321 C  
BRANCH   6   9
HETATM    9  C   UNL     1     -10.463   8.102  70.505  1.00  0.00    -0.222 A  
HETATM   10  C   UNL     1     -11.458   8.290  71.480  1.00  0.00    -0.325 A  
HETATM   11  C   UNL     1     -12.094   9.522  71.643  1.00  0.00    -0.474 A  
HETATM   12  C   UNL     1     -11.769  10.599  70.828  1.00  0.00    -0.335 A  
HETATM   13  C   UNL     1     -10.158   9.208  69.684  1.00  0.00    -0.206 A  
HETATM   14  C   UNL     1     -10.805  10.439  69.837  1.00  0.00    -0.353 A  
BRANCH  12  15
HETATM   15  O   UNL     1     -12.486  11.738  71.073  1.00  0.00    -0.372 OA 
BRANCH  15  16
HETATM   16  C   UNL     1     -12.351  12.779  70.115  1.00  0.00    -0.165 C  
BRANCH  16  17
HETATM   17  C   UNL     1     -12.343  14.113  70.866  1.00  0.00    -0.368 C  
BRANCH  17  18
HETATM   18  O   UNL     1     -12.034  15.265  70.071  1.00  0.00    -0.300 OA 
BRANCH  18  19
HETATM   19  C   UNL     1     -11.786  15.049  68.686  1.00  0.00    -0.337 C  
BRANCH  19  20
HETATM   20  C   UNL     1     -11.157  16.282  68.023  1.00  0.00    -0.299 C  
BRANCH  20  21
HETATM   21  N   UNL     1      -9.672  16.150  67.654  1.00  0.00    -0.231 N  
HETATM   22  C   UNL     1      -8.979  17.426  68.149  1.00  0.00    -0.260 C  
HETATM   23  C   UNL     1      -9.049  14.963  68.379  1.00  0.00    -0.185 C  
BRANCH  21  24
HETATM   24  C   UNL     1      -9.509  16.029  66.115  1.00  0.00    -0.336 C  
BRANCH  24  25
HETATM   25  C   UNL     1     -10.354  14.969  65.461  1.00  0.00    -0.397 A  
HETATM   26  C   UNL     1     -11.483  15.335  64.711  1.00  0.00    -0.364 A  
HETATM   27  C   UNL     1     -12.356  14.362  64.230  1.00  0.00    -0.402 A  
HETATM   28  C   UNL     1     -12.100  13.015  64.475  1.00  0.00    -0.468 A  
HETATM   29  C   UNL     1     -10.952  12.635  65.167  1.00  0.00    -0.324 A  
HETATM   30  C   UNL     1     -10.074  13.606  65.646  1.00  0.00    -0.299 A  
ENDBRANCH  24  25
ENDBRANCH  21  24
ENDBRANCH  20  21
ENDBRANCH  19  20
ENDBRANCH  18  19
ENDBRANCH  17  18
ENDBRANCH  16  17
ENDBRANCH  15  16
ENDBRANCH  12  15
ENDBRANCH   6   9
ENDBRANCH   5   6
ENDBRANCH   2   5
TORSDOF 12
ENDMDL
MODEL      104
REMARK 921   NORMALIZED FREE ENERGY PREDICTED BY IDOCK:   -4.64 KCAL/MOL
REMARK 922        TOTAL FREE ENERGY PREDICTED BY IDOCK:   -9.16 KCAL/MOL
REMARK 923 INTER-LIGAND FREE ENERGY PREDICTED BY IDOCK:   -8.80 KCAL/MOL
REMARK 924 INTRA-LIGAND FREE ENERGY PREDICTED BY IDOCK:   -0.35 KCAL/MOL
REMARK 927      BINDING AFFINITY PREDICTED BY RF-SCORE:    0.00 PKD
ROOT
HETATM    1  C   UNL     1      -7.756   7.043  69.097  1.00  0.00    -0.105 C  
HETATM    2  C   UNL     1      -9.120   6.356  69.252  1.00  0.00    -0.136 C  
HETATM    3  C   UNL     1      -9.717   6.063  67.869  1.00  0.00    -0.123 C  
HETATM    4  C   UNL     1      -8.847   4.982  69.921  1.00  0.00    -0.130 C  
ENDROOT
BRANCH   2   5
HETATM    5  C   UNL     1     -10.100   7.140  70.185  1.00  0.00    -0.195 C  
BRANCH   5   6
HETATM    6  C   UNL     1      -9.947   8.661  70.573  1.00  0.00    -0.220 C  
HETATM    7  C   UNL     1      -8.657   8.949  71.374  1.00  0.00    -0.238 C  
HETATM    8  C   UNL     1     -11.125   9.166  71.431  1.00  0.00    -0.415 C  
BRANCH   6   9
HETATM    9  C   UNL     1      -9.846   9.459  69.244  1.00  0.00    -0.176 A  
HETATM   10  C   UNL     1     -10.853   9.448  68.262  1.00  0.00    -0.163 A  
HETATM   11  C   UNL     1     -10.727  10.183  67.082  1.00  0.00    -0.286 A  
HETATM   12  C   UNL     1      -9.587  10.939  66.839  1.00  0.00    -0.178 A  
HETATM   13  C   UNL     1      -8.695  10.226  68.969  1.00  0.00    -0.164 A  
HETATM   14  C   UNL     1      -8.562  10.953  67.780  1.00  0.00    -0.128 A  
BRANCH  12  15
HETATM   15  O   UNL     1      -9.578  11.588  65.635  1.00  0.00    -0.223 OA 
BRANCH  15  16
HETATM   16  C   UNL     1     -10.600  11.220  64.719  1.00  0.00    -0.312 C  
BRANCH  16  17
HETATM   17  C   UNL     1     -11.396  12.479  64.368  1.00  0.00    -0.343 C  
BRANCH  17  18
HETATM   18  O   UNL     1     -12.581  12.695  65.145  1.00  0.00    -0.594 OA 
BRANCH  18  19
HETATM   19  C   UNL     1     -12.621  13.866  65.954  1.00  0.00    -0.456 C  
BRANCH  19  20
HETATM   20  C   UNL     1     -11.994  13.623  67.334  1.00  0.00    -0.376 C  
BRANCH  20  21
HETATM   21  N   UNL     1     -11.163  14.785  67.897  1.00  0.00    -0.293 N  
HETATM   22  C   UNL     1      -9.901  14.168  68.513  1.00  0.00    -0.230 C  
HETATM   23  C   UNL     1     -10.731  15.721  66.774  1.00  0.00    -0.293 C  
BRANCH  21  24
HETATM   24  C   UNL     1     -11.965  15.540  68.992  1.00  0.00    -0.301 C  
BRANCH  24  25
HETATM   25  C   UNL     1     -12.480  14.683  70.117  1.00  0.00    -0.369 A  
HETATM   26  C   UNL     1     -12.044  13.355  70.244  1.00  0.00    -0.419 A  
HETATM   27  C   UNL     1     -12.626  12.509  71.185  1.00  0.00    -0.349 A  
HETATM   28  C   UNL     1     -13.633  12.985  72.021  1.00  0.00    -0.530 A  
HETATM   29  C   UNL     1     -14.033  14.317  71.945  1.00  0.00    -0.566 A  
HETATM   30  C   UNL     1     -13.450  15.168  71.007  1.00  0.00    -0.493 A  
ENDBRANCH  24  25
ENDBRANCH  21  24
ENDBRANCH  20  21
ENDBRANCH  19  20
ENDBRANCH  18  19
ENDBRANCH  17  18
ENDBRANCH  16  17
ENDBRANCH  15  16
ENDBRANCH  12  15
ENDBRANCH   6   9
ENDBRANCH   5   6
ENDBRANCH   2   5
TORSDOF 12
ENDMDL
MODEL      105
REMARK 921   NORMALIZED FREE ENERGY PREDICTED BY IDOCK:   -4.62 KCAL/MOL
REMARK 922        TOTAL FREE ENERGY PREDICTED BY IDOCK:   -9.12 KCAL/MOL
REMARK 923 INTER-LIGAND FREE ENERGY PREDICTED BY IDOCK:   -7.09 KCAL/MOL
REMARK 924 INTRA-LIGAND FREE ENERGY PREDICTED BY IDOCK:   -2.03 KCAL/MOL
REMARK 927      BINDING AFFINITY PREDICTED BY RF-SCORE:    0.00 PKD
ROOT
HETATM    1  C   UNL     1      -9.164   7.231  71.012  1.00  0.00    -0.154 C  
HETATM    2  C   UNL     1      -9.870   6.366  69.960  1.00  0.00    -0.193 C  
HETATM    3  C   UNL     1      -9.326   4.932  70.012  1.00  0.00    -0.207 C  
HETATM    4  C   UNL     1     -11.363   6.292  70.380  1.00  0.00    -0.440 C  
ENDROOT
BRANCH   2   5
HETATM    5  C   UNL     1      -9.822   6.984  68.524  1.00  0.00    -0.147 C  
BRANCH   5   6
HETATM    6  C   UNL     1      -8.499   7.333  67.740  1.00  0.00    -0.121 C  
HETATM    7  C   UNL     1      -7.995   6.165  66.863  1.00  0.00    -0.105 C  
HETATM    8  C   UNL     1      -7.342   7.710  68.687  1.00  0.00    -0.091 C  
BRANCH   6   9
HETATM    9  C   UNL     1      -8.838   8.509  66.783  1.00  0.00    -0.158 A  
HETATM   10  C   UNL     1      -7.857   9.280  66.135  1.00  0.00    -0.099 A  
HETATM   11  C   UNL     1      -8.202  10.326  65.277  1.00  0.00    -0.161 A  
HETATM   12  C   UNL     1      -9.536  10.644  65.053  1.00  0.00    -0.265 A  
HETATM   13  C   UNL     1     -10.184   8.858  66.546  1.00  0.00    -0.319 A  
HETATM   14  C   UNL     1     -10.531   9.916  65.698  1.00  0.00     0.026 A  
BRANCH  12  15
HETATM   15  O   UNL     1      -9.736  11.707  64.215  1.00  0.00    -0.230 OA 
BRANCH  15  16
HETATM   16  C   UNL     1     -10.732  11.538  63.217  1.00  0.00    -0.302 C  
BRANCH  16  17
HETATM   17  C   UNL     1     -11.862  12.531  63.502  1.00  0.00    -0.534 C  
BRANCH  17  18
HETATM   18  O   UNL     1     -11.481  13.703  64.233  1.00  0.00    -0.380 OA 
BRANCH  18  19
HETATM   19  C   UNL     1     -12.290  14.063  65.347  1.00  0.00    -0.478 C  
BRANCH  19  20
HETATM   20  C   UNL     1     -11.702  13.545  66.667  1.00  0.00    -0.387 C  
BRANCH  20  21
HETATM   21  N   UNL     1     -10.621  14.432  67.303  1.00  0.00    -0.276 N  
HETATM   22  C   UNL     1      -9.280  13.994  66.700  1.00  0.00    -0.244 C  
HETATM   23  C   UNL     1     -10.850  15.893  66.933  1.00  0.00    -0.240 C  
BRANCH  21  24
HETATM   24  C   UNL     1     -10.596  14.230  68.842  1.00  0.00    -0.245 C  
BRANCH  24  25
HETATM   25  C   UNL     1     -10.811  12.815  69.308  1.00  0.00    -0.044 A  
HETATM   26  C   UNL     1      -9.835  11.838  69.057  1.00  0.00     0.079 A  
HETATM   27  C   UNL     1     -10.088  10.499  69.347  1.00  0.00    -0.233 A  
HETATM   28  C   UNL     1     -11.307  10.126  69.908  1.00  0.00    -0.335 A  
HETATM   29  C   UNL     1     -12.260  11.094  70.217  1.00  0.00    -0.436 A  
HETATM   30  C   UNL     1     -12.009  12.436  69.932  1.00  0.00    -0.369 A  
ENDBRANCH  24  25
ENDBRANCH  21  24
ENDBRANCH  20  21
ENDBRANCH  19  20
ENDBRANCH  18  19
ENDBRANCH  17  18
ENDBRANCH  16  17
ENDBRANCH  15  16
ENDBRANCH  12  15
ENDBRANCH   6   9
ENDBRANCH   5   6
ENDBRANCH   2   5
TORSDOF 12
ENDMDL
MODEL      106
REMARK 921   NORMALIZED FREE ENERGY PREDICTED BY IDOCK:   -4.61 KCAL/MOL
REMARK 922        TOTAL FREE ENERGY PREDICTED BY IDOCK:   -9.11 KCAL/MOL
REMARK 923 INTER-LIGAND FREE ENERGY PREDICTED BY IDOCK:   -8.99 KCAL/MOL
REMARK 924 INTRA-LIGAND FREE ENERGY PREDICTED BY IDOCK:   -0.13 KCAL/MOL
REMARK 927      BINDING AFFINITY PREDICTED BY RF-SCORE:    0.00 PKD
ROOT
HETATM    1  C   UNL     1      -9.918   4.139  71.572  1.00  0.00    -0.230 C  
HETATM    2  C   UNL     1     -10.399   5.214  72.556  1.00  0.00    -0.254 C  
HETATM    3  C   UNL     1     -11.187   4.561  73.699  1.00  0.00    -0.346 C  
HETATM    4  C   UNL     1      -9.124   5.833  73.190  1.00  0.00    -0.127 C  
ENDROOT
BRANCH   2   5
HETATM    5  C   UNL     1     -11.183   6.376  71.862  1.00  0.00    -0.325 C  
BRANCH   5   6
HETATM    6  C   UNL     1     -10.764   7.054  70.501  1.00  0.00    -0.262 C  
HETATM    7  C   UNL     1     -11.410   6.379  69.270  1.00  0.00    -0.405 C  
HETATM    8  C   UNL     1      -9.239   7.022  70.278  1.00  0.00    -0.156 C  
BRANCH   6   9
HETATM    9  C   UNL     1     -11.287   8.516  70.546  1.00  0.00    -0.235 A  
HETATM   10  C   UNL     1     -10.897   9.501  69.622  1.00  0.00    -0.255 A  
HETATM   11  C   UNL     1     -11.394  10.804  69.692  1.00  0.00    -0.362 A  
HETATM   12  C   UNL     1     -12.283  11.167  70.696  1.00  0.00    -0.397 A  
HETATM   13  C   UNL     1     -12.184   8.913  71.560  1.00  0.00    -0.388 A  
HETATM   14  C   UNL     1     -12.672  10.222  71.640  1.00  0.00    -0.561 A  
BRANCH  12  15
HETATM   15  O   UNL     1     -12.670  12.479  70.668  1.00  0.00    -0.182 OA 
BRANCH  15  16
HETATM   16  C   UNL     1     -11.710  13.404  70.178  1.00  0.00    -0.196 C  
BRANCH  16  17
HETATM   17  C   UNL     1     -12.407  14.317  69.165  1.00  0.00    -0.130 C  
BRANCH  17  18
HETATM   18  O   UNL     1     -11.812  15.608  68.990  1.00  0.00    -0.376 OA 
BRANCH  18  19
HETATM   19  C   UNL     1     -11.011  15.801  67.829  1.00  0.00    -0.314 C  
BRANCH  19  20
HETATM   20  C   UNL     1      -9.950  16.889  68.046  1.00  0.00    -0.279 C  
BRANCH  20  21
HETATM   21  N   UNL     1      -9.557  17.689  66.796  1.00  0.00    -0.283 N  
HETATM   22  C   UNL     1      -8.195  17.152  66.338  1.00  0.00    -0.292 C  
HETATM   23  C   UNL     1     -10.560  17.446  65.674  1.00  0.00    -0.153 C  
BRANCH  21  24
HETATM   24  C   UNL     1      -9.438  19.199  67.137  1.00  0.00    -0.314 C  
BRANCH  24  25
HETATM   25  C   UNL     1      -8.091  19.638  67.647  1.00  0.00    -0.325 A  
HETATM   26  C   UNL     1      -7.680  19.279  68.940  1.00  0.00    -0.376 A  
HETATM   27  C   UNL     1      -6.507  19.805  69.478  1.00  0.00    -0.383 A  
HETATM   28  C   UNL     1      -5.725  20.676  68.724  1.00  0.00    -0.376 A  
HETATM   29  C   UNL     1      -6.091  20.993  67.418  1.00  0.00    -0.376 A  
HETATM   30  C   UNL     1      -7.262  20.465  66.874  1.00  0.00    -0.333 A  
ENDBRANCH  24  25
ENDBRANCH  21  24
ENDBRANCH  20  21
ENDBRANCH  19  20
ENDBRANCH  18  19
ENDBRANCH  17  18
ENDBRANCH  16  17
ENDBRANCH  15  16
ENDBRANCH  12  15
ENDBRANCH   6   9
ENDBRANCH   5   6
ENDBRANCH   2   5
TORSDOF 12
ENDMDL
MODEL      107
REMARK 921   NORMALIZED FREE ENERGY PREDICTED BY IDOCK:   -4.61 KCAL/MOL
REMARK 922        TOTAL FREE ENERGY PREDICTED BY IDOCK:   -9.11 KCAL/MOL
REMARK 923 INTER-LIGAND FREE ENERGY PREDICTED BY IDOCK:   -8.48 KCAL/MOL
REMARK 924 INTRA-LIGAND FREE ENERGY PREDICTED BY IDOCK:   -0.63 KCAL/MOL
REMARK 927      BINDING AFFINITY PREDICTED BY RF-SCORE:    0.00 PKD
ROOT
HETATM    1  C   UNL     1      -9.200   7.256  71.352  1.00  0.00    -0.145 C  
HETATM    2  C   UNL     1     -10.466   6.750  70.649  1.00  0.00    -0.243 C  
HETATM    3  C   UNL     1     -10.377   5.232  70.440  1.00  0.00    -0.345 C  
HETATM    4  C   UNL     1     -11.643   6.996  71.632  1.00  0.00    -0.320 C  
ENDROOT
BRANCH   2   5
HETATM    5  C   UNL     1     -10.791   7.528  69.332  1.00  0.00    -0.161 C  
BRANCH   5   6
HETATM    6  C   UNL     1     -10.030   7.335  67.965  1.00  0.00    -0.186 C  
HETATM    7  C   UNL     1     -10.663   6.244  67.073  1.00  0.00    -0.435 C  
HETATM    8  C   UNL     1      -8.553   6.940  68.169  1.00  0.00    -0.123 C  
BRANCH   6   9
HETATM    9  C   UNL     1     -10.143   8.678  67.191  1.00  0.00    -0.329 A  
HETATM   10  C   UNL     1      -9.698   8.843  65.868  1.00  0.00    -0.259 A  
HETATM   11  C   UNL     1      -9.822  10.065  65.205  1.00  0.00    -0.388 A  
HETATM   12  C   UNL     1     -10.380  11.164  65.847  1.00  0.00    -0.259 A  
HETATM   13  C   UNL     1     -10.697   9.810  67.824  1.00  0.00    -0.329 A  
HETATM   14  C   UNL     1     -10.809  11.040  67.165  1.00  0.00    -0.336 A  
BRANCH  12  15
HETATM   15  O   UNL     1     -10.417  12.306  65.096  1.00  0.00    -0.271 OA 
BRANCH  15  16
HETATM   16  C   UNL     1     -11.628  12.556  64.396  1.00  0.00    -0.358 C  
BRANCH  16  17
HETATM   17  C   UNL     1     -12.462  13.532  65.230  1.00  0.00    -0.482 C  
BRANCH  17  18
HETATM   18  O   UNL     1     -11.750  14.659  65.755  1.00  0.00    -0.352 OA 
BRANCH  18  19
HETATM   19  C   UNL     1     -11.587  14.722  67.168  1.00  0.00    -0.359 C  
BRANCH  19  20
HETATM   20  C   UNL     1     -10.114  14.891  67.562  1.00  0.00    -0.228 C  
BRANCH  20  21
HETATM   21  N   UNL     1      -9.601  16.338  67.602  1.00  0.00    -0.226 N  
HETATM   22  C   UNL     1      -8.985  16.626  66.228  1.00  0.00    -0.305 C  
HETATM   23  C   UNL     1     -10.761  17.305  67.811  1.00  0.00    -0.333 C  
BRANCH  21  24
HETATM   24  C   UNL     1      -8.521  16.497  68.706  1.00  0.00    -0.248 C  
BRANCH  24  25
HETATM   25  C   UNL     1      -7.497  17.571  68.453  1.00  0.00    -0.247 A  
HETATM   26  C   UNL     1      -7.851  18.922  68.586  1.00  0.00    -0.375 A  
HETATM   27  C   UNL     1      -6.960  19.924  68.209  1.00  0.00    -0.332 A  
HETATM   28  C   UNL     1      -5.702  19.588  67.716  1.00  0.00    -0.206 A  
HETATM   29  C   UNL     1      -5.316  18.252  67.635  1.00  0.00    -0.150 A  
HETATM   30  C   UNL     1      -6.204  17.246  68.016  1.00  0.00    -0.145 A  
ENDBRANCH  24  25
ENDBRANCH  21  24
ENDBRANCH  20  21
ENDBRANCH  19  20
ENDBRANCH  18  19
ENDBRANCH  17  18
ENDBRANCH  16  17
ENDBRANCH  15  16
ENDBRANCH  12  15
ENDBRANCH   6   9
ENDBRANCH   5   6
ENDBRANCH   2   5
TORSDOF 12
ENDMDL
MODEL      108
REMARK 921   NORMALIZED FREE ENERGY PREDICTED BY IDOCK:   -4.60 KCAL/MOL
REMARK 922        TOTAL FREE ENERGY PREDICTED BY IDOCK:   -9.10 KCAL/MOL
REMARK 923 INTER-LIGAND FREE ENERGY PREDICTED BY IDOCK:   -7.96 KCAL/MOL
REMARK 924 INTRA-LIGAND FREE ENERGY PREDICTED BY IDOCK:   -1.14 KCAL/MOL
REMARK 927      BINDING AFFINITY PREDICTED BY RF-SCORE:    0.00 PKD
ROOT
HETATM    1  C   UNL     1     -11.236   7.709  72.918  1.00  0.00    -0.426 C  
HETATM    2  C   UNL     1      -9.899   7.877  72.184  1.00  0.00    -0.264 C  
HETATM    3  C   UNL     1      -9.927   9.154  71.333  1.00  0.00    -0.373 C  
HETATM    4  C   UNL     1      -8.820   8.095  73.279  1.00  0.00    -0.324 C  
ENDROOT
BRANCH   2   5
HETATM    5  C   UNL     1      -9.483   6.610  71.368  1.00  0.00    -0.161 C  
BRANCH   5   6
HETATM    6  C   UNL     1     -10.189   6.123  70.044  1.00  0.00    -0.250 C  
HETATM    7  C   UNL     1     -11.696   6.462  70.007  1.00  0.00    -0.345 C  
HETATM    8  C   UNL     1     -10.071   4.598  69.847  1.00  0.00    -0.257 C  
BRANCH   6   9
HETATM    9  C   UNL     1      -9.521   6.888  68.868  1.00  0.00    -0.136 A  
HETATM   10  C   UNL     1     -10.251   7.482  67.824  1.00  0.00    -0.257 A  
HETATM   11  C   UNL     1      -9.613   8.166  66.787  1.00  0.00    -0.281 A  
HETATM   12  C   UNL     1      -8.227   8.263  66.752  1.00  0.00    -0.103 A  
HETATM   13  C   UNL     1      -8.115   6.993  68.805  1.00  0.00    -0.121 A  
HETATM   14  C   UNL     1      -7.475   7.666  67.758  1.00  0.00    -0.108 A  
BRANCH  12  15
HETATM   15  O   UNL     1      -7.729   8.934  65.669  1.00  0.00    -0.085 OA 
BRANCH  15  16
HETATM   16  C   UNL     1      -8.435   8.761  64.448  1.00  0.00    -0.129 C  
BRANCH  16  17
HETATM   17  C   UNL     1      -7.991   9.864  63.485  1.00  0.00    -0.155 C  
BRANCH  17  18
HETATM   18  O   UNL     1      -8.955  10.895  63.242  1.00  0.00    -0.205 OA 
BRANCH  18  19
HETATM   19  C   UNL     1     -10.207  10.783  63.911  1.00  0.00    -0.309 C  
BRANCH  19  20
HETATM   20  C   UNL     1     -10.367  11.854  64.999  1.00  0.00    -0.289 C  
BRANCH  20  21
HETATM   21  N   UNL     1     -11.330  13.002  64.661  1.00  0.00    -0.314 N  
HETATM   22  C   UNL     1     -10.514  14.299  64.734  1.00  0.00    -0.395 C  
HETATM   23  C   UNL     1     -11.853  12.853  63.237  1.00  0.00    -0.398 C  
BRANCH  21  24
HETATM   24  C   UNL     1     -12.489  13.053  65.692  1.00  0.00    -0.390 C  
BRANCH  24  25
HETATM   25  C   UNL     1     -12.068  13.235  67.125  1.00  0.00    -0.352 A  
HETATM   26  C   UNL     1     -11.557  12.148  67.851  1.00  0.00    -0.413 A  
HETATM   27  C   UNL     1     -11.307  12.266  69.216  1.00  0.00    -0.317 A  
HETATM   28  C   UNL     1     -11.545  13.475  69.865  1.00  0.00    -0.271 A  
HETATM   29  C   UNL     1     -11.995  14.579  69.145  1.00  0.00    -0.344 A  
HETATM   30  C   UNL     1     -12.242  14.466  67.777  1.00  0.00    -0.190 A  
ENDBRANCH  24  25
ENDBRANCH  21  24
ENDBRANCH  20  21
ENDBRANCH  19  20
ENDBRANCH  18  19
ENDBRANCH  17  18
ENDBRANCH  16  17
ENDBRANCH  15  16
ENDBRANCH  12  15
ENDBRANCH   6   9
ENDBRANCH   5   6
ENDBRANCH   2   5
TORSDOF 12
ENDMDL
MODEL      109
REMARK 921   NORMALIZED FREE ENERGY PREDICTED BY IDOCK:   -4.60 KCAL/MOL
REMARK 922        TOTAL FREE ENERGY PREDICTED BY IDOCK:   -9.09 KCAL/MOL
REMARK 923 INTER-LIGAND FREE ENERGY PREDICTED BY IDOCK:   -8.52 KCAL/MOL
REMARK 924 INTRA-LIGAND FREE ENERGY PREDICTED BY IDOCK:   -0.58 KCAL/MOL
REMARK 927      BINDING AFFINITY PREDICTED BY RF-SCORE:    0.00 PKD
ROOT
HETATM    1  C   UNL     1     -10.366   8.998  71.947  1.00  0.00    -0.357 C  
HETATM    2  C   UNL     1      -9.653   7.744  72.470  1.00  0.00    -0.250 C  
HETATM    3  C   UNL     1      -8.464   8.150  73.352  1.00  0.00    -0.303 C  
HETATM    4  C   UNL     1     -10.665   7.016  73.395  1.00  0.00    -0.379 C  
ENDROOT
BRANCH   2   5
HETATM    5  C   UNL     1      -9.257   6.744  71.336  1.00  0.00    -0.153 C  
BRANCH   5   6
HETATM    6  C   UNL     1     -10.241   6.209  70.226  1.00  0.00    -0.254 C  
HETATM    7  C   UNL     1     -11.725   6.488  70.554  1.00  0.00    -0.438 C  
HETATM    8  C   UNL     1     -10.111   4.687  70.015  1.00  0.00    -0.267 C  
BRANCH   6   9
HETATM    9  C   UNL     1      -9.910   6.980  68.919  1.00  0.00    -0.150 A  
HETATM   10  C   UNL     1     -10.723   6.937  67.773  1.00  0.00    -0.321 A  
HETATM   11  C   UNL     1     -10.394   7.649  66.619  1.00  0.00    -0.258 A  
HETATM   12  C   UNL     1      -9.235   8.413  66.567  1.00  0.00    -0.189 A  
HETATM   13  C   UNL     1      -8.734   7.756  68.837  1.00  0.00    -0.135 A  
HETATM   14  C   UNL     1      -8.396   8.459  67.675  1.00  0.00    -0.130 A  
BRANCH  12  15
HETATM   15  O   UNL     1      -9.015   9.037  65.369  1.00  0.00    -0.193 OA 
BRANCH  15  16
HETATM   16  C   UNL     1      -8.755  10.432  65.429  1.00  0.00    -0.180 C  
BRANCH  16  17
HETATM   17  C   UNL     1     -10.093  11.155  65.600  1.00  0.00    -0.253 C  
BRANCH  17  18
HETATM   18  O   UNL     1     -10.798  11.443  64.386  1.00  0.00    -0.335 OA 
BRANCH  18  19
HETATM   19  C   UNL     1     -10.852  12.805  63.974  1.00  0.00    -0.424 C  
BRANCH  19  20
HETATM   20  C   UNL     1     -10.233  13.739  65.023  1.00  0.00    -0.346 C  
BRANCH  20  21
HETATM   21  N   UNL     1     -11.213  14.694  65.719  1.00  0.00    -0.332 N  
HETATM   22  C   UNL     1     -12.616  14.326  65.221  1.00  0.00    -0.394 C  
HETATM   23  C   UNL     1     -11.178  14.482  67.228  1.00  0.00    -0.332 C  
BRANCH  21  24
HETATM   24  C   UNL     1     -10.891  16.165  65.342  1.00  0.00    -0.307 C  
BRANCH  24  25
HETATM   25  C   UNL     1     -10.063  16.920  66.347  1.00  0.00    -0.331 A  
HETATM   26  C   UNL     1     -10.681  17.809  67.240  1.00  0.00    -0.249 A  
HETATM   27  C   UNL     1      -9.912  18.624  68.068  1.00  0.00    -0.389 A  
HETATM   28  C   UNL     1      -8.523  18.544  68.028  1.00  0.00    -0.302 A  
HETATM   29  C   UNL     1      -7.898  17.624  67.189  1.00  0.00    -0.229 A  
HETATM   30  C   UNL     1      -8.664  16.804  66.361  1.00  0.00    -0.337 A  
ENDBRANCH  24  25
ENDBRANCH  21  24
ENDBRANCH  20  21
ENDBRANCH  19  20
ENDBRANCH  18  19
ENDBRANCH  17  18
ENDBRANCH  16  17
ENDBRANCH  15  16
ENDBRANCH  12  15
ENDBRANCH   6   9
ENDBRANCH   5   6
ENDBRANCH   2   5
TORSDOF 12
ENDMDL
MODEL      110
REMARK 921   NORMALIZED FREE ENERGY PREDICTED BY IDOCK:   -4.59 KCAL/MOL
REMARK 922        TOTAL FREE ENERGY PREDICTED BY IDOCK:   -9.09 KCAL/MOL
REMARK 923 INTER-LIGAND FREE ENERGY PREDICTED BY IDOCK:   -8.61 KCAL/MOL
REMARK 924 INTRA-LIGAND FREE ENERGY PREDICTED BY IDOCK:   -0.48 KCAL/MOL
REMARK 927      BINDING AFFINITY PREDICTED BY RF-SCORE:    0.00 PKD
ROOT
HETATM    1  C   UNL     1      -9.308   5.211  70.161  1.00  0.00    -0.208 C  
HETATM    2  C   UNL     1      -9.137   4.854  71.644  1.00  0.00    -0.169 C  
HETATM    3  C   UNL     1     -10.480   4.401  72.231  1.00  0.00    -0.192 C  
HETATM    4  C   UNL     1      -8.191   3.624  71.693  1.00  0.00    -0.068 C  
ENDROOT
BRANCH   2   5
HETATM    5  C   UNL     1      -8.462   5.993  72.476  1.00  0.00    -0.119 C  
BRANCH   5   6
HETATM    6  C   UNL     1      -9.219   6.933  73.490  1.00  0.00    -0.179 C  
HETATM    7  C   UNL     1      -8.265   7.862  74.275  1.00  0.00    -0.303 C  
HETATM    8  C   UNL     1     -10.023   6.135  74.537  1.00  0.00    -0.343 C  
BRANCH   6   9
HETATM    9  C   UNL     1     -10.154   7.845  72.650  1.00  0.00    -0.343 A  
HETATM   10  C   UNL     1     -11.555   7.832  72.772  1.00  0.00    -0.368 A  
HETATM   11  C   UNL     1     -12.361   8.671  72.002  1.00  0.00    -0.435 A  
HETATM   12  C   UNL     1     -11.795   9.539  71.075  1.00  0.00    -0.330 A  
HETATM   13  C   UNL     1      -9.605   8.728  71.696  1.00  0.00    -0.363 A  
HETATM   14  C   UNL     1     -10.414   9.559  70.913  1.00  0.00    -0.382 A  
BRANCH  12  15
HETATM   15  O   UNL     1     -12.697  10.284  70.366  1.00  0.00    -0.273 OA 
BRANCH  15  16
HETATM   16  C   UNL     1     -12.213  11.508  69.830  1.00  0.00    -0.258 C  
BRANCH  16  17
HETATM   17  C   UNL     1     -12.526  12.621  70.833  1.00  0.00    -0.278 C  
BRANCH  17  18
HETATM   18  O   UNL     1     -11.736  13.808  70.701  1.00  0.00    -0.231 OA 
BRANCH  18  19
HETATM   19  C   UNL     1     -12.182  14.783  69.764  1.00  0.00    -0.294 C  
BRANCH  19  20
HETATM   20  C   UNL     1     -11.455  14.650  68.419  1.00  0.00    -0.311 C  
BRANCH  20  21
HETATM   21  N   UNL     1     -10.196  15.515  68.259  1.00  0.00    -0.221 N  
HETATM   22  C   UNL     1     -10.389  16.744  69.156  1.00  0.00    -0.326 C  
HETATM   23  C   UNL     1      -8.968  14.759  68.752  1.00  0.00    -0.179 C  
BRANCH  21  24
HETATM   24  C   UNL     1     -10.035  15.964  66.781  1.00  0.00    -0.248 C  
BRANCH  24  25
HETATM   25  C   UNL     1      -9.636  17.401  66.586  1.00  0.00    -0.283 A  
HETATM   26  C   UNL     1      -8.312  17.801  66.829  1.00  0.00    -0.271 A  
HETATM   27  C   UNL     1      -7.968  19.151  66.800  1.00  0.00    -0.281 A  
HETATM   28  C   UNL     1      -8.933  20.110  66.509  1.00  0.00    -0.392 A  
HETATM   29  C   UNL     1     -10.237  19.722  66.207  1.00  0.00    -0.615 A  
HETATM   30  C   UNL     1     -10.585  18.372  66.231  1.00  0.00    -0.343 A  
ENDBRANCH  24  25
ENDBRANCH  21  24
ENDBRANCH  20  21
ENDBRANCH  19  20
ENDBRANCH  18  19
ENDBRANCH  17  18
ENDBRANCH  16  17
ENDBRANCH  15  16
ENDBRANCH  12  15
ENDBRANCH   6   9
ENDBRANCH   5   6
ENDBRANCH   2   5
TORSDOF 12
ENDMDL
MODEL      111
REMARK 921   NORMALIZED FREE ENERGY PREDICTED BY IDOCK:   -4.59 KCAL/MOL
REMARK 922        TOTAL FREE ENERGY PREDICTED BY IDOCK:   -9.08 KCAL/MOL
REMARK 923 INTER-LIGAND FREE ENERGY PREDICTED BY IDOCK:   -7.56 KCAL/MOL
REMARK 924 INTRA-LIGAND FREE ENERGY PREDICTED BY IDOCK:   -1.52 KCAL/MOL
REMARK 927      BINDING AFFINITY PREDICTED BY RF-SCORE:    0.00 PKD
ROOT
HETATM    1  C   UNL     1     -11.622  15.883  68.584  1.00  0.00    -0.383 C  
HETATM    2  C   UNL     1     -11.384  14.433  69.026  1.00  0.00    -0.297 C  
HETATM    3  C   UNL     1     -11.899  14.232  70.458  1.00  0.00    -0.364 C  
HETATM    4  C   UNL     1     -12.263  13.542  68.107  1.00  0.00    -0.141 C  
ENDROOT
BRANCH   2   5
HETATM    5  C   UNL     1      -9.902  13.970  68.842  1.00  0.00    -0.077 C  
BRANCH   5   6
HETATM    6  C   UNL     1      -9.248  13.579  67.462  1.00  0.00    -0.219 C  
HETATM    7  C   UNL     1      -7.806  14.111  67.308  1.00  0.00    -0.154 C  
HETATM    8  C   UNL     1     -10.052  14.119  66.261  1.00  0.00    -0.308 C  
BRANCH   6   9
HETATM    9  C   UNL     1      -9.168  12.028  67.422  1.00  0.00    -0.180 A  
HETATM   10  C   UNL     1      -8.379  11.276  68.310  1.00  0.00    -0.150 A  
HETATM   11  C   UNL     1      -8.338   9.882  68.246  1.00  0.00    -0.110 A  
HETATM   12  C   UNL     1      -9.071   9.197  67.284  1.00  0.00    -0.126 A  
HETATM   13  C   UNL     1      -9.895  11.310  66.450  1.00  0.00    -0.243 A  
HETATM   14  C   UNL     1      -9.843   9.913  66.376  1.00  0.00    -0.288 A  
BRANCH  12  15
HETATM   15  O   UNL     1      -8.920   7.838  67.312  1.00  0.00    -0.125 OA 
BRANCH  15  16
HETATM   16  C   UNL     1      -9.645   7.108  66.333  1.00  0.00    -0.098 C  
BRANCH  16  17
HETATM   17  C   UNL     1     -10.159   5.822  66.986  1.00  0.00    -0.187 C  
BRANCH  17  18
HETATM   18  O   UNL     1     -11.123   6.004  68.029  1.00  0.00    -0.304 OA 
BRANCH  18  19
HETATM   19  C   UNL     1     -10.735   5.623  69.345  1.00  0.00    -0.295 C  
BRANCH  19  20
HETATM   20  C   UNL     1     -10.473   6.845  70.236  1.00  0.00    -0.204 C  
BRANCH  20  21
HETATM   21  N   UNL     1     -10.132   6.536  71.700  1.00  0.00    -0.182 N  
HETATM   22  C   UNL     1     -11.146   5.489  72.178  1.00  0.00    -0.210 C  
HETATM   23  C   UNL     1      -8.739   5.924  71.803  1.00  0.00    -0.139 C  
BRANCH  21  24
HETATM   24  C   UNL     1     -10.256   7.819  72.565  1.00  0.00    -0.260 C  
BRANCH  24  25
HETATM   25  C   UNL     1     -11.136   8.897  71.993  1.00  0.00    -0.421 A  
HETATM   26  C   UNL     1     -12.464   9.024  72.430  1.00  0.00    -0.375 A  
HETATM   27  C   UNL     1     -13.331   9.915  71.801  1.00  0.00    -0.501 A  
HETATM   28  C   UNL     1     -12.876  10.701  70.746  1.00  0.00    -0.439 A  
HETATM   29  C   UNL     1     -11.545  10.628  70.342  1.00  0.00    -0.441 A  
HETATM   30  C   UNL     1     -10.673   9.741  70.971  1.00  0.00    -0.342 A  
ENDBRANCH  24  25
ENDBRANCH  21  24
ENDBRANCH  20  21
ENDBRANCH  19  20
ENDBRANCH  18  19
ENDBRANCH  17  18
ENDBRANCH  16  17
ENDBRANCH  15  16
ENDBRANCH  12  15
ENDBRANCH   6   9
ENDBRANCH   5   6
ENDBRANCH   2   5
TORSDOF 12
ENDMDL
MODEL      112
REMARK 921   NORMALIZED FREE ENERGY PREDICTED BY IDOCK:   -4.59 KCAL/MOL
REMARK 922        TOTAL FREE ENERGY PREDICTED BY IDOCK:   -9.07 KCAL/MOL
REMARK 923 INTER-LIGAND FREE ENERGY PREDICTED BY IDOCK:   -8.22 KCAL/MOL
REMARK 924 INTRA-LIGAND FREE ENERGY PREDICTED BY IDOCK:   -0.85 KCAL/MOL
REMARK 927      BINDING AFFINITY PREDICTED BY RF-SCORE:    0.00 PKD
ROOT
HETATM    1  C   UNL     1     -10.187  18.867  66.368  1.00  0.00    -0.481 C  
HETATM    2  C   UNL     1      -8.851  18.239  66.788  1.00  0.00    -0.283 C  
HETATM    3  C   UNL     1      -7.688  19.018  66.159  1.00  0.00    -0.291 C  
HETATM    4  C   UNL     1      -8.738  18.433  68.325  1.00  0.00    -0.321 C  
ENDROOT
BRANCH   2   5
HETATM    5  C   UNL     1      -8.779  16.703  66.507  1.00  0.00    -0.317 C  
BRANCH   5   6
HETATM    6  C   UNL     1     -10.008  15.718  66.577  1.00  0.00    -0.283 C  
HETATM    7  C   UNL     1     -10.688  15.507  65.206  1.00  0.00    -0.440 C  
HETATM    8  C   UNL     1     -11.102  16.218  67.543  1.00  0.00    -0.140 C  
BRANCH   6   9
HETATM    9  C   UNL     1      -9.457  14.339  67.030  1.00  0.00    -0.259 A  
HETATM   10  C   UNL     1     -10.063  13.117  66.686  1.00  0.00    -0.264 A  
HETATM   11  C   UNL     1      -9.534  11.897  67.109  1.00  0.00    -0.180 A  
HETATM   12  C   UNL     1      -8.393  11.858  67.901  1.00  0.00    -0.152 A  
HETATM   13  C   UNL     1      -8.306  14.273  67.843  1.00  0.00    -0.162 A  
HETATM   14  C   UNL     1      -7.782  13.050  68.279  1.00  0.00    -0.141 A  
BRANCH  12  15
HETATM   15  O   UNL     1      -7.996  10.602  68.270  1.00  0.00    -0.107 OA 
BRANCH  15  16
HETATM   16  C   UNL     1      -7.219  10.515  69.456  1.00  0.00    -0.137 C  
BRANCH  16  17
HETATM   17  C   UNL     1      -7.571   9.200  70.156  1.00  0.00    -0.093 C  
BRANCH  17  18
HETATM   18  O   UNL     1      -7.579   9.247  71.588  1.00  0.00    -0.338 OA 
BRANCH  18  19
HETATM   19  C   UNL     1      -8.187   8.155  72.270  1.00  0.00    -0.154 C  
BRANCH  19  20
HETATM   20  C   UNL     1      -9.004   7.274  71.314  1.00  0.00    -0.139 C  
BRANCH  20  21
HETATM   21  N   UNL     1     -10.456   7.009  71.737  1.00  0.00    -0.202 N  
HETATM   22  C   UNL     1     -10.631   5.486  71.785  1.00  0.00    -0.235 C  
HETATM   23  C   UNL     1     -10.709   7.556  73.137  1.00  0.00    -0.398 C  
BRANCH  21  24
HETATM   24  C   UNL     1     -11.439   7.618  70.701  1.00  0.00    -0.258 C  
BRANCH  24  25
HETATM   25  C   UNL     1     -11.721   9.087  70.869  1.00  0.00    -0.327 A  
HETATM   26  C   UNL     1     -12.585   9.524  71.885  1.00  0.00    -0.479 A  
HETATM   27  C   UNL     1     -12.973  10.860  71.955  1.00  0.00    -0.502 A  
HETATM   28  C   UNL     1     -12.486  11.775  71.026  1.00  0.00    -0.411 A  
HETATM   29  C   UNL     1     -11.581  11.367  70.049  1.00  0.00    -0.382 A  
HETATM   30  C   UNL     1     -11.188  10.031  69.978  1.00  0.00    -0.345 A  
ENDBRANCH  24  25
ENDBRANCH  21  24
ENDBRANCH  20  21
ENDBRANCH  19  20
ENDBRANCH  18  19
ENDBRANCH  17  18
ENDBRANCH  16  17
ENDBRANCH  15  16
ENDBRANCH  12  15
ENDBRANCH   6   9
ENDBRANCH   5   6
ENDBRANCH   2   5
TORSDOF 12
ENDMDL
MODEL      113
REMARK 921   NORMALIZED FREE ENERGY PREDICTED BY IDOCK:   -4.56 KCAL/MOL
REMARK 922        TOTAL FREE ENERGY PREDICTED BY IDOCK:   -9.03 KCAL/MOL
REMARK 923 INTER-LIGAND FREE ENERGY PREDICTED BY IDOCK:   -8.34 KCAL/MOL
REMARK 924 INTRA-LIGAND FREE ENERGY PREDICTED BY IDOCK:   -0.69 KCAL/MOL
REMARK 927      BINDING AFFINITY PREDICTED BY RF-SCORE:    0.00 PKD
ROOT
HETATM    1  C   UNL     1     -12.380   6.932  70.961  1.00  0.00    -0.401 C  
HETATM    2  C   UNL     1     -10.988   7.089  71.585  1.00  0.00    -0.258 C  
HETATM    3  C   UNL     1     -11.062   8.031  72.795  1.00  0.00    -0.448 C  
HETATM    4  C   UNL     1     -10.590   5.692  72.132  1.00  0.00    -0.274 C  
ENDROOT
BRANCH   2   5
HETATM    5  C   UNL     1      -9.894   7.512  70.551  1.00  0.00    -0.183 C  
BRANCH   5   6
HETATM    6  C   UNL     1      -9.762   6.925  69.093  1.00  0.00    -0.155 C  
HETATM    7  C   UNL     1     -11.022   6.152  68.641  1.00  0.00    -0.415 C  
HETATM    8  C   UNL     1      -8.572   5.952  68.961  1.00  0.00    -0.114 C  
BRANCH   6   9
HETATM    9  C   UNL     1      -9.600   8.134  68.132  1.00  0.00    -0.162 A  
HETATM   10  C   UNL     1     -10.186   8.186  66.855  1.00  0.00    -0.387 A  
HETATM   11  C   UNL     1     -10.021   9.294  66.022  1.00  0.00    -0.325 A  
HETATM   12  C   UNL     1      -9.252  10.377  66.431  1.00  0.00    -0.161 A  
HETATM   13  C   UNL     1      -8.817   9.242  68.520  1.00  0.00    -0.129 A  
HETATM   14  C   UNL     1      -8.639  10.347  67.679  1.00  0.00    -0.118 A  
BRANCH  12  15
HETATM   15  O   UNL     1      -9.147  11.383  65.510  1.00  0.00    -0.205 OA 
BRANCH  15  16
HETATM   16  C   UNL     1      -9.720  11.126  64.236  1.00  0.00    -0.271 C  
BRANCH  16  17
HETATM   17  C   UNL     1     -10.753  12.219  63.952  1.00  0.00    -0.420 C  
BRANCH  17  18
HETATM   18  O   UNL     1     -10.877  13.226  64.964  1.00  0.00    -0.297 OA 
BRANCH  18  19
HETATM   19  C   UNL     1     -12.115  13.291  65.665  1.00  0.00    -0.441 C  
BRANCH  19  20
HETATM   20  C   UNL     1     -12.032  14.231  66.876  1.00  0.00    -0.438 C  
BRANCH  20  21
HETATM   21  N   UNL     1     -11.488  13.601  68.167  1.00  0.00    -0.292 N  
HETATM   22  C   UNL     1     -12.199  14.301  69.332  1.00  0.00    -0.278 C  
HETATM   23  C   UNL     1     -11.839  12.119  68.222  1.00  0.00    -0.301 C  
BRANCH  21  24
HETATM   24  C   UNL     1      -9.956  13.829  68.273  1.00  0.00    -0.243 C  
BRANCH  24  25
HETATM   25  C   UNL     1      -9.480  15.197  67.863  1.00  0.00    -0.194 A  
HETATM   26  C   UNL     1      -9.703  16.299  68.703  1.00  0.00    -0.235 A  
HETATM   27  C   UNL     1      -9.404  17.588  68.269  1.00  0.00    -0.281 A  
HETATM   28  C   UNL     1      -8.862  17.788  67.002  1.00  0.00    -0.260 A  
HETATM   29  C   UNL     1      -8.580  16.698  66.182  1.00  0.00    -0.324 A  
HETATM   30  C   UNL     1      -8.873  15.405  66.615  1.00  0.00    -0.330 A  
ENDBRANCH  24  25
ENDBRANCH  21  24
ENDBRANCH  20  21
ENDBRANCH  19  20
ENDBRANCH  18  19
ENDBRANCH  17  18
ENDBRANCH  16  17
ENDBRANCH  15  16
ENDBRANCH  12  15
ENDBRANCH   6   9
ENDBRANCH   5   6
ENDBRANCH   2   5
TORSDOF 12
ENDMDL
MODEL      114
REMARK 921   NORMALIZED FREE ENERGY PREDICTED BY IDOCK:   -4.56 KCAL/MOL
REMARK 922        TOTAL FREE ENERGY PREDICTED BY IDOCK:   -9.03 KCAL/MOL
REMARK 923 INTER-LIGAND FREE ENERGY PREDICTED BY IDOCK:   -8.30 KCAL/MOL
REMARK 924 INTRA-LIGAND FREE ENERGY PREDICTED BY IDOCK:   -0.73 KCAL/MOL
REMARK 927      BINDING AFFINITY PREDICTED BY RF-SCORE:    0.00 PKD
ROOT
HETATM    1  C   UNL     1      -9.631   3.593  66.990  1.00  0.00    -0.187 C  
HETATM    2  C   UNL     1      -8.211   3.577  67.570  1.00  0.00    -0.090 C  
HETATM    3  C   UNL     1      -7.661   2.144  67.566  1.00  0.00    -0.060 C  
HETATM    4  C   UNL     1      -7.326   4.396  66.592  1.00  0.00    -0.081 C  
ENDROOT
BRANCH   2   5
HETATM    5  C   UNL     1      -8.111   4.263  68.972  1.00  0.00    -0.073 C  
BRANCH   5   6
HETATM    6  C   UNL     1      -8.778   3.713  70.290  1.00  0.00    -0.125 C  
HETATM    7  C   UNL     1      -7.782   3.600  71.466  1.00  0.00    -0.057 C  
HETATM    8  C   UNL     1      -9.394   2.312  70.093  1.00  0.00    -0.179 C  
BRANCH   6   9
HETATM    9  C   UNL     1      -9.864   4.742  70.710  1.00  0.00    -0.280 A  
HETATM   10  C   UNL     1     -10.463   5.639  69.809  1.00  0.00    -0.377 A  
HETATM   11  C   UNL     1     -11.440   6.545  70.225  1.00  0.00    -0.474 A  
HETATM   12  C   UNL     1     -11.838   6.594  71.555  1.00  0.00    -0.337 A  
HETATM   13  C   UNL     1     -10.278   4.818  72.057  1.00  0.00    -0.261 A  
HETATM   14  C   UNL     1     -11.248   5.736  72.477  1.00  0.00    -0.347 A  
BRANCH  12  15
HETATM   15  O   UNL     1     -12.780   7.546  71.835  1.00  0.00    -0.316 OA 
BRANCH  15  16
HETATM   16  C   UNL     1     -12.288   8.843  72.138  1.00  0.00    -0.378 C  
BRANCH  16  17
HETATM   17  C   UNL     1     -13.376   9.858  71.777  1.00  0.00    -0.404 C  
BRANCH  17  18
HETATM   18  O   UNL     1     -12.979  10.887  70.862  1.00  0.00    -0.331 OA 
BRANCH  18  19
HETATM   19  C   UNL     1     -12.237  10.483  69.716  1.00  0.00    -0.181 C  
BRANCH  19  20
HETATM   20  C   UNL     1     -11.140  11.498  69.366  1.00  0.00    -0.226 C  
BRANCH  20  21
HETATM   21  N   UNL     1     -10.152  11.055  68.277  1.00  0.00    -0.171 N  
HETATM   22  C   UNL     1      -8.846  10.684  68.990  1.00  0.00    -0.148 C  
HETATM   23  C   UNL     1     -10.670   9.811  67.565  1.00  0.00    -0.264 C  
BRANCH  21  24
HETATM   24  C   UNL     1      -9.893  12.216  67.279  1.00  0.00    -0.196 C  
BRANCH  24  25
HETATM   25  C   UNL     1     -10.757  12.210  66.047  1.00  0.00    -0.308 A  
HETATM   26  C   UNL     1     -10.270  11.661  64.851  1.00  0.00    -0.315 A  
HETATM   27  C   UNL     1     -10.999  11.786  63.670  1.00  0.00    -0.513 A  
HETATM   28  C   UNL     1     -12.228  12.440  63.676  1.00  0.00    -0.653 A  
HETATM   29  C   UNL     1     -12.750  12.936  64.868  1.00  0.00    -0.474 A  
HETATM   30  C   UNL     1     -12.026  12.810  66.053  1.00  0.00    -0.491 A  
ENDBRANCH  24  25
ENDBRANCH  21  24
ENDBRANCH  20  21
ENDBRANCH  19  20
ENDBRANCH  18  19
ENDBRANCH  17  18
ENDBRANCH  16  17
ENDBRANCH  15  16
ENDBRANCH  12  15
ENDBRANCH   6   9
ENDBRANCH   5   6
ENDBRANCH   2   5
TORSDOF 12
ENDMDL
MODEL      115
REMARK 921   NORMALIZED FREE ENERGY PREDICTED BY IDOCK:   -4.56 KCAL/MOL
REMARK 922        TOTAL FREE ENERGY PREDICTED BY IDOCK:   -9.02 KCAL/MOL
REMARK 923 INTER-LIGAND FREE ENERGY PREDICTED BY IDOCK:   -6.29 KCAL/MOL
REMARK 924 INTRA-LIGAND FREE ENERGY PREDICTED BY IDOCK:   -2.74 KCAL/MOL
REMARK 927      BINDING AFFINITY PREDICTED BY RF-SCORE:    0.00 PKD
ROOT
HETATM    1  C   UNL     1      -8.676  16.008  68.818  1.00  0.00    -0.223 C  
HETATM    2  C   UNL     1      -9.437  15.666  67.531  1.00  0.00    -0.214 C  
HETATM    3  C   UNL     1     -10.643  16.601  67.372  1.00  0.00    -0.295 C  
HETATM    4  C   UNL     1      -8.474  15.977  66.354  1.00  0.00    -0.363 C  
ENDROOT
BRANCH   2   5
HETATM    5  C   UNL     1      -9.822  14.153  67.429  1.00  0.00    -0.239 C  
BRANCH   5   6
HETATM    6  C   UNL     1     -10.738  13.534  66.305  1.00  0.00    -0.288 C  
HETATM    7  C   UNL     1     -10.337  13.990  64.884  1.00  0.00    -0.434 C  
HETATM    8  C   UNL     1     -12.223  13.909  66.490  1.00  0.00    -0.482 C  
BRANCH   6   9
HETATM    9  C   UNL     1     -10.543  11.994  66.361  1.00  0.00    -0.278 A  
HETATM   10  C   UNL     1     -11.139  11.179  67.340  1.00  0.00    -0.370 A  
HETATM   11  C   UNL     1     -10.944   9.796  67.353  1.00  0.00    -0.176 A  
HETATM   12  C   UNL     1     -10.136   9.188  66.400  1.00  0.00    -0.274 A  
HETATM   13  C   UNL     1      -9.721  11.353  65.411  1.00  0.00    -0.265 A  
HETATM   14  C   UNL     1      -9.514   9.969  65.432  1.00  0.00    -0.310 A  
BRANCH  12  15
HETATM   15  O   UNL     1     -10.006   7.833  66.544  1.00  0.00    -0.230 OA 
BRANCH  15  16
HETATM   16  C   UNL     1     -10.861   7.220  67.499  1.00  0.00    -0.214 C  
BRANCH  16  17
HETATM   17  C   UNL     1     -10.145   5.985  68.050  1.00  0.00    -0.159 C  
BRANCH  17  18
HETATM   18  O   UNL     1      -8.906   6.240  68.722  1.00  0.00    -0.123 OA 
BRANCH  18  19
HETATM   19  C   UNL     1      -8.968   6.499  70.121  1.00  0.00    -0.155 C  
BRANCH  19  20
HETATM   20  C   UNL     1      -7.687   7.174  70.630  1.00  0.00    -0.094 C  
BRANCH  20  21
HETATM   21  N   UNL     1      -7.860   8.603  71.165  1.00  0.00    -0.105 N  
HETATM   22  C   UNL     1      -8.716   8.499  72.434  1.00  0.00    -0.172 C  
HETATM   23  C   UNL     1      -6.509   9.190  71.554  1.00  0.00    -0.045 C  
BRANCH  21  24
HETATM   24  C   UNL     1      -8.585   9.487  70.115  1.00  0.00    -0.224 C  
BRANCH  24  25
HETATM   25  C   UNL     1      -7.698  10.090  69.059  1.00  0.00    -0.094 A  
HETATM   26  C   UNL     1      -7.612  11.485  68.927  1.00  0.00    -0.102 A  
HETATM   27  C   UNL     1      -6.917  12.050  67.861  1.00  0.00    -0.095 A  
HETATM   28  C   UNL     1      -6.283  11.231  66.930  1.00  0.00    -0.123 A  
HETATM   29  C   UNL     1      -6.310   9.847  67.083  1.00  0.00    -0.068 A  
HETATM   30  C   UNL     1      -7.002   9.277  68.152  1.00  0.00    -0.076 A  
ENDBRANCH  24  25
ENDBRANCH  21  24
ENDBRANCH  20  21
ENDBRANCH  19  20
ENDBRANCH  18  19
ENDBRANCH  17  18
ENDBRANCH  16  17
ENDBRANCH  15  16
ENDBRANCH  12  15
ENDBRANCH   6   9
ENDBRANCH   5   6
ENDBRANCH   2   5
TORSDOF 12
ENDMDL
MODEL      116
REMARK 921   NORMALIZED FREE ENERGY PREDICTED BY IDOCK:   -4.56 KCAL/MOL
REMARK 922        TOTAL FREE ENERGY PREDICTED BY IDOCK:   -9.02 KCAL/MOL
REMARK 923 INTER-LIGAND FREE ENERGY PREDICTED BY IDOCK:   -7.52 KCAL/MOL
REMARK 924 INTRA-LIGAND FREE ENERGY PREDICTED BY IDOCK:   -1.50 KCAL/MOL
REMARK 927      BINDING AFFINITY PREDICTED BY RF-SCORE:    0.00 PKD
ROOT
HETATM    1  C   UNL     1     -12.321  11.854  63.903  1.00  0.00    -0.488 C  
HETATM    2  C   UNL     1     -11.571  12.533  65.057  1.00  0.00    -0.392 C  
HETATM    3  C   UNL     1     -10.359  13.301  64.512  1.00  0.00    -0.394 C  
HETATM    4  C   UNL     1     -12.540  13.592  65.649  1.00  0.00    -0.531 C  
ENDROOT
BRANCH   2   5
HETATM    5  C   UNL     1     -11.198  11.547  66.212  1.00  0.00    -0.286 C  
BRANCH   5   6
HETATM    6  C   UNL     1     -10.160  10.367  66.085  1.00  0.00    -0.299 C  
HETATM    7  C   UNL     1      -9.691  10.133  64.631  1.00  0.00    -0.377 C  
HETATM    8  C   UNL     1     -10.735   9.027  66.588  1.00  0.00    -0.043 C  
BRANCH   6   9
HETATM    9  C   UNL     1      -8.908  10.777  66.908  1.00  0.00    -0.144 A  
HETATM   10  C   UNL     1      -7.757  11.340  66.328  1.00  0.00    -0.053 A  
HETATM   11  C   UNL     1      -6.653  11.701  67.102  1.00  0.00    -0.134 A  
HETATM   12  C   UNL     1      -6.657  11.495  68.477  1.00  0.00    -0.063 A  
HETATM   13  C   UNL     1      -8.883  10.570  68.303  1.00  0.00    -0.139 A  
HETATM   14  C   UNL     1      -7.771  10.918  69.078  1.00  0.00    -0.135 A  
BRANCH  12  15
HETATM   15  O   UNL     1      -5.504  11.864  69.112  1.00  0.00    -0.051 OA 
BRANCH  15  16
HETATM   16  C   UNL     1      -5.641  12.286  70.462  1.00  0.00    -0.168 C  
BRANCH  16  17
HETATM   17  C   UNL     1      -5.489  13.809  70.500  1.00  0.00    -0.136 C  
BRANCH  17  18
HETATM   18  O   UNL     1      -6.709  14.552  70.393  1.00  0.00    -0.135 OA 
BRANCH  18  19
HETATM   19  C   UNL     1      -6.719  15.657  69.495  1.00  0.00    -0.185 C  
BRANCH  19  20
HETATM   20  C   UNL     1      -7.256  15.259  68.113  1.00  0.00    -0.120 C  
BRANCH  20  21
HETATM   21  N   UNL     1      -8.743  15.557  67.870  1.00  0.00    -0.162 N  
HETATM   22  C   UNL     1      -9.490  14.226  68.024  1.00  0.00    -0.204 C  
HETATM   23  C   UNL     1      -9.270  16.519  68.929  1.00  0.00    -0.258 C  
BRANCH  21  24
HETATM   24  C   UNL     1      -8.954  16.115  66.437  1.00  0.00    -0.318 C  
BRANCH  24  25
HETATM   25  C   UNL     1      -9.157  17.603  66.350  1.00  0.00    -0.257 A  
HETATM   26  C   UNL     1      -8.063  18.471  66.492  1.00  0.00    -0.299 A  
HETATM   27  C   UNL     1      -8.260  19.848  66.566  1.00  0.00    -0.364 A  
HETATM   28  C   UNL     1      -9.546  20.373  66.479  1.00  0.00    -0.431 A  
HETATM   29  C   UNL     1     -10.635  19.527  66.278  1.00  0.00    -0.580 A  
HETATM   30  C   UNL     1     -10.442  18.149  66.200  1.00  0.00    -0.377 A  
ENDBRANCH  24  25
ENDBRANCH  21  24
ENDBRANCH  20  21
ENDBRANCH  19  20
ENDBRANCH  18  19
ENDBRANCH  17  18
ENDBRANCH  16  17
ENDBRANCH  15  16
ENDBRANCH  12  15
ENDBRANCH   6   9
ENDBRANCH   5   6
ENDBRANCH   2   5
TORSDOF 12
ENDMDL
MODEL      117
REMARK 921   NORMALIZED FREE ENERGY PREDICTED BY IDOCK:   -4.56 KCAL/MOL
REMARK 922        TOTAL FREE ENERGY PREDICTED BY IDOCK:   -9.02 KCAL/MOL
REMARK 923 INTER-LIGAND FREE ENERGY PREDICTED BY IDOCK:   -7.52 KCAL/MOL
REMARK 924 INTRA-LIGAND FREE ENERGY PREDICTED BY IDOCK:   -1.50 KCAL/MOL
REMARK 927      BINDING AFFINITY PREDICTED BY RF-SCORE:    0.00 PKD
ROOT
HETATM    1  C   UNL     1     -11.029   6.661  67.388  1.00  0.00    -0.434 C  
HETATM    2  C   UNL     1     -10.018   6.386  68.509  1.00  0.00    -0.155 C  
HETATM    3  C   UNL     1     -10.758   6.022  69.803  1.00  0.00    -0.399 C  
HETATM    4  C   UNL     1      -9.220   5.124  68.082  1.00  0.00    -0.136 C  
ENDROOT
BRANCH   2   5
HETATM    5  C   UNL     1      -8.986   7.544  68.703  1.00  0.00    -0.132 C  
BRANCH   5   6
HETATM    6  C   UNL     1      -9.262   8.866  69.516  1.00  0.00    -0.150 C  
HETATM    7  C   UNL     1      -8.815   8.769  70.992  1.00  0.00    -0.260 C  
HETATM    8  C   UNL     1     -10.758   9.242  69.529  1.00  0.00    -0.236 C  
BRANCH   6   9
HETATM    9  C   UNL     1      -8.415   9.989  68.856  1.00  0.00    -0.132 A  
HETATM   10  C   UNL     1      -7.505  10.787  69.571  1.00  0.00    -0.113 A  
HETATM   11  C   UNL     1      -6.758  11.783  68.940  1.00  0.00    -0.094 A  
HETATM   12  C   UNL     1      -6.906  12.023  67.580  1.00  0.00    -0.128 A  
HETATM   13  C   UNL     1      -8.554  10.258  67.478  1.00  0.00    -0.118 A  
HETATM   14  C   UNL     1      -7.815  11.266  66.848  1.00  0.00    -0.156 A  
BRANCH  12  15
HETATM   15  O   UNL     1      -6.137  13.044  67.092  1.00  0.00    -0.307 OA 
BRANCH  15  16
HETATM   16  C   UNL     1      -6.034  14.196  67.916  1.00  0.00    -0.135 C  
BRANCH  16  17
HETATM   17  C   UNL     1      -6.978  15.264  67.357  1.00  0.00    -0.179 C  
BRANCH  17  18
HETATM   18  O   UNL     1      -7.489  16.197  68.317  1.00  0.00    -0.138 OA 
BRANCH  18  19
HETATM   19  C   UNL     1      -8.890  16.449  68.293  1.00  0.00    -0.202 C  
BRANCH  19  20
HETATM   20  C   UNL     1      -9.661  15.451  69.167  1.00  0.00    -0.252 C  
BRANCH  20  21
HETATM   21  N   UNL     1     -10.884  14.799  68.505  1.00  0.00    -0.244 N  
HETATM   22  C   UNL     1     -10.650  13.283  68.543  1.00  0.00    -0.256 C  
HETATM   23  C   UNL     1     -12.144  15.101  69.307  1.00  0.00    -0.244 C  
BRANCH  21  24
HETATM   24  C   UNL     1     -11.017  15.273  67.033  1.00  0.00    -0.324 C  
BRANCH  24  25
HETATM   25  C   UNL     1     -11.243  14.180  66.024  1.00  0.00    -0.319 A  
HETATM   26  C   UNL     1     -10.178  13.727  65.229  1.00  0.00    -0.355 A  
HETATM   27  C   UNL     1     -10.407  12.827  64.191  1.00  0.00    -0.401 A  
HETATM   28  C   UNL     1     -11.695  12.357  63.948  1.00  0.00    -0.529 A  
HETATM   29  C   UNL     1     -12.750  12.752  64.767  1.00  0.00    -0.469 A  
HETATM   30  C   UNL     1     -12.525  13.649  65.810  1.00  0.00    -0.524 A  
ENDBRANCH  24  25
ENDBRANCH  21  24
ENDBRANCH  20  21
ENDBRANCH  19  20
ENDBRANCH  18  19
ENDBRANCH  17  18
ENDBRANCH  16  17
ENDBRANCH  15  16
ENDBRANCH  12  15
ENDBRANCH   6   9
ENDBRANCH   5   6
ENDBRANCH   2   5
TORSDOF 12
ENDMDL
MODEL      118
REMARK 921   NORMALIZED FREE ENERGY PREDICTED BY IDOCK:   -4.55 KCAL/MOL
REMARK 922        TOTAL FREE ENERGY PREDICTED BY IDOCK:   -9.02 KCAL/MOL
REMARK 923 INTER-LIGAND FREE ENERGY PREDICTED BY IDOCK:   -7.39 KCAL/MOL
REMARK 924 INTRA-LIGAND FREE ENERGY PREDICTED BY IDOCK:   -1.63 KCAL/MOL
REMARK 927      BINDING AFFINITY PREDICTED BY RF-SCORE:    0.00 PKD
ROOT
HETATM    1  C   UNL     1     -11.783  15.104  67.765  1.00  0.00    -0.250 C  
HETATM    2  C   UNL     1     -11.334  13.662  68.033  1.00  0.00    -0.316 C  
HETATM    3  C   UNL     1      -9.812  13.614  68.220  1.00  0.00    -0.232 C  
HETATM    4  C   UNL     1     -11.963  13.251  69.392  1.00  0.00    -0.356 C  
ENDROOT
BRANCH   2   5
HETATM    5  C   UNL     1     -11.848  12.649  66.958  1.00  0.00    -0.415 C  
BRANCH   5   6
HETATM    6  C   UNL     1     -11.340  12.588  65.467  1.00  0.00    -0.368 C  
HETATM    7  C   UNL     1     -10.459  13.797  65.082  1.00  0.00    -0.399 C  
HETATM    8  C   UNL     1     -12.504  12.546  64.455  1.00  0.00    -0.539 C  
BRANCH   6   9
HETATM    9  C   UNL     1     -10.452  11.319  65.343  1.00  0.00    -0.326 A  
HETATM   10  C   UNL     1      -9.740  10.989  64.176  1.00  0.00    -0.332 A  
HETATM   11  C   UNL     1      -8.948   9.842  64.106  1.00  0.00    -0.276 A  
HETATM   12  C   UNL     1      -8.855   8.981  65.193  1.00  0.00    -0.182 A  
HETATM   13  C   UNL     1     -10.348  10.424  66.429  1.00  0.00    -0.278 A  
HETATM   14  C   UNL     1      -9.565   9.266  66.354  1.00  0.00    -0.301 A  
BRANCH  12  15
HETATM   15  O   UNL     1      -8.070   7.880  64.983  1.00  0.00    -0.133 OA 
BRANCH  15  16
HETATM   16  C   UNL     1      -6.723   7.980  65.423  1.00  0.00    -0.055 C  
BRANCH  16  17
HETATM   17  C   UNL     1      -6.497   6.918  66.502  1.00  0.00    -0.051 C  
BRANCH  17  18
HETATM   18  O   UNL     1      -7.212   7.124  67.727  1.00  0.00    -0.086 OA 
BRANCH  18  19
HETATM   19  C   UNL     1      -7.273   6.028  68.634  1.00  0.00    -0.084 C  
BRANCH  19  20
HETATM   20  C   UNL     1      -8.229   6.310  69.801  1.00  0.00    -0.125 C  
BRANCH  20  21
HETATM   21  N   UNL     1      -7.586   6.321  71.195  1.00  0.00    -0.092 N  
HETATM   22  C   UNL     1      -8.447   5.415  72.085  1.00  0.00    -0.126 C  
HETATM   23  C   UNL     1      -6.183   5.727  71.136  1.00  0.00    -0.035 C  
BRANCH  21  24
HETATM   24  C   UNL     1      -7.572   7.762  71.771  1.00  0.00    -0.085 C  
BRANCH  24  25
HETATM   25  C   UNL     1      -8.799   8.583  71.480  1.00  0.00    -0.260 A  
HETATM   26  C   UNL     1      -9.985   8.348  72.192  1.00  0.00    -0.376 A  
HETATM   27  C   UNL     1     -11.165   8.993  71.828  1.00  0.00    -0.448 A  
HETATM   28  C   UNL     1     -11.168   9.892  70.765  1.00  0.00    -0.427 A  
HETATM   29  C   UNL     1      -9.985  10.179  70.089  1.00  0.00    -0.154 A  
HETATM   30  C   UNL     1      -8.801   9.538  70.452  1.00  0.00    -0.279 A  
ENDBRANCH  24  25
ENDBRANCH  21  24
ENDBRANCH  20  21
ENDBRANCH  19  20
ENDBRANCH  18  19
ENDBRANCH  17  18
ENDBRANCH  16  17
ENDBRANCH  15  16
ENDBRANCH  12  15
ENDBRANCH   6   9
ENDBRANCH   5   6
ENDBRANCH   2   5
TORSDOF 12
ENDMDL
MODEL      119
REMARK 921   NORMALIZED FREE ENERGY PREDICTED BY IDOCK:   -4.54 KCAL/MOL
REMARK 922        TOTAL FREE ENERGY PREDICTED BY IDOCK:   -9.00 KCAL/MOL
REMARK 923 INTER-LIGAND FREE ENERGY PREDICTED BY IDOCK:   -8.24 KCAL/MOL
REMARK 924 INTRA-LIGAND FREE ENERGY PREDICTED BY IDOCK:   -0.76 KCAL/MOL
REMARK 927      BINDING AFFINITY PREDICTED BY RF-SCORE:    0.00 PKD
ROOT
HETATM    1  C   UNL     1     -10.766  17.684  68.253  1.00  0.00    -0.285 C  
HETATM    2  C   UNL     1      -9.784  18.805  67.887  1.00  0.00    -0.368 C  
HETATM    3  C   UNL     1     -10.017  19.251  66.437  1.00  0.00    -0.479 C  
HETATM    4  C   UNL     1     -10.142  20.016  68.789  1.00  0.00    -0.421 C  
ENDROOT
BRANCH   2   5
HETATM    5  C   UNL     1      -8.293  18.434  68.177  1.00  0.00    -0.301 C  
BRANCH   5   6
HETATM    6  C   UNL     1      -7.409  17.493  67.272  1.00  0.00    -0.203 C  
HETATM    7  C   UNL     1      -5.944  17.398  67.755  1.00  0.00    -0.147 C  
HETATM    8  C   UNL     1      -7.364  17.967  65.805  1.00  0.00    -0.161 C  
BRANCH   6   9
HETATM    9  C   UNL     1      -8.016  16.067  67.375  1.00  0.00    -0.184 A  
HETATM   10  C   UNL     1      -8.800  15.489  66.361  1.00  0.00    -0.359 A  
HETATM   11  C   UNL     1      -9.323  14.201  66.489  1.00  0.00    -0.285 A  
HETATM   12  C   UNL     1      -9.094  13.457  67.640  1.00  0.00    -0.203 A  
HETATM   13  C   UNL     1      -7.806  15.294  68.537  1.00  0.00    -0.134 A  
HETATM   14  C   UNL     1      -8.342  14.009  68.672  1.00  0.00    -0.104 A  
BRANCH  12  15
HETATM   15  O   UNL     1      -9.686  12.224  67.650  1.00  0.00    -0.186 OA 
BRANCH  15  16
HETATM   16  C   UNL     1      -8.835  11.124  67.938  1.00  0.00    -0.136 C  
BRANCH  16  17
HETATM   17  C   UNL     1      -9.186   9.989  66.971  1.00  0.00    -0.146 C  
BRANCH  17  18
HETATM   18  O   UNL     1     -10.516   9.470  67.089  1.00  0.00    -0.254 OA 
BRANCH  18  19
HETATM   19  C   UNL     1     -10.647   8.087  67.404  1.00  0.00    -0.267 C  
BRANCH  19  20
HETATM   20  C   UNL     1      -9.501   7.600  68.302  1.00  0.00    -0.145 C  
BRANCH  20  21
HETATM   21  N   UNL     1      -9.911   7.149  69.711  1.00  0.00    -0.176 N  
HETATM   22  C   UNL     1     -11.368   6.677  69.618  1.00  0.00    -0.329 C  
HETATM   23  C   UNL     1      -9.061   5.965  70.158  1.00  0.00    -0.145 C  
BRANCH  21  24
HETATM   24  C   UNL     1      -9.806   8.334  70.708  1.00  0.00    -0.179 C  
BRANCH  24  25
HETATM   25  C   UNL     1     -11.110   9.005  71.049  1.00  0.00    -0.356 A  
HETATM   26  C   UNL     1     -11.458  10.217  70.432  1.00  0.00    -0.400 A  
HETATM   27  C   UNL     1     -12.585  10.922  70.849  1.00  0.00    -0.494 A  
HETATM   28  C   UNL     1     -13.385  10.415  71.869  1.00  0.00    -0.469 A  
HETATM   29  C   UNL     1     -13.085   9.184  72.449  1.00  0.00    -0.493 A  
HETATM   30  C   UNL     1     -11.960   8.473  72.031  1.00  0.00    -0.427 A  
ENDBRANCH  24  25
ENDBRANCH  21  24
ENDBRANCH  20  21
ENDBRANCH  19  20
ENDBRANCH  18  19
ENDBRANCH  17  18
ENDBRANCH  16  17
ENDBRANCH  15  16
ENDBRANCH  12  15
ENDBRANCH   6   9
ENDBRANCH   5   6
ENDBRANCH   2   5
TORSDOF 12
ENDMDL
MODEL      120
REMARK 921   NORMALIZED FREE ENERGY PREDICTED BY IDOCK:   -4.54 KCAL/MOL
REMARK 922        TOTAL FREE ENERGY PREDICTED BY IDOCK:   -8.99 KCAL/MOL
REMARK 923 INTER-LIGAND FREE ENERGY PREDICTED BY IDOCK:   -8.38 KCAL/MOL
REMARK 924 INTRA-LIGAND FREE ENERGY PREDICTED BY IDOCK:   -0.62 KCAL/MOL
REMARK 927      BINDING AFFINITY PREDICTED BY RF-SCORE:    0.00 PKD
ROOT
HETATM    1  C   UNL     1     -10.685   5.577  71.913  1.00  0.00    -0.292 C  
HETATM    2  C   UNL     1     -10.275   5.912  70.473  1.00  0.00    -0.271 C  
HETATM    3  C   UNL     1      -9.973   4.620  69.702  1.00  0.00    -0.281 C  
HETATM    4  C   UNL     1     -11.519   6.552  69.799  1.00  0.00    -0.443 C  
ENDROOT
BRANCH   2   5
HETATM    5  C   UNL     1      -9.114   6.955  70.391  1.00  0.00    -0.156 C  
BRANCH   5   6
HETATM    6  C   UNL     1      -9.121   8.365  71.098  1.00  0.00    -0.217 C  
HETATM    7  C   UNL     1      -7.713   8.993  71.200  1.00  0.00    -0.143 C  
HETATM    8  C   UNL     1      -9.682   8.295  72.533  1.00  0.00    -0.368 C  
BRANCH   6   9
HETATM    9  C   UNL     1      -9.979   9.310  70.212  1.00  0.00    -0.262 A  
HETATM   10  C   UNL     1      -9.692   9.569  68.860  1.00  0.00    -0.166 A  
HETATM   11  C   UNL     1     -10.490  10.421  68.097  1.00  0.00    -0.221 A  
HETATM   12  C   UNL     1     -11.591  11.054  68.662  1.00  0.00    -0.316 A  
HETATM   13  C   UNL     1     -11.095   9.972  70.765  1.00  0.00    -0.407 A  
HETATM   14  C   UNL     1     -11.888  10.838  70.004  1.00  0.00    -0.424 A  
BRANCH  12  15
HETATM   15  O   UNL     1     -12.271  11.884  67.814  1.00  0.00    -0.508 OA 
BRANCH  15  16
HETATM   16  C   UNL     1     -11.503  12.488  66.781  1.00  0.00    -0.362 C  
BRANCH  16  17
HETATM   17  C   UNL     1     -11.642  14.006  66.916  1.00  0.00    -0.386 C  
BRANCH  17  18
HETATM   18  O   UNL     1     -11.762  14.498  68.256  1.00  0.00    -0.312 OA 
BRANCH  18  19
HETATM   19  C   UNL     1     -11.417  15.861  68.480  1.00  0.00    -0.377 C  
BRANCH  19  20
HETATM   20  C   UNL     1     -10.870  16.524  67.209  1.00  0.00    -0.173 C  
BRANCH  20  21
HETATM   21  N   UNL     1      -9.958  17.738  67.435  1.00  0.00    -0.311 N  
HETATM   22  C   UNL     1     -10.529  18.883  66.590  1.00  0.00    -0.428 C  
HETATM   23  C   UNL     1      -9.999  18.166  68.898  1.00  0.00    -0.338 C  
BRANCH  21  24
HETATM   24  C   UNL     1      -8.510  17.417  66.976  1.00  0.00    -0.225 C  
BRANCH  24  25
HETATM   25  C   UNL     1      -7.733  16.508  67.889  1.00  0.00    -0.162 A  
HETATM   26  C   UNL     1      -7.930  15.119  67.831  1.00  0.00    -0.143 A  
HETATM   27  C   UNL     1      -7.332  14.283  68.771  1.00  0.00    -0.131 A  
HETATM   28  C   UNL     1      -6.517  14.820  69.763  1.00  0.00    -0.160 A  
HETATM   29  C   UNL     1      -6.265  16.190  69.796  1.00  0.00    -0.184 A  
HETATM   30  C   UNL     1      -6.858  17.031  68.854  1.00  0.00    -0.211 A  
ENDBRANCH  24  25
ENDBRANCH  21  24
ENDBRANCH  20  21
ENDBRANCH  19  20
ENDBRANCH  18  19
ENDBRANCH  17  18
ENDBRANCH  16  17
ENDBRANCH  15  16
ENDBRANCH  12  15
ENDBRANCH   6   9
ENDBRANCH   5   6
ENDBRANCH   2   5
TORSDOF 12
ENDMDL
MODEL      121
REMARK 921   NORMALIZED FREE ENERGY PREDICTED BY IDOCK:   -4.54 KCAL/MOL
REMARK 922        TOTAL FREE ENERGY PREDICTED BY IDOCK:   -8.99 KCAL/MOL
REMARK 923 INTER-LIGAND FREE ENERGY PREDICTED BY IDOCK:   -7.79 KCAL/MOL
REMARK 924 INTRA-LIGAND FREE ENERGY PREDICTED BY IDOCK:   -1.20 KCAL/MOL
REMARK 927      BINDING AFFINITY PREDICTED BY RF-SCORE:    0.00 PKD
ROOT
HETATM    1  C   UNL     1     -12.018  13.200  66.436  1.00  0.00    -0.462 C  
HETATM    2  C   UNL     1     -11.245  14.102  65.464  1.00  0.00    -0.317 C  
HETATM    3  C   UNL     1     -12.227  14.828  64.533  1.00  0.00    -0.443 C  
HETATM    4  C   UNL     1     -10.559  15.194  66.327  1.00  0.00    -0.312 C  
ENDROOT
BRANCH   2   5
HETATM    5  C   UNL     1     -10.117  13.346  64.688  1.00  0.00    -0.256 C  
BRANCH   5   6
HETATM    6  C   UNL     1     -10.211  11.849  64.202  1.00  0.00    -0.364 C  
HETATM    7  C   UNL     1      -9.231  11.530  63.050  1.00  0.00    -0.224 C  
HETATM    8  C   UNL     1     -11.622  11.486  63.698  1.00  0.00    -0.323 C  
BRANCH   6   9
HETATM    9  C   UNL     1      -9.805  10.956  65.406  1.00  0.00    -0.308 A  
HETATM   10  C   UNL     1      -8.772  11.291  66.299  1.00  0.00    -0.184 A  
HETATM   11  C   UNL     1      -8.441  10.464  67.374  1.00  0.00    -0.121 A  
HETATM   12  C   UNL     1      -9.119   9.269  67.580  1.00  0.00    -0.125 A  
HETATM   13  C   UNL     1     -10.472   9.733  65.632  1.00  0.00     0.134 A  
HETATM   14  C   UNL     1     -10.131   8.897  66.701  1.00  0.00    -0.357 A  
BRANCH  12  15
HETATM   15  O   UNL     1      -8.678   8.540  68.650  1.00  0.00    -0.137 OA 
BRANCH  15  16
HETATM   16  C   UNL     1      -7.849   9.228  69.577  1.00  0.00    -0.086 C  
BRANCH  16  17
HETATM   17  C   UNL     1      -7.618   8.308  70.778  1.00  0.00    -0.073 C  
BRANCH  17  18
HETATM   18  O   UNL     1      -7.647   6.904  70.493  1.00  0.00    -0.087 OA 
BRANCH  18  19
HETATM   19  C   UNL     1      -7.947   6.028  71.575  1.00  0.00    -0.113 C  
BRANCH  19  20
HETATM   20  C   UNL     1      -9.296   6.370  72.223  1.00  0.00    -0.141 C  
BRANCH  20  21
HETATM   21  N   UNL     1     -10.511   5.622  71.655  1.00  0.00    -0.222 N  
HETATM   22  C   UNL     1      -9.982   4.317  71.048  1.00  0.00    -0.153 C  
HETATM   23  C   UNL     1     -11.483   5.262  72.773  1.00  0.00    -0.247 C  
BRANCH  21  24
HETATM   24  C   UNL     1     -11.200   6.472  70.553  1.00  0.00    -0.344 C  
BRANCH  24  25
HETATM   25  C   UNL     1     -11.814   7.762  71.026  1.00  0.00    -0.290 A  
HETATM   26  C   UNL     1     -13.068   7.752  71.657  1.00  0.00    -0.378 A  
HETATM   27  C   UNL     1     -13.713   8.949  71.961  1.00  0.00    -0.509 A  
HETATM   28  C   UNL     1     -13.105  10.164  71.658  1.00  0.00    -0.550 A  
HETATM   29  C   UNL     1     -11.835  10.188  71.086  1.00  0.00    -0.472 A  
HETATM   30  C   UNL     1     -11.184   8.992  70.784  1.00  0.00    -0.329 A  
ENDBRANCH  24  25
ENDBRANCH  21  24
ENDBRANCH  20  21
ENDBRANCH  19  20
ENDBRANCH  18  19
ENDBRANCH  17  18
ENDBRANCH  16  17
ENDBRANCH  15  16
ENDBRANCH  12  15
ENDBRANCH   6   9
ENDBRANCH   5   6
ENDBRANCH   2   5
TORSDOF 12
ENDMDL
MODEL      122
REMARK 921   NORMALIZED FREE ENERGY PREDICTED BY IDOCK:   -4.53 KCAL/MOL
REMARK 922        TOTAL FREE ENERGY PREDICTED BY IDOCK:   -8.97 KCAL/MOL
REMARK 923 INTER-LIGAND FREE ENERGY PREDICTED BY IDOCK:   -9.17 KCAL/MOL
REMARK 924 INTRA-LIGAND FREE ENERGY PREDICTED BY IDOCK:    0.20 KCAL/MOL
REMARK 927      BINDING AFFINITY PREDICTED BY RF-SCORE:    0.00 PKD
ROOT
HETATM    1  C   UNL     1      -7.802   4.236  71.048  1.00  0.00    -0.067 C  
HETATM    2  C   UNL     1      -9.290   4.016  70.746  1.00  0.00    -0.217 C  
HETATM    3  C   UNL     1      -9.452   3.344  69.376  1.00  0.00    -0.221 C  
HETATM    4  C   UNL     1      -9.809   3.004  71.803  1.00  0.00    -0.230 C  
ENDROOT
BRANCH   2   5
HETATM    5  C   UNL     1     -10.146   5.317  70.890  1.00  0.00    -0.295 C  
BRANCH   5   6
HETATM    6  C   UNL     1     -10.320   6.133  72.228  1.00  0.00    -0.221 C  
HETATM    7  C   UNL     1      -8.977   6.419  72.937  1.00  0.00    -0.132 C  
HETATM    8  C   UNL     1     -11.214   5.398  73.248  1.00  0.00    -0.322 C  
BRANCH   6   9
HETATM    9  C   UNL     1     -10.933   7.507  71.842  1.00  0.00    -0.272 A  
HETATM   10  C   UNL     1     -10.161   8.603  71.418  1.00  0.00    -0.325 A  
HETATM   11  C   UNL     1     -10.750   9.820  71.075  1.00  0.00    -0.342 A  
HETATM   12  C   UNL     1     -12.127   9.988  71.160  1.00  0.00    -0.380 A  
HETATM   13  C   UNL     1     -12.328   7.706  71.929  1.00  0.00    -0.337 A  
HETATM   14  C   UNL     1     -12.918   8.931  71.599  1.00  0.00    -0.404 A  
BRANCH  12  15
HETATM   15  O   UNL     1     -12.572  11.236  70.823  1.00  0.00    -0.344 OA 
BRANCH  15  16
HETATM   16  C   UNL     1     -11.637  12.077  70.162  1.00  0.00    -0.143 C  
BRANCH  16  17
HETATM   17  C   UNL     1     -11.864  11.943  68.654  1.00  0.00    -0.308 C  
BRANCH  17  18
HETATM   18  O   UNL     1     -11.817  13.168  67.913  1.00  0.00    -0.342 OA 
BRANCH  18  19
HETATM   19  C   UNL     1     -10.626  13.439  67.182  1.00  0.00    -0.259 C  
BRANCH  19  20
HETATM   20  C   UNL     1      -9.549  14.079  68.068  1.00  0.00    -0.217 C  
BRANCH  20  21
HETATM   21  N   UNL     1      -9.275  15.567  67.807  1.00  0.00    -0.180 N  
HETATM   22  C   UNL     1      -8.352  16.051  68.933  1.00  0.00    -0.231 C  
HETATM   23  C   UNL     1      -8.539  15.747  66.485  1.00  0.00    -0.308 C  
BRANCH  21  24
HETATM   24  C   UNL     1     -10.602  16.372  67.835  1.00  0.00    -0.320 C  
BRANCH  24  25
HETATM   25  C   UNL     1     -10.463  17.850  67.584  1.00  0.00    -0.406 A  
HETATM   26  C   UNL     1     -10.490  18.344  66.271  1.00  0.00    -0.421 A  
HETATM   27  C   UNL     1     -10.211  19.685  66.017  1.00  0.00    -0.587 A  
HETATM   28  C   UNL     1      -9.923  20.548  67.071  1.00  0.00    -0.489 A  
HETATM   29  C   UNL     1      -9.952  20.083  68.384  1.00  0.00    -0.481 A  
HETATM   30  C   UNL     1     -10.235  18.743  68.643  1.00  0.00    -0.366 A  
ENDBRANCH  24  25
ENDBRANCH  21  24
ENDBRANCH  20  21
ENDBRANCH  19  20
ENDBRANCH  18  19
ENDBRANCH  17  18
ENDBRANCH  16  17
ENDBRANCH  15  16
ENDBRANCH  12  15
ENDBRANCH   6   9
ENDBRANCH   5   6
ENDBRANCH   2   5
TORSDOF 12
ENDMDL
MODEL      123
REMARK 921   NORMALIZED FREE ENERGY PREDICTED BY IDOCK:   -4.52 KCAL/MOL
REMARK 922        TOTAL FREE ENERGY PREDICTED BY IDOCK:   -8.96 KCAL/MOL
REMARK 923 INTER-LIGAND FREE ENERGY PREDICTED BY IDOCK:   -8.14 KCAL/MOL
REMARK 924 INTRA-LIGAND FREE ENERGY PREDICTED BY IDOCK:   -0.82 KCAL/MOL
REMARK 927      BINDING AFFINITY PREDICTED BY RF-SCORE:    0.00 PKD
ROOT
HETATM    1  C   UNL     1      -8.289  15.972  66.343  1.00  0.00    -0.344 C  
HETATM    2  C   UNL     1      -9.129  14.753  66.746  1.00  0.00    -0.291 C  
HETATM    3  C   UNL     1      -8.224  13.674  67.357  1.00  0.00    -0.187 C  
HETATM    4  C   UNL     1     -10.082  15.228  67.876  1.00  0.00    -0.233 C  
ENDROOT
BRANCH   2   5
HETATM    5  C   UNL     1     -10.022  14.211  65.582  1.00  0.00    -0.331 C  
BRANCH   5   6
HETATM    6  C   UNL     1     -11.290  13.294  65.776  1.00  0.00    -0.328 C  
HETATM    7  C   UNL     1     -12.238  13.315  64.556  1.00  0.00    -0.456 C  
HETATM    8  C   UNL     1     -12.131  13.712  67.000  1.00  0.00    -0.423 C  
BRANCH   6   9
HETATM    9  C   UNL     1     -10.775  11.836  65.929  1.00  0.00    -0.328 A  
HETATM   10  C   UNL     1     -10.008  11.184  64.947  1.00  0.00    -0.331 A  
HETATM   11  C   UNL     1      -9.560   9.875  65.124  1.00  0.00    -0.367 A  
HETATM   12  C   UNL     1      -9.876   9.170  66.279  1.00  0.00    -0.289 A  
HETATM   13  C   UNL     1     -11.091  11.096  67.088  1.00  0.00    -0.352 A  
HETATM   14  C   UNL     1     -10.653   9.778  67.260  1.00  0.00    -0.320 A  
BRANCH  12  15
HETATM   15  O   UNL     1      -9.400   7.888  66.314  1.00  0.00    -0.188 OA 
BRANCH  15  16
HETATM   16  C   UNL     1      -8.642   7.533  67.462  1.00  0.00    -0.122 C  
BRANCH  16  17
HETATM   17  C   UNL     1      -9.375   6.397  68.181  1.00  0.00    -0.108 C  
BRANCH  17  18
HETATM   18  O   UNL     1     -10.699   6.707  68.632  1.00  0.00    -0.215 OA 
BRANCH  18  19
HETATM   19  C   UNL     1     -11.190   5.975  69.750  1.00  0.00    -0.369 C  
BRANCH  19  20
HETATM   20  C   UNL     1     -10.254   6.091  70.960  1.00  0.00    -0.201 C  
BRANCH  20  21
HETATM   21  N   UNL     1     -10.917   6.546  72.269  1.00  0.00    -0.238 N  
HETATM   22  C   UNL     1     -12.382   6.857  71.936  1.00  0.00    -0.325 C  
HETATM   23  C   UNL     1     -10.897   5.417  73.293  1.00  0.00    -0.298 C  
BRANCH  21  24
HETATM   24  C   UNL     1     -10.220   7.822  72.812  1.00  0.00    -0.299 C  
BRANCH  24  25
HETATM   25  C   UNL     1      -9.127   8.377  71.939  1.00  0.00    -0.288 A  
HETATM   26  C   UNL     1      -7.781   8.185  72.291  1.00  0.00    -0.155 A  
HETATM   27  C   UNL     1      -6.768   8.821  71.578  1.00  0.00    -0.082 A  
HETATM   28  C   UNL     1      -7.086   9.638  70.496  1.00  0.00    -0.137 A  
HETATM   29  C   UNL     1      -8.413   9.790  70.100  1.00  0.00    -0.204 A  
HETATM   30  C   UNL     1      -9.430   9.151  70.808  1.00  0.00    -0.334 A  
ENDBRANCH  24  25
ENDBRANCH  21  24
ENDBRANCH  20  21
ENDBRANCH  19  20
ENDBRANCH  18  19
ENDBRANCH  17  18
ENDBRANCH  16  17
ENDBRANCH  15  16
ENDBRANCH  12  15
ENDBRANCH   6   9
ENDBRANCH   5   6
ENDBRANCH   2   5
TORSDOF 12
ENDMDL
MODEL      124
REMARK 921   NORMALIZED FREE ENERGY PREDICTED BY IDOCK:   -4.52 KCAL/MOL
REMARK 922        TOTAL FREE ENERGY PREDICTED BY IDOCK:   -8.96 KCAL/MOL
REMARK 923 INTER-LIGAND FREE ENERGY PREDICTED BY IDOCK:   -7.81 KCAL/MOL
REMARK 924 INTRA-LIGAND FREE ENERGY PREDICTED BY IDOCK:   -1.15 KCAL/MOL
REMARK 927      BINDING AFFINITY PREDICTED BY RF-SCORE:    0.00 PKD
ROOT
HETATM    1  C   UNL     1      -7.370   3.148  65.974  1.00  0.00    -0.072 C  
HETATM    2  C   UNL     1      -7.924   3.012  67.398  1.00  0.00    -0.077 C  
HETATM    3  C   UNL     1      -9.050   1.968  67.422  1.00  0.00    -0.171 C  
HETATM    4  C   UNL     1      -6.770   2.443  68.267  1.00  0.00    -0.032 C  
ENDROOT
BRANCH   2   5
HETATM    5  C   UNL     1      -8.348   4.379  68.026  1.00  0.00    -0.096 C  
BRANCH   5   6
HETATM    6  C   UNL     1      -9.067   5.543  67.242  1.00  0.00    -0.110 C  
HETATM    7  C   UNL     1     -10.122   5.028  66.237  1.00  0.00    -0.275 C  
HETATM    8  C   UNL     1      -8.073   6.407  66.439  1.00  0.00    -0.112 C  
BRANCH   6   9
HETATM    9  C   UNL     1      -9.821   6.400  68.296  1.00  0.00    -0.130 A  
HETATM   10  C   UNL     1      -9.654   7.791  68.419  1.00  0.00    -0.157 A  
HETATM   11  C   UNL     1     -10.354   8.527  69.376  1.00  0.00    -0.218 A  
HETATM   12  C   UNL     1     -11.230   7.895  70.250  1.00  0.00    -0.200 A  
HETATM   13  C   UNL     1     -10.709   5.782  69.201  1.00  0.00    -0.370 A  
HETATM   14  C   UNL     1     -11.400   6.517  70.171  1.00  0.00    -0.463 A  
BRANCH  12  15
HETATM   15  O   UNL     1     -11.830   8.726  71.157  1.00  0.00    -0.287 OA 
BRANCH  15  16
HETATM   16  C   UNL     1     -11.360  10.066  71.183  1.00  0.00    -0.323 C  
BRANCH  16  17
HETATM   17  C   UNL     1     -12.439  10.958  70.564  1.00  0.00    -0.351 C  
BRANCH  17  18
HETATM   18  O   UNL     1     -12.354  12.349  70.898  1.00  0.00    -0.377 OA 
BRANCH  18  19
HETATM   19  C   UNL     1     -12.050  13.252  69.839  1.00  0.00    -0.308 C  
BRANCH  19  20
HETATM   20  C   UNL     1     -11.109  12.618  68.806  1.00  0.00    -0.263 C  
BRANCH  20  21
HETATM   21  N   UNL     1     -11.036  13.335  67.450  1.00  0.00    -0.267 N  
HETATM   22  C   UNL     1     -11.776  14.668  67.615  1.00  0.00    -0.363 C  
HETATM   23  C   UNL     1      -9.586  13.642  67.091  1.00  0.00    -0.241 C  
BRANCH  21  24
HETATM   24  C   UNL     1     -11.727  12.484  66.351  1.00  0.00    -0.397 C  
BRANCH  24  25
HETATM   25  C   UNL     1     -10.797  11.707  65.459  1.00  0.00    -0.334 A  
HETATM   26  C   UNL     1     -10.569  12.134  64.142  1.00  0.00    -0.403 A  
HETATM   27  C   UNL     1      -9.833  11.343  63.262  1.00  0.00    -0.428 A  
HETATM   28  C   UNL     1      -9.301  10.131  63.694  1.00  0.00    -0.336 A  
HETATM   29  C   UNL     1      -9.469   9.724  65.016  1.00  0.00    -0.337 A  
HETATM   30  C   UNL     1     -10.202  10.515  65.901  1.00  0.00    -0.311 A  
ENDBRANCH  24  25
ENDBRANCH  21  24
ENDBRANCH  20  21
ENDBRANCH  19  20
ENDBRANCH  18  19
ENDBRANCH  17  18
ENDBRANCH  16  17
ENDBRANCH  15  16
ENDBRANCH  12  15
ENDBRANCH   6   9
ENDBRANCH   5   6
ENDBRANCH   2   5
TORSDOF 12
ENDMDL
MODEL      125
REMARK 921   NORMALIZED FREE ENERGY PREDICTED BY IDOCK:   -4.52 KCAL/MOL
REMARK 922        TOTAL FREE ENERGY PREDICTED BY IDOCK:   -8.96 KCAL/MOL
REMARK 923 INTER-LIGAND FREE ENERGY PREDICTED BY IDOCK:   -6.56 KCAL/MOL
REMARK 924 INTRA-LIGAND FREE ENERGY PREDICTED BY IDOCK:   -2.40 KCAL/MOL
REMARK 927      BINDING AFFINITY PREDICTED BY RF-SCORE:    0.00 PKD
ROOT
HETATM    1  C   UNL     1      -9.442   4.760  70.902  1.00  0.00    -0.230 C  
HETATM    2  C   UNL     1      -9.737   5.432  69.555  1.00  0.00    -0.238 C  
HETATM    3  C   UNL     1      -9.903   4.365  68.464  1.00  0.00    -0.140 C  
HETATM    4  C   UNL     1     -11.115   6.133  69.705  1.00  0.00    -0.489 C  
ENDROOT
BRANCH   2   5
HETATM    5  C   UNL     1      -8.694   6.533  69.175  1.00  0.00    -0.129 C  
BRANCH   5   6
HETATM    6  C   UNL     1      -8.001   7.506  70.205  1.00  0.00    -0.111 C  
HETATM    7  C   UNL     1      -6.744   6.890  70.859  1.00  0.00    -0.054 C  
HETATM    8  C   UNL     1      -8.947   7.911  71.353  1.00  0.00    -0.161 C  
BRANCH   6   9
HETATM    9  C   UNL     1      -7.534   8.753  69.404  1.00  0.00    -0.080 A  
HETATM   10  C   UNL     1      -6.685   8.675  68.286  1.00  0.00    -0.065 A  
HETATM   11  C   UNL     1      -6.292   9.820  67.589  1.00  0.00    -0.060 A  
HETATM   12  C   UNL     1      -6.721  11.077  67.997  1.00  0.00    -0.063 A  
HETATM   13  C   UNL     1      -7.948  10.041  69.804  1.00  0.00    -0.190 A  
HETATM   14  C   UNL     1      -7.542  11.190  69.114  1.00  0.00    -0.098 A  
BRANCH  12  15
HETATM   15  O   UNL     1      -6.241  12.115  67.247  1.00  0.00    -0.128 OA 
BRANCH  15  16
HETATM   16  C   UNL     1      -5.964  13.319  67.949  1.00  0.00    -0.138 C  
BRANCH  16  17
HETATM   17  C   UNL     1      -6.994  14.366  67.517  1.00  0.00    -0.159 C  
BRANCH  17  18
HETATM   18  O   UNL     1      -7.951  14.737  68.516  1.00  0.00    -0.123 OA 
BRANCH  18  19
HETATM   19  C   UNL     1      -9.271  14.223  68.372  1.00  0.00    -0.196 C  
BRANCH  19  20
HETATM   20  C   UNL     1      -9.483  13.581  66.994  1.00  0.00    -0.251 C  
BRANCH  20  21
HETATM   21  N   UNL     1     -10.789  13.961  66.281  1.00  0.00    -0.289 N  
HETATM   22  C   UNL     1     -11.587  14.834  67.257  1.00  0.00    -0.369 C  
HETATM   23  C   UNL     1     -10.491  14.793  65.039  1.00  0.00    -0.416 C  
BRANCH  21  24
HETATM   24  C   UNL     1     -11.602  12.686  65.931  1.00  0.00    -0.396 C  
BRANCH  24  25
HETATM   25  C   UNL     1     -10.891  11.382  66.177  1.00  0.00    -0.310 A  
HETATM   26  C   UNL     1     -10.021  10.863  65.205  1.00  0.00    -0.341 A  
HETATM   27  C   UNL     1      -9.477   9.590  65.354  1.00  0.00    -0.336 A  
HETATM   28  C   UNL     1      -9.779   8.831  66.481  1.00  0.00    -0.328 A  
HETATM   29  C   UNL     1     -10.594   9.357  67.481  1.00  0.00    -0.333 A  
HETATM   30  C   UNL     1     -11.137  10.634  67.338  1.00  0.00    -0.341 A  
ENDBRANCH  24  25
ENDBRANCH  21  24
ENDBRANCH  20  21
ENDBRANCH  19  20
ENDBRANCH  18  19
ENDBRANCH  17  18
ENDBRANCH  16  17
ENDBRANCH  15  16
ENDBRANCH  12  15
ENDBRANCH   6   9
ENDBRANCH   5   6
ENDBRANCH   2   5
TORSDOF 12
ENDMDL
MODEL      126
REMARK 921   NORMALIZED FREE ENERGY PREDICTED BY IDOCK:   -4.52 KCAL/MOL
REMARK 922        TOTAL FREE ENERGY PREDICTED BY IDOCK:   -8.96 KCAL/MOL
REMARK 923 INTER-LIGAND FREE ENERGY PREDICTED BY IDOCK:   -8.09 KCAL/MOL
REMARK 924 INTRA-LIGAND FREE ENERGY PREDICTED BY IDOCK:   -0.87 KCAL/MOL
REMARK 927      BINDING AFFINITY PREDICTED BY RF-SCORE:    0.00 PKD
ROOT
HETATM    1  C   UNL     1     -10.429   5.775  72.208  1.00  0.00    -0.253 C  
HETATM    2  C   UNL     1     -10.270   6.074  70.712  1.00  0.00    -0.258 C  
HETATM    3  C   UNL     1     -10.008   4.772  69.943  1.00  0.00    -0.306 C  
HETATM    4  C   UNL     1     -11.642   6.612  70.223  1.00  0.00    -0.454 C  
ENDROOT
BRANCH   2   5
HETATM    5  C   UNL     1      -9.206   7.180  70.415  1.00  0.00    -0.156 C  
BRANCH   5   6
HETATM    6  C   UNL     1      -9.020   8.497  71.262  1.00  0.00    -0.244 C  
HETATM    7  C   UNL     1      -8.131   8.289  72.509  1.00  0.00    -0.209 C  
HETATM    8  C   UNL     1     -10.364   9.064  71.764  1.00  0.00    -0.407 C  
BRANCH   6   9
HETATM    9  C   UNL     1      -8.292   9.523  70.350  1.00  0.00    -0.226 A  
HETATM   10  C   UNL     1      -6.934   9.856  70.497  1.00  0.00    -0.118 A  
HETATM   11  C   UNL     1      -6.315  10.779  69.653  1.00  0.00    -0.089 A  
HETATM   12  C   UNL     1      -7.036  11.409  68.646  1.00  0.00    -0.087 A  
HETATM   13  C   UNL     1      -9.004  10.183  69.326  1.00  0.00    -0.193 A  
HETATM   14  C   UNL     1      -8.387  11.119  68.488  1.00  0.00    -0.154 A  
BRANCH  12  15
HETATM   15  O   UNL     1      -6.318  12.311  67.909  1.00  0.00    -0.069 OA 
BRANCH  15  16
HETATM   16  C   UNL     1      -6.147  13.597  68.489  1.00  0.00    -0.091 C  
BRANCH  16  17
HETATM   17  C   UNL     1      -7.088  14.568  67.772  1.00  0.00    -0.175 C  
BRANCH  17  18
HETATM   18  O   UNL     1      -7.671  15.584  68.598  1.00  0.00    -0.130 OA 
BRANCH  18  19
HETATM   19  C   UNL     1      -8.964  15.320  69.134  1.00  0.00    -0.233 C  
BRANCH  19  20
HETATM   20  C   UNL     1      -9.759  14.353  68.247  1.00  0.00    -0.222 C  
BRANCH  20  21
HETATM   21  N   UNL     1     -11.000  14.947  67.565  1.00  0.00    -0.293 N  
HETATM   22  C   UNL     1     -11.654  15.890  68.584  1.00  0.00    -0.380 C  
HETATM   23  C   UNL     1     -10.593  15.774  66.351  1.00  0.00    -0.307 C  
BRANCH  21  24
HETATM   24  C   UNL     1     -11.995  13.820  67.180  1.00  0.00    -0.405 C  
BRANCH  24  25
HETATM   25  C   UNL     1     -11.689  13.104  65.892  1.00  0.00    -0.427 A  
HETATM   26  C   UNL     1     -12.614  13.130  64.837  1.00  0.00    -0.468 A  
HETATM   27  C   UNL     1     -12.411  12.348  63.702  1.00  0.00    -0.647 A  
HETATM   28  C   UNL     1     -11.274  11.552  63.600  1.00  0.00    -0.451 A  
HETATM   29  C   UNL     1     -10.318  11.563  64.613  1.00  0.00    -0.349 A  
HETATM   30  C   UNL     1     -10.515  12.347  65.749  1.00  0.00    -0.288 A  
ENDBRANCH  24  25
ENDBRANCH  21  24
ENDBRANCH  20  21
ENDBRANCH  19  20
ENDBRANCH  18  19
ENDBRANCH  17  18
ENDBRANCH  16  17
ENDBRANCH  15  16
ENDBRANCH  12  15
ENDBRANCH   6   9
ENDBRANCH   5   6
ENDBRANCH   2   5
TORSDOF 12
ENDMDL
MODEL      127
REMARK 921   NORMALIZED FREE ENERGY PREDICTED BY IDOCK:   -4.52 KCAL/MOL
REMARK 922        TOTAL FREE ENERGY PREDICTED BY IDOCK:   -8.96 KCAL/MOL
REMARK 923 INTER-LIGAND FREE ENERGY PREDICTED BY IDOCK:   -6.02 KCAL/MOL
REMARK 924 INTRA-LIGAND FREE ENERGY PREDICTED BY IDOCK:   -2.93 KCAL/MOL
REMARK 927      BINDING AFFINITY PREDICTED BY RF-SCORE:    0.00 PKD
ROOT
HETATM    1  C   UNL     1     -11.033   6.558  67.090  1.00  0.00    -0.480 C  
HETATM    2  C   UNL     1     -10.237   6.423  68.395  1.00  0.00    -0.198 C  
HETATM    3  C   UNL     1     -11.199   6.368  69.590  1.00  0.00    -0.483 C  
HETATM    4  C   UNL     1      -9.523   5.046  68.334  1.00  0.00    -0.178 C  
ENDROOT
BRANCH   2   5
HETATM    5  C   UNL     1      -9.129   7.515  68.555  1.00  0.00    -0.134 C  
BRANCH   5   6
HETATM    6  C   UNL     1      -8.190   8.018  67.393  1.00  0.00    -0.123 C  
HETATM    7  C   UNL     1      -8.920   8.127  66.035  1.00  0.00    -0.213 C  
HETATM    8  C   UNL     1      -6.981   7.085  67.174  1.00  0.00    -0.078 C  
BRANCH   6   9
HETATM    9  C   UNL     1      -7.724   9.449  67.776  1.00  0.00    -0.088 A  
HETATM   10  C   UNL     1      -7.252  10.382  66.835  1.00  0.00    -0.099 A  
HETATM   11  C   UNL     1      -6.847  11.661  67.219  1.00  0.00    -0.129 A  
HETATM   12  C   UNL     1      -6.885  12.044  68.554  1.00  0.00    -0.078 A  
HETATM   13  C   UNL     1      -7.744   9.858  69.126  1.00  0.00    -0.098 A  
HETATM   14  C   UNL     1      -7.325  11.136  69.513  1.00  0.00    -0.023 A  
BRANCH  12  15
HETATM   15  O   UNL     1      -6.434  13.312  68.798  1.00  0.00    -0.086 OA 
BRANCH  15  16
HETATM   16  C   UNL     1      -6.931  14.328  67.939  1.00  0.00    -0.164 C  
BRANCH  16  17
HETATM   17  C   UNL     1      -7.596  15.399  68.807  1.00  0.00    -0.143 C  
BRANCH  17  18
HETATM   18  O   UNL     1      -8.594  16.191  68.151  1.00  0.00    -0.172 OA 
BRANCH  18  19
HETATM   19  C   UNL     1      -8.990  15.784  66.846  1.00  0.00    -0.240 C  
BRANCH  19  20
HETATM   20  C   UNL     1     -10.516  15.663  66.728  1.00  0.00    -0.297 C  
BRANCH  20  21
HETATM   21  N   UNL     1     -11.025  14.438  65.955  1.00  0.00    -0.306 N  
HETATM   22  C   UNL     1     -12.457  14.175  66.439  1.00  0.00    -0.318 C  
HETATM   23  C   UNL     1     -11.080  14.739  64.462  1.00  0.00    -0.247 C  
BRANCH  21  24
HETATM   24  C   UNL     1     -10.134  13.203  66.255  1.00  0.00    -0.285 C  
BRANCH  24  25
HETATM   25  C   UNL     1     -10.655  12.279  67.324  1.00  0.00    -0.249 A  
HETATM   26  C   UNL     1     -10.707  12.710  68.659  1.00  0.00    -0.269 A  
HETATM   27  C   UNL     1     -11.042  11.817  69.674  1.00  0.00    -0.139 A  
HETATM   28  C   UNL     1     -11.346  10.494  69.366  1.00  0.00    -0.331 A  
HETATM   29  C   UNL     1     -11.356  10.069  68.040  1.00  0.00    -0.069 A  
HETATM   30  C   UNL     1     -11.026  10.960  67.019  1.00  0.00    -0.310 A  
ENDBRANCH  24  25
ENDBRANCH  21  24
ENDBRANCH  20  21
ENDBRANCH  19  20
ENDBRANCH  18  19
ENDBRANCH  17  18
ENDBRANCH  16  17
ENDBRANCH  15  16
ENDBRANCH  12  15
ENDBRANCH   6   9
ENDBRANCH   5   6
ENDBRANCH   2   5
TORSDOF 12
ENDMDL
MODEL      128
REMARK 921   NORMALIZED FREE ENERGY PREDICTED BY IDOCK:   -4.51 KCAL/MOL
REMARK 922        TOTAL FREE ENERGY PREDICTED BY IDOCK:   -8.95 KCAL/MOL
REMARK 923 INTER-LIGAND FREE ENERGY PREDICTED BY IDOCK:   -7.29 KCAL/MOL
REMARK 924 INTRA-LIGAND FREE ENERGY PREDICTED BY IDOCK:   -1.66 KCAL/MOL
REMARK 927      BINDING AFFINITY PREDICTED BY RF-SCORE:    0.00 PKD
ROOT
HETATM    1  C   UNL     1      -8.558   5.232  69.623  1.00  0.00    -0.101 C  
HETATM    2  C   UNL     1      -8.990   5.059  71.085  1.00  0.00    -0.165 C  
HETATM    3  C   UNL     1      -9.632   3.679  71.280  1.00  0.00    -0.244 C  
HETATM    4  C   UNL     1      -7.689   5.069  71.932  1.00  0.00    -0.107 C  
ENDROOT
BRANCH   2   5
HETATM    5  C   UNL     1      -9.890   6.228  71.602  1.00  0.00    -0.184 C  
BRANCH   5   6
HETATM    6  C   UNL     1     -10.783   7.148  70.684  1.00  0.00    -0.255 C  
HETATM    7  C   UNL     1     -11.854   7.930  71.478  1.00  0.00    -0.322 C  
HETATM    8  C   UNL     1     -11.531   6.342  69.602  1.00  0.00    -0.446 C  
BRANCH   6   9
HETATM    9  C   UNL     1      -9.837   8.198  70.039  1.00  0.00    -0.182 A  
HETATM   10  C   UNL     1      -8.784   8.816  70.736  1.00  0.00    -0.224 A  
HETATM   11  C   UNL     1      -7.952   9.751  70.118  1.00  0.00    -0.201 A  
HETATM   12  C   UNL     1      -8.155  10.109  68.791  1.00  0.00    -0.111 A  
HETATM   13  C   UNL     1     -10.028   8.586  68.696  1.00  0.00    -0.197 A  
HETATM   14  C   UNL     1      -9.202   9.534  68.080  1.00  0.00    -0.134 A  
BRANCH  12  15
HETATM   15  O   UNL     1      -7.288  11.056  68.317  1.00  0.00    -0.081 OA 
BRANCH  15  16
HETATM   16  C   UNL     1      -7.632  12.408  68.584  1.00  0.00    -0.082 C  
BRANCH  16  17
HETATM   17  C   UNL     1      -6.700  13.304  67.764  1.00  0.00    -0.153 C  
BRANCH  17  18
HETATM   18  O   UNL     1      -7.301  14.488  67.225  1.00  0.00    -0.189 OA 
BRANCH  18  19
HETATM   19  C   UNL     1      -8.694  14.435  66.939  1.00  0.00    -0.193 C  
BRANCH  19  20
HETATM   20  C   UNL     1      -9.341  15.825  67.008  1.00  0.00    -0.220 C  
BRANCH  20  21
HETATM   21  N   UNL     1     -10.298  16.052  68.187  1.00  0.00    -0.253 N  
HETATM   22  C   UNL     1      -9.541  15.639  69.456  1.00  0.00    -0.279 C  
HETATM   23  C   UNL     1     -10.649  17.530  68.308  1.00  0.00    -0.354 C  
BRANCH  21  24
HETATM   24  C   UNL     1     -11.569  15.175  68.026  1.00  0.00    -0.328 C  
BRANCH  24  25
HETATM   25  C   UNL     1     -11.757  14.116  69.078  1.00  0.00    -0.361 A  
HETATM   26  C   UNL     1     -11.299  12.809  68.848  1.00  0.00    -0.344 A  
HETATM   27  C   UNL     1     -11.601  11.788  69.746  1.00  0.00    -0.372 A  
HETATM   28  C   UNL     1     -12.344  12.065  70.891  1.00  0.00    -0.384 A  
HETATM   29  C   UNL     1     -12.753  13.368  71.161  1.00  0.00    -0.411 A  
HETATM   30  C   UNL     1     -12.449  14.394  70.267  1.00  0.00    -0.413 A  
ENDBRANCH  24  25
ENDBRANCH  21  24
ENDBRANCH  20  21
ENDBRANCH  19  20
ENDBRANCH  18  19
ENDBRANCH  17  18
ENDBRANCH  16  17
ENDBRANCH  15  16
ENDBRANCH  12  15
ENDBRANCH   6   9
ENDBRANCH   5   6
ENDBRANCH   2   5
TORSDOF 12
ENDMDL
MODEL      129
REMARK 921   NORMALIZED FREE ENERGY PREDICTED BY IDOCK:   -4.50 KCAL/MOL
REMARK 922        TOTAL FREE ENERGY PREDICTED BY IDOCK:   -8.92 KCAL/MOL
REMARK 923 INTER-LIGAND FREE ENERGY PREDICTED BY IDOCK:   -8.02 KCAL/MOL
REMARK 924 INTRA-LIGAND FREE ENERGY PREDICTED BY IDOCK:   -0.90 KCAL/MOL
REMARK 927      BINDING AFFINITY PREDICTED BY RF-SCORE:    0.00 PKD
ROOT
HETATM    1  C   UNL     1      -7.789   4.819  70.466  1.00  0.00    -0.062 C  
HETATM    2  C   UNL     1      -8.294   4.176  71.764  1.00  0.00    -0.099 C  
HETATM    3  C   UNL     1      -9.328   3.089  71.440  1.00  0.00    -0.204 C  
HETATM    4  C   UNL     1      -7.075   3.456  72.402  1.00  0.00    -0.046 C  
ENDROOT
BRANCH   2   5
HETATM    5  C   UNL     1      -8.815   5.220  72.805  1.00  0.00    -0.122 C  
BRANCH   5   6
HETATM    6  C   UNL     1     -10.224   5.925  72.742  1.00  0.00    -0.208 C  
HETATM    7  C   UNL     1     -10.377   7.055  73.784  1.00  0.00    -0.408 C  
HETATM    8  C   UNL     1     -11.382   4.936  72.985  1.00  0.00    -0.354 C  
BRANCH   6   9
HETATM    9  C   UNL     1     -10.340   6.580  71.338  1.00  0.00    -0.234 A  
HETATM   10  C   UNL     1     -11.072   6.011  70.282  1.00  0.00    -0.415 A  
HETATM   11  C   UNL     1     -11.156   6.634  69.036  1.00  0.00    -0.318 A  
HETATM   12  C   UNL     1     -10.499   7.836  68.801  1.00  0.00    -0.181 A  
HETATM   13  C   UNL     1      -9.675   7.795  71.072  1.00  0.00    -0.174 A  
HETATM   14  C   UNL     1      -9.747   8.413  69.818  1.00  0.00    -0.180 A  
BRANCH  12  15
HETATM   15  O   UNL     1     -10.640   8.325  67.531  1.00  0.00    -0.257 OA 
BRANCH  15  16
HETATM   16  C   UNL     1      -9.439   8.497  66.791  1.00  0.00    -0.194 C  
BRANCH  16  17
HETATM   17  C   UNL     1      -9.455   9.903  66.186  1.00  0.00    -0.200 C  
BRANCH  17  18
HETATM   18  O   UNL     1      -9.946   9.989  64.842  1.00  0.00    -0.325 OA 
BRANCH  18  19
HETATM   19  C   UNL     1     -10.775  11.102  64.525  1.00  0.00    -0.297 C  
BRANCH  19  20
HETATM   20  C   UNL     1     -11.311  11.788  65.790  1.00  0.00    -0.250 C  
BRANCH  20  21
HETATM   21  N   UNL     1     -11.201  13.320  65.808  1.00  0.00    -0.292 N  
HETATM   22  C   UNL     1     -10.545  13.732  64.484  1.00  0.00    -0.386 C  
HETATM   23  C   UNL     1     -12.588  13.950  65.863  1.00  0.00    -0.456 C  
BRANCH  21  24
HETATM   24  C   UNL     1     -10.317  13.782  66.998  1.00  0.00    -0.260 C  
BRANCH  24  25
HETATM   25  C   UNL     1     -11.010  13.831  68.333  1.00  0.00    -0.275 A  
HETATM   26  C   UNL     1     -11.327  12.640  69.004  1.00  0.00    -0.345 A  
HETATM   27  C   UNL     1     -12.101  12.667  70.162  1.00  0.00    -0.368 A  
HETATM   28  C   UNL     1     -12.548  13.883  70.671  1.00  0.00    -0.405 A  
HETATM   29  C   UNL     1     -12.191  15.077  70.049  1.00  0.00    -0.373 A  
HETATM   30  C   UNL     1     -11.413  15.054  68.892  1.00  0.00    -0.333 A  
ENDBRANCH  24  25
ENDBRANCH  21  24
ENDBRANCH  20  21
ENDBRANCH  19  20
ENDBRANCH  18  19
ENDBRANCH  17  18
ENDBRANCH  16  17
ENDBRANCH  15  16
ENDBRANCH  12  15
ENDBRANCH   6   9
ENDBRANCH   5   6
ENDBRANCH   2   5
TORSDOF 12
ENDMDL
MODEL      130
REMARK 921   NORMALIZED FREE ENERGY PREDICTED BY IDOCK:   -4.49 KCAL/MOL
REMARK 922        TOTAL FREE ENERGY PREDICTED BY IDOCK:   -8.91 KCAL/MOL
REMARK 923 INTER-LIGAND FREE ENERGY PREDICTED BY IDOCK:   -6.63 KCAL/MOL
REMARK 924 INTRA-LIGAND FREE ENERGY PREDICTED BY IDOCK:   -2.28 KCAL/MOL
REMARK 927      BINDING AFFINITY PREDICTED BY RF-SCORE:    0.00 PKD
ROOT
HETATM    1  C   UNL     1      -9.291  11.036  68.312  1.00  0.00    -0.172 C  
HETATM    2  C   UNL     1      -7.899  11.529  67.898  1.00  0.00    -0.123 C  
HETATM    3  C   UNL     1      -6.830  10.890  68.795  1.00  0.00    -0.070 C  
HETATM    4  C   UNL     1      -7.652  10.996  66.461  1.00  0.00    -0.146 C  
ENDROOT
BRANCH   2   5
HETATM    5  C   UNL     1      -7.791  13.088  67.840  1.00  0.00    -0.149 C  
BRANCH   5   6
HETATM    6  C   UNL     1      -6.609  13.930  68.455  1.00  0.00    -0.098 C  
HETATM    7  C   UNL     1      -5.226  13.515  67.904  1.00  0.00    -0.088 C  
HETATM    8  C   UNL     1      -6.534  13.798  69.990  1.00  0.00    -0.027 C  
BRANCH   6   9
HETATM    9  C   UNL     1      -6.841  15.408  68.037  1.00  0.00    -0.152 A  
HETATM   10  C   UNL     1      -7.208  15.790  66.734  1.00  0.00    -0.002 A  
HETATM   11  C   UNL     1      -7.413  17.130  66.399  1.00  0.00    -0.341 A  
HETATM   12  C   UNL     1      -7.243  18.130  67.349  1.00  0.00    -0.199 A  
HETATM   13  C   UNL     1      -6.665  16.443  68.980  1.00  0.00    -0.192 A  
HETATM   14  C   UNL     1      -6.856  17.787  68.640  1.00  0.00    -0.242 A  
BRANCH  12  15
HETATM   15  O   UNL     1      -7.446  19.400  66.883  1.00  0.00    -0.217 OA 
BRANCH  15  16
HETATM   16  C   UNL     1      -8.762  19.699  66.437  1.00  0.00    -0.368 C  
BRANCH  16  17
HETATM   17  C   UNL     1      -9.596  20.096  67.657  1.00  0.00    -0.402 C  
BRANCH  17  18
HETATM   18  O   UNL     1     -10.822  19.376  67.826  1.00  0.00    -0.418 OA 
BRANCH  18  19
HETATM   19  C   UNL     1     -10.780  17.967  67.621  1.00  0.00    -0.344 C  
BRANCH  19  20
HETATM   20  C   UNL     1     -10.774  17.201  68.951  1.00  0.00    -0.257 C  
BRANCH  20  21
HETATM   21  N   UNL     1     -11.449  15.822  68.924  1.00  0.00    -0.357 N  
HETATM   22  C   UNL     1     -10.339  14.782  69.121  1.00  0.00    -0.233 C  
HETATM   23  C   UNL     1     -12.430  15.690  70.083  1.00  0.00    -0.278 C  
BRANCH  21  24
HETATM   24  C   UNL     1     -12.148  15.591  67.557  1.00  0.00     0.514 C  
BRANCH  24  25
HETATM   25  C   UNL     1     -11.570  14.483  66.719  1.00  0.00    -0.388 A  
HETATM   26  C   UNL     1     -10.621  14.775  65.727  1.00  0.00    -0.338 A  
HETATM   27  C   UNL     1     -10.194  13.783  64.846  1.00  0.00    -0.374 A  
HETATM   28  C   UNL     1     -10.694  12.489  64.960  1.00  0.00    -0.326 A  
HETATM   29  C   UNL     1     -11.592  12.172  65.977  1.00  0.00    -0.420 A  
HETATM   30  C   UNL     1     -12.018  13.161  66.863  1.00  0.00    -0.421 A  
ENDBRANCH  24  25
ENDBRANCH  21  24
ENDBRANCH  20  21
ENDBRANCH  19  20
ENDBRANCH  18  19
ENDBRANCH  17  18
ENDBRANCH  16  17
ENDBRANCH  15  16
ENDBRANCH  12  15
ENDBRANCH   6   9
ENDBRANCH   5   6
ENDBRANCH   2   5
TORSDOF 12
ENDMDL
MODEL      131
REMARK 921   NORMALIZED FREE ENERGY PREDICTED BY IDOCK:   -4.48 KCAL/MOL
REMARK 922        TOTAL FREE ENERGY PREDICTED BY IDOCK:   -8.90 KCAL/MOL
REMARK 923 INTER-LIGAND FREE ENERGY PREDICTED BY IDOCK:   -7.98 KCAL/MOL
REMARK 924 INTRA-LIGAND FREE ENERGY PREDICTED BY IDOCK:   -0.92 KCAL/MOL
REMARK 927      BINDING AFFINITY PREDICTED BY RF-SCORE:    0.00 PKD
ROOT
HETATM    1  C   UNL     1      -8.769   4.094  66.968  1.00  0.00    -0.113 C  
HETATM    2  C   UNL     1      -7.955   5.051  66.087  1.00  0.00    -0.107 C  
HETATM    3  C   UNL     1      -6.456   4.875  66.371  1.00  0.00    -0.041 C  
HETATM    4  C   UNL     1      -8.185   4.602  64.619  1.00  0.00    -0.113 C  
ENDROOT
BRANCH   2   5
HETATM    5  C   UNL     1      -8.425   6.538  66.197  1.00  0.00    -0.137 C  
BRANCH   5   6
HETATM    6  C   UNL     1      -8.104   7.494  67.410  1.00  0.00    -0.116 C  
HETATM    7  C   UNL     1      -6.694   8.120  67.324  1.00  0.00    -0.066 C  
HETATM    8  C   UNL     1      -8.185   6.764  68.766  1.00  0.00    -0.121 C  
BRANCH   6   9
HETATM    9  C   UNL     1      -9.126   8.662  67.347  1.00  0.00    -0.148 A  
HETATM   10  C   UNL     1      -9.538   9.260  66.142  1.00  0.00    -0.327 A  
HETATM   11  C   UNL     1     -10.463  10.305  66.127  1.00  0.00    -0.200 A  
HETATM   12  C   UNL     1     -10.994  10.796  67.314  1.00  0.00    -0.297 A  
HETATM   13  C   UNL     1      -9.673   9.184  68.538  1.00  0.00    -0.166 A  
HETATM   14  C   UNL     1     -10.589  10.242  68.524  1.00  0.00    -0.240 A  
BRANCH  12  15
HETATM   15  O   UNL     1     -11.866  11.839  67.161  1.00  0.00    -0.599 OA 
BRANCH  15  16
HETATM   16  C   UNL     1     -11.910  12.433  65.871  1.00  0.00    -0.405 C  
BRANCH  16  17
HETATM   17  C   UNL     1     -12.372  13.883  66.035  1.00  0.00    -0.475 C  
BRANCH  17  18
HETATM   18  O   UNL     1     -11.387  14.880  65.736  1.00  0.00    -0.341 OA 
BRANCH  18  19
HETATM   19  C   UNL     1     -10.037  14.443  65.619  1.00  0.00    -0.353 C  
BRANCH  19  20
HETATM   20  C   UNL     1      -9.055  15.478  66.184  1.00  0.00    -0.324 C  
BRANCH  20  21
HETATM   21  N   UNL     1      -8.537  15.195  67.602  1.00  0.00    -0.165 N  
HETATM   22  C   UNL     1      -9.049  13.801  67.988  1.00  0.00    -0.191 C  
HETATM   23  C   UNL     1      -7.013  15.156  67.611  1.00  0.00    -0.182 C  
BRANCH  21  24
HETATM   24  C   UNL     1      -9.087  16.250  68.598  1.00  0.00    -0.228 C  
BRANCH  24  25
HETATM   25  C   UNL     1      -9.283  17.630  68.029  1.00  0.00    -0.271 A  
HETATM   26  C   UNL     1      -8.232  18.560  68.066  1.00  0.00    -0.286 A  
HETATM   27  C   UNL     1      -8.448  19.882  67.683  1.00  0.00    -0.374 A  
HETATM   28  C   UNL     1      -9.706  20.283  67.242  1.00  0.00    -0.590 A  
HETATM   29  C   UNL     1     -10.741  19.356  67.144  1.00  0.00    -0.593 A  
HETATM   30  C   UNL     1     -10.529  18.031  67.522  1.00  0.00    -0.408 A  
ENDBRANCH  24  25
ENDBRANCH  21  24
ENDBRANCH  20  21
ENDBRANCH  19  20
ENDBRANCH  18  19
ENDBRANCH  17  18
ENDBRANCH  16  17
ENDBRANCH  15  16
ENDBRANCH  12  15
ENDBRANCH   6   9
ENDBRANCH   5   6
ENDBRANCH   2   5
TORSDOF 12
ENDMDL
MODEL      132
REMARK 921   NORMALIZED FREE ENERGY PREDICTED BY IDOCK:   -4.48 KCAL/MOL
REMARK 922        TOTAL FREE ENERGY PREDICTED BY IDOCK:   -8.89 KCAL/MOL
REMARK 923 INTER-LIGAND FREE ENERGY PREDICTED BY IDOCK:   -6.55 KCAL/MOL
REMARK 924 INTRA-LIGAND FREE ENERGY PREDICTED BY IDOCK:   -2.35 KCAL/MOL
REMARK 927      BINDING AFFINITY PREDICTED BY RF-SCORE:    0.00 PKD
ROOT
HETATM    1  C   UNL     1      -7.333   3.769  69.814  1.00  0.00    -0.042 C  
HETATM    2  C   UNL     1      -8.580   2.989  70.252  1.00  0.00    -0.109 C  
HETATM    3  C   UNL     1      -8.992   2.002  69.151  1.00  0.00    -0.159 C  
HETATM    4  C   UNL     1      -8.159   2.137  71.480  1.00  0.00    -0.050 C  
ENDROOT
BRANCH   2   5
HETATM    5  C   UNL     1      -9.754   3.915  70.710  1.00  0.00    -0.255 C  
BRANCH   5   6
HETATM    6  C   UNL     1      -9.875   4.571  72.138  1.00  0.00    -0.237 C  
HETATM    7  C   UNL     1      -8.512   5.021  72.710  1.00  0.00    -0.116 C  
HETATM    8  C   UNL     1     -10.495   3.609  73.173  1.00  0.00    -0.259 C  
BRANCH   6   9
HETATM    9  C   UNL     1     -10.745   5.848  71.977  1.00  0.00    -0.282 A  
HETATM   10  C   UNL     1     -11.535   6.102  70.841  1.00  0.00    -0.317 A  
HETATM   11  C   UNL     1     -12.308   7.259  70.736  1.00  0.00    -0.223 A  
HETATM   12  C   UNL     1     -12.305   8.206  71.753  1.00  0.00    -0.321 A  
HETATM   13  C   UNL     1     -10.752   6.828  72.991  1.00  0.00    -0.315 A  
HETATM   14  C   UNL     1     -11.516   7.996  72.880  1.00  0.00    -0.329 A  
BRANCH  12  15
HETATM   15  O   UNL     1     -13.082   9.306  71.512  1.00  0.00    -0.337 OA 
BRANCH  15  16
HETATM   16  C   UNL     1     -12.390  10.536  71.348  1.00  0.00    -0.372 C  
BRANCH  16  17
HETATM   17  C   UNL     1     -12.521  10.960  69.883  1.00  0.00    -0.224 C  
BRANCH  17  18
HETATM   18  O   UNL     1     -12.030  12.270  69.575  1.00  0.00    -0.302 OA 
BRANCH  18  19
HETATM   19  C   UNL     1     -10.942  12.356  68.660  1.00  0.00    -0.247 C  
BRANCH  19  20
HETATM   20  C   UNL     1     -11.180  11.494  67.413  1.00  0.00    -0.304 C  
BRANCH  20  21
HETATM   21  N   UNL     1     -10.094  10.451  67.111  1.00  0.00    -0.198 N  
HETATM   22  C   UNL     1     -10.061  10.275  65.588  1.00  0.00    -0.271 C  
HETATM   23  C   UNL     1      -8.729  10.966  67.555  1.00  0.00    -0.130 C  
BRANCH  21  24
HETATM   24  C   UNL     1     -10.441   9.099  67.789  1.00  0.00    -0.247 C  
BRANCH  24  25
HETATM   25  C   UNL     1      -9.456   8.627  68.824  1.00  0.00    -0.143 A  
HETATM   26  C   UNL     1      -9.380   9.275  70.067  1.00  0.00    -0.232 A  
HETATM   27  C   UNL     1      -8.373   8.947  70.972  1.00  0.00    -0.233 A  
HETATM   28  C   UNL     1      -7.447   7.957  70.655  1.00  0.00    -0.069 A  
HETATM   29  C   UNL     1      -7.547   7.265  69.450  1.00  0.00    -0.097 A  
HETATM   30  C   UNL     1      -8.557   7.587  68.543  1.00  0.00    -0.129 A  
ENDBRANCH  24  25
ENDBRANCH  21  24
ENDBRANCH  20  21
ENDBRANCH  19  20
ENDBRANCH  18  19
ENDBRANCH  17  18
ENDBRANCH  16  17
ENDBRANCH  15  16
ENDBRANCH  12  15
ENDBRANCH   6   9
ENDBRANCH   5   6
ENDBRANCH   2   5
TORSDOF 12
ENDMDL
MODEL      133
REMARK 921   NORMALIZED FREE ENERGY PREDICTED BY IDOCK:   -4.48 KCAL/MOL
REMARK 922        TOTAL FREE ENERGY PREDICTED BY IDOCK:   -8.89 KCAL/MOL
REMARK 923 INTER-LIGAND FREE ENERGY PREDICTED BY IDOCK:   -8.15 KCAL/MOL
REMARK 924 INTRA-LIGAND FREE ENERGY PREDICTED BY IDOCK:   -0.74 KCAL/MOL
REMARK 927      BINDING AFFINITY PREDICTED BY RF-SCORE:    0.00 PKD
ROOT
HETATM    1  C   UNL     1     -12.390  12.117  63.482  1.00  0.00    -0.682 C  
HETATM    2  C   UNL     1     -10.983  12.030  64.088  1.00  0.00    -0.418 C  
HETATM    3  C   UNL     1     -10.966  10.997  65.224  1.00  0.00    -0.097 C  
HETATM    4  C   UNL     1     -10.055  11.479  62.971  1.00  0.00    -0.330 C  
ENDROOT
BRANCH   2   5
HETATM    5  C   UNL     1     -10.413  13.420  64.521  1.00  0.00    -0.431 C  
BRANCH   5   6
HETATM    6  C   UNL     1     -10.684  14.106  65.915  1.00  0.00    -0.298 C  
HETATM    7  C   UNL     1     -12.012  13.653  66.560  1.00  0.00    -0.465 C  
HETATM    8  C   UNL     1     -10.744  15.644  65.807  1.00  0.00    -0.350 C  
BRANCH   6   9
HETATM    9  C   UNL     1      -9.539  13.662  66.867  1.00  0.00    -0.262 A  
HETATM   10  C   UNL     1      -9.568  12.460  67.595  1.00  0.00    -0.193 A  
HETATM   11  C   UNL     1      -8.516  12.093  68.437  1.00  0.00    -0.145 A  
HETATM   12  C   UNL     1      -7.412  12.923  68.590  1.00  0.00    -0.092 A  
HETATM   13  C   UNL     1      -8.412  14.491  67.047  1.00  0.00    -0.222 A  
HETATM   14  C   UNL     1      -7.364  14.131  67.902  1.00  0.00    -0.163 A  
BRANCH  12  15
HETATM   15  O   UNL     1      -6.468  12.460  69.466  1.00  0.00    -0.119 OA 
BRANCH  15  16
HETATM   16  C   UNL     1      -5.628  11.419  68.987  1.00  0.00    -0.039 C  
BRANCH  16  17
HETATM   17  C   UNL     1      -5.589  10.317  70.048  1.00  0.00    -0.048 C  
BRANCH  17  18
HETATM   18  O   UNL     1      -6.801  10.134  70.790  1.00  0.00    -0.317 OA 
BRANCH  18  19
HETATM   19  C   UNL     1      -7.096   8.814  71.236  1.00  0.00    -0.092 C  
BRANCH  19  20
HETATM   20  C   UNL     1      -7.981   8.061  70.233  1.00  0.00    -0.104 C  
BRANCH  20  21
HETATM   21  N   UNL     1      -9.045   7.142  70.850  1.00  0.00    -0.152 N  
HETATM   22  C   UNL     1     -10.090   6.881  69.757  1.00  0.00    -0.184 C  
HETATM   23  C   UNL     1      -8.428   5.804  71.241  1.00  0.00    -0.128 C  
BRANCH  21  24
HETATM   24  C   UNL     1      -9.718   7.836  72.064  1.00  0.00    -0.173 C  
BRANCH  24  25
HETATM   25  C   UNL     1     -10.946   8.645  71.742  1.00  0.00    -0.396 A  
HETATM   26  C   UNL     1     -10.834   9.821  70.986  1.00  0.00    -0.378 A  
HETATM   27  C   UNL     1     -11.936  10.655  70.812  1.00  0.00    -0.477 A  
HETATM   28  C   UNL     1     -13.163  10.314  71.373  1.00  0.00    -0.464 A  
HETATM   29  C   UNL     1     -13.303   9.119  72.075  1.00  0.00    -0.507 A  
HETATM   30  C   UNL     1     -12.204   8.279  72.248  1.00  0.00    -0.428 A  
ENDBRANCH  24  25
ENDBRANCH  21  24
ENDBRANCH  20  21
ENDBRANCH  19  20
ENDBRANCH  18  19
ENDBRANCH  17  18
ENDBRANCH  16  17
ENDBRANCH  15  16
ENDBRANCH  12  15
ENDBRANCH   6   9
ENDBRANCH   5   6
ENDBRANCH   2   5
TORSDOF 12
ENDMDL
MODEL      134
REMARK 921   NORMALIZED FREE ENERGY PREDICTED BY IDOCK:   -4.48 KCAL/MOL
REMARK 922        TOTAL FREE ENERGY PREDICTED BY IDOCK:   -8.89 KCAL/MOL
REMARK 923 INTER-LIGAND FREE ENERGY PREDICTED BY IDOCK:   -9.04 KCAL/MOL
REMARK 924 INTRA-LIGAND FREE ENERGY PREDICTED BY IDOCK:    0.15 KCAL/MOL
REMARK 927      BINDING AFFINITY PREDICTED BY RF-SCORE:    0.00 PKD
ROOT
HETATM    1  C   UNL     1     -12.480   6.842  71.068  1.00  0.00    -0.364 C  
HETATM    2  C   UNL     1     -12.263   8.218  71.712  1.00  0.00    -0.367 C  
HETATM    3  C   UNL     1     -13.542   8.667  72.431  1.00  0.00    -0.392 C  
HETATM    4  C   UNL     1     -11.180   8.025  72.808  1.00  0.00    -0.448 C  
ENDROOT
BRANCH   2   5
HETATM    5  C   UNL     1     -11.722   9.287  70.708  1.00  0.00    -0.328 C  
BRANCH   5   6
HETATM    6  C   UNL     1     -10.495   9.072  69.741  1.00  0.00    -0.227 C  
HETATM    7  C   UNL     1     -10.501   7.683  69.064  1.00  0.00    -0.214 C  
HETATM    8  C   UNL     1      -9.144   9.204  70.473  1.00  0.00    -0.284 C  
BRANCH   6   9
HETATM    9  C   UNL     1     -10.620  10.130  68.610  1.00  0.00    -0.236 A  
HETATM   10  C   UNL     1     -11.477  11.241  68.688  1.00  0.00    -0.362 A  
HETATM   11  C   UNL     1     -11.557  12.174  67.652  1.00  0.00    -0.413 A  
HETATM   12  C   UNL     1     -10.795  12.017  66.500  1.00  0.00    -0.277 A  
HETATM   13  C   UNL     1      -9.864   9.989  67.427  1.00  0.00    -0.226 A  
HETATM   14  C   UNL     1      -9.953  10.915  66.382  1.00  0.00    -0.266 A  
BRANCH  12  15
HETATM   15  O   UNL     1     -10.988  12.984  65.552  1.00  0.00    -0.271 OA 
BRANCH  15  16
HETATM   16  C   UNL     1     -11.030  14.323  66.024  1.00  0.00    -0.312 C  
BRANCH  16  17
HETATM   17  C   UNL     1     -10.424  15.224  64.945  1.00  0.00    -0.302 C  
BRANCH  17  18
HETATM   18  O   UNL     1      -9.870  16.459  65.415  1.00  0.00    -0.515 OA 
BRANCH  18  19
HETATM   19  C   UNL     1      -8.690  16.381  66.208  1.00  0.00    -0.334 C  
BRANCH  19  20
HETATM   20  C   UNL     1      -7.623  17.379  65.738  1.00  0.00     0.132 C  
BRANCH  20  21
HETATM   21  N   UNL     1      -6.408  17.533  66.663  1.00  0.00    -0.184 N  
HETATM   22  C   UNL     1      -6.330  16.253  67.506  1.00  0.00    -0.160 C  
HETATM   23  C   UNL     1      -5.127  17.634  65.843  1.00  0.00    -0.171 C  
BRANCH  21  24
HETATM   24  C   UNL     1      -6.589  18.763  67.592  1.00  0.00    -0.207 C  
BRANCH  24  25
HETATM   25  C   UNL     1      -8.003  19.259  67.732  1.00  0.00    -0.312 A  
HETATM   26  C   UNL     1      -8.764  18.902  68.857  1.00  0.00    -0.262 A  
HETATM   27  C   UNL     1     -10.117  19.227  68.924  1.00  0.00    -0.434 A  
HETATM   28  C   UNL     1     -10.718  19.927  67.882  1.00  0.00    -0.321 A  
HETATM   29  C   UNL     1      -9.961  20.339  66.788  1.00  0.00    -0.587 A  
HETATM   30  C   UNL     1      -8.605  20.020  66.718  1.00  0.00    -0.396 A  
ENDBRANCH  24  25
ENDBRANCH  21  24
ENDBRANCH  20  21
ENDBRANCH  19  20
ENDBRANCH  18  19
ENDBRANCH  17  18
ENDBRANCH  16  17
ENDBRANCH  15  16
ENDBRANCH  12  15
ENDBRANCH   6   9
ENDBRANCH   5   6
ENDBRANCH   2   5
TORSDOF 12
ENDMDL
MODEL      135
REMARK 921   NORMALIZED FREE ENERGY PREDICTED BY IDOCK:   -4.47 KCAL/MOL
REMARK 922        TOTAL FREE ENERGY PREDICTED BY IDOCK:   -8.87 KCAL/MOL
REMARK 923 INTER-LIGAND FREE ENERGY PREDICTED BY IDOCK:   -8.52 KCAL/MOL
REMARK 924 INTRA-LIGAND FREE ENERGY PREDICTED BY IDOCK:   -0.35 KCAL/MOL
REMARK 927      BINDING AFFINITY PREDICTED BY RF-SCORE:    0.00 PKD
ROOT
HETATM    1  C   UNL     1      -8.118   9.500  70.189  1.00  0.00    -0.186 C  
HETATM    2  C   UNL     1      -8.337   8.285  71.101  1.00  0.00    -0.149 C  
HETATM    3  C   UNL     1      -7.847   7.011  70.400  1.00  0.00    -0.108 C  
HETATM    4  C   UNL     1      -7.423   8.493  72.339  1.00  0.00    -0.085 C  
ENDROOT
BRANCH   2   5
HETATM    5  C   UNL     1      -9.806   8.166  71.624  1.00  0.00    -0.242 C  
BRANCH   5   6
HETATM    6  C   UNL     1     -11.091   8.214  70.711  1.00  0.00    -0.275 C  
HETATM    7  C   UNL     1     -12.175   7.203  71.145  1.00  0.00    -0.405 C  
HETATM    8  C   UNL     1     -10.768   7.912  69.233  1.00  0.00    -0.145 C  
BRANCH   6   9
HETATM    9  C   UNL     1     -11.703   9.633  70.866  1.00  0.00    -0.412 A  
HETATM   10  C   UNL     1     -11.336  10.723  70.056  1.00  0.00    -0.397 A  
HETATM   11  C   UNL     1     -11.913  11.982  70.223  1.00  0.00    -0.398 A  
HETATM   12  C   UNL     1     -12.863  12.197  71.214  1.00  0.00    -0.250 A  
HETATM   13  C   UNL     1     -12.663   9.880  71.870  1.00  0.00    -0.501 A  
HETATM   14  C   UNL     1     -13.232  11.146  72.048  1.00  0.00    -0.428 A  
BRANCH  12  15
HETATM   15  O   UNL     1     -13.328  13.482  71.290  1.00  0.00    -0.266 OA 
BRANCH  15  16
HETATM   16  C   UNL     1     -12.828  14.387  70.316  1.00  0.00    -0.178 C  
BRANCH  16  17
HETATM   17  C   UNL     1     -12.430  15.680  71.031  1.00  0.00    -0.447 C  
BRANCH  17  18
HETATM   18  O   UNL     1     -11.513  16.520  70.320  1.00  0.00    -0.213 OA 
BRANCH  18  19
HETATM   19  C   UNL     1     -10.624  15.883  69.409  1.00  0.00    -0.263 C  
BRANCH  19  20
HETATM   20  C   UNL     1     -10.857  16.354  67.966  1.00  0.00    -0.342 C  
BRANCH  20  21
HETATM   21  N   UNL     1      -9.841  17.374  67.431  1.00  0.00    -0.273 N  
HETATM   22  C   UNL     1      -8.704  16.570  66.789  1.00  0.00    -0.226 C  
HETATM   23  C   UNL     1     -10.478  18.237  66.348  1.00  0.00    -0.366 C  
BRANCH  21  24
HETATM   24  C   UNL     1      -9.282  18.239  68.593  1.00  0.00    -0.292 C  
BRANCH  24  25
HETATM   25  C   UNL     1      -7.994  18.959  68.296  1.00  0.00    -0.343 A  
HETATM   26  C   UNL     1      -6.765  18.338  68.566  1.00  0.00    -0.242 A  
HETATM   27  C   UNL     1      -5.573  19.049  68.439  1.00  0.00    -0.200 A  
HETATM   28  C   UNL     1      -5.596  20.377  68.023  1.00  0.00    -0.254 A  
HETATM   29  C   UNL     1      -6.805  20.987  67.693  1.00  0.00    -0.370 A  
HETATM   30  C   UNL     1      -7.999  20.277  67.815  1.00  0.00    -0.267 A  
ENDBRANCH  24  25
ENDBRANCH  21  24
ENDBRANCH  20  21
ENDBRANCH  19  20
ENDBRANCH  18  19
ENDBRANCH  17  18
ENDBRANCH  16  17
ENDBRANCH  15  16
ENDBRANCH  12  15
ENDBRANCH   6   9
ENDBRANCH   5   6
ENDBRANCH   2   5
TORSDOF 12
ENDMDL
MODEL      136
REMARK 921   NORMALIZED FREE ENERGY PREDICTED BY IDOCK:   -4.45 KCAL/MOL
REMARK 922        TOTAL FREE ENERGY PREDICTED BY IDOCK:   -8.84 KCAL/MOL
REMARK 923 INTER-LIGAND FREE ENERGY PREDICTED BY IDOCK:   -8.18 KCAL/MOL
REMARK 924 INTRA-LIGAND FREE ENERGY PREDICTED BY IDOCK:   -0.67 KCAL/MOL
REMARK 927      BINDING AFFINITY PREDICTED BY RF-SCORE:    0.00 PKD
ROOT
HETATM    1  C   UNL     1     -10.700   7.488  66.958  1.00  0.00    -0.367 C  
HETATM    2  C   UNL     1      -9.691   7.773  68.078  1.00  0.00    -0.176 C  
HETATM    3  C   UNL     1     -10.392   8.480  69.246  1.00  0.00    -0.227 C  
HETATM    4  C   UNL     1      -9.222   6.391  68.610  1.00  0.00    -0.125 C  
ENDROOT
BRANCH   2   5
HETATM    5  C   UNL     1      -8.419   8.535  67.580  1.00  0.00    -0.129 C  
BRANCH   5   6
HETATM    6  C   UNL     1      -7.887   8.520  66.096  1.00  0.00    -0.098 C  
HETATM    7  C   UNL     1      -8.103   7.160  65.394  1.00  0.00    -0.137 C  
HETATM    8  C   UNL     1      -6.378   8.828  66.014  1.00  0.00    -0.057 C  
BRANCH   6   9
HETATM    9  C   UNL     1      -8.712   9.575  65.309  1.00  0.00    -0.193 A  
HETATM   10  C   UNL     1      -9.394  10.637  65.929  1.00  0.00    -0.224 A  
HETATM   11  C   UNL     1     -10.121  11.568  65.186  1.00  0.00    -0.313 A  
HETATM   12  C   UNL     1     -10.204  11.459  63.804  1.00  0.00    -0.382 A  
HETATM   13  C   UNL     1      -8.820   9.481  63.906  1.00  0.00    -0.240 A  
HETATM   14  C   UNL     1      -9.560  10.406  63.161  1.00  0.00    -0.346 A  
BRANCH  12  15
HETATM   15  O   UNL     1     -10.970  12.419  63.200  1.00  0.00    -0.374 OA 
BRANCH  15  16
HETATM   16  C   UNL     1     -12.266  12.618  63.746  1.00  0.00    -0.514 C  
BRANCH  16  17
HETATM   17  C   UNL     1     -12.461  14.120  63.965  1.00  0.00    -0.163 C  
BRANCH  17  18
HETATM   18  O   UNL     1     -12.318  14.568  65.319  1.00  0.00    -0.370 OA 
BRANCH  18  19
HETATM   19  C   UNL     1     -11.088  15.195  65.668  1.00  0.00    -0.334 C  
BRANCH  19  20
HETATM   20  C   UNL     1     -10.968  15.402  67.184  1.00  0.00    -0.317 C  
BRANCH  20  21
HETATM   21  N   UNL     1      -9.535  15.473  67.731  1.00  0.00    -0.204 N  
HETATM   22  C   UNL     1      -9.615  16.180  69.090  1.00  0.00    -0.249 C  
HETATM   23  C   UNL     1      -8.986  14.070  67.962  1.00  0.00    -0.182 C  
BRANCH  21  24
HETATM   24  C   UNL     1      -8.630  16.288  66.768  1.00  0.00    -0.237 C  
BRANCH  24  25
HETATM   25  C   UNL     1      -8.746  17.783  66.889  1.00  0.00    -0.262 A  
HETATM   26  C   UNL     1      -7.787  18.505  67.617  1.00  0.00    -0.245 A  
HETATM   27  C   UNL     1      -7.966  19.864  67.864  1.00  0.00    -0.323 A  
HETATM   28  C   UNL     1      -9.090  20.520  67.370  1.00  0.00    -0.457 A  
HETATM   29  C   UNL     1     -10.019  19.829  66.595  1.00  0.00    -0.556 A  
HETATM   30  C   UNL     1      -9.842  18.469  66.343  1.00  0.00    -0.376 A  
ENDBRANCH  24  25
ENDBRANCH  21  24
ENDBRANCH  20  21
ENDBRANCH  19  20
ENDBRANCH  18  19
ENDBRANCH  17  18
ENDBRANCH  16  17
ENDBRANCH  15  16
ENDBRANCH  12  15
ENDBRANCH   6   9
ENDBRANCH   5   6
ENDBRANCH   2   5
TORSDOF 12
ENDMDL
MODEL      137
REMARK 921   NORMALIZED FREE ENERGY PREDICTED BY IDOCK:   -4.45 KCAL/MOL
REMARK 922        TOTAL FREE ENERGY PREDICTED BY IDOCK:   -8.84 KCAL/MOL
REMARK 923 INTER-LIGAND FREE ENERGY PREDICTED BY IDOCK:   -8.03 KCAL/MOL
REMARK 924 INTRA-LIGAND FREE ENERGY PREDICTED BY IDOCK:   -0.81 KCAL/MOL
REMARK 927      BINDING AFFINITY PREDICTED BY RF-SCORE:    0.00 PKD
ROOT
HETATM    1  C   UNL     1      -9.774  13.249  67.425  1.00  0.00    -0.221 C  
HETATM    2  C   UNL     1     -11.274  12.927  67.427  1.00  0.00    -0.331 C  
HETATM    3  C   UNL     1     -11.690  12.385  68.801  1.00  0.00    -0.379 C  
HETATM    4  C   UNL     1     -12.014  14.279  67.239  1.00  0.00    -0.439 C  
ENDROOT
BRANCH   2   5
HETATM    5  C   UNL     1     -11.705  11.995  66.248  1.00  0.00    -0.319 C  
BRANCH   5   6
HETATM    6  C   UNL     1     -11.302  12.210  64.739  1.00  0.00    -0.378 C  
HETATM    7  C   UNL     1     -10.679  13.600  64.477  1.00  0.00    -0.420 C  
HETATM    8  C   UNL     1     -12.509  12.078  63.788  1.00  0.00    -0.594 C  
BRANCH   6   9
HETATM    9  C   UNL     1     -10.214  11.153  64.406  1.00  0.00    -0.390 A  
HETATM   10  C   UNL     1      -9.577  11.073  63.155  1.00  0.00    -0.384 A  
HETATM   11  C   UNL     1      -8.600  10.110  62.896  1.00  0.00    -0.193 A  
HETATM   12  C   UNL     1      -8.240   9.188  63.871  1.00  0.00    -0.172 A  
HETATM   13  C   UNL     1      -9.838  10.199  65.376  1.00  0.00    -0.375 A  
HETATM   14  C   UNL     1      -8.869   9.225  65.112  1.00  0.00    -0.238 A  
BRANCH  12  15
HETATM   15  O   UNL     1      -7.293   8.282  63.480  1.00  0.00    -0.098 OA 
BRANCH  15  16
HETATM   16  C   UNL     1      -7.753   6.959  63.241  1.00  0.00    -0.110 C  
BRANCH  16  17
HETATM   17  C   UNL     1      -6.856   5.998  64.024  1.00  0.00    -0.038 C  
BRANCH  17  18
HETATM   18  O   UNL     1      -6.866   6.167  65.447  1.00  0.00    -0.046 OA 
BRANCH  18  19
HETATM   19  C   UNL     1      -8.020   5.710  66.146  1.00  0.00    -0.106 C  
BRANCH  19  20
HETATM   20  C   UNL     1      -8.294   6.552  67.399  1.00  0.00    -0.120 C  
BRANCH  20  21
HETATM   21  N   UNL     1      -9.655   6.317  68.071  1.00  0.00    -0.115 N  
HETATM   22  C   UNL     1     -10.534   5.593  67.043  1.00  0.00    -0.281 C  
HETATM   23  C   UNL     1      -9.497   5.405  69.282  1.00  0.00    -0.133 C  
BRANCH  21  24
HETATM   24  C   UNL     1     -10.307   7.671  68.457  1.00  0.00    -0.198 C  
BRANCH  24  25
HETATM   25  C   UNL     1     -10.657   7.823  69.913  1.00  0.00    -0.239 A  
HETATM   26  C   UNL     1      -9.829   8.578  70.759  1.00  0.00    -0.220 A  
HETATM   27  C   UNL     1     -10.058   8.600  72.133  1.00  0.00    -0.388 A  
HETATM   28  C   UNL     1     -11.125   7.887  72.673  1.00  0.00    -0.447 A  
HETATM   29  C   UNL     1     -11.990   7.183  71.838  1.00  0.00    -0.343 A  
HETATM   30  C   UNL     1     -11.767   7.161  70.461  1.00  0.00    -0.314 A  
ENDBRANCH  24  25
ENDBRANCH  21  24
ENDBRANCH  20  21
ENDBRANCH  19  20
ENDBRANCH  18  19
ENDBRANCH  17  18
ENDBRANCH  16  17
ENDBRANCH  15  16
ENDBRANCH  12  15
ENDBRANCH   6   9
ENDBRANCH   5   6
ENDBRANCH   2   5
TORSDOF 12
ENDMDL
MODEL      138
REMARK 921   NORMALIZED FREE ENERGY PREDICTED BY IDOCK:   -4.44 KCAL/MOL
REMARK 922        TOTAL FREE ENERGY PREDICTED BY IDOCK:   -8.82 KCAL/MOL
REMARK 923 INTER-LIGAND FREE ENERGY PREDICTED BY IDOCK:   -8.05 KCAL/MOL
REMARK 924 INTRA-LIGAND FREE ENERGY PREDICTED BY IDOCK:   -0.77 KCAL/MOL
REMARK 927      BINDING AFFINITY PREDICTED BY RF-SCORE:    0.00 PKD
ROOT
HETATM    1  C   UNL     1     -10.898   6.045  72.353  1.00  0.00    -0.288 C  
HETATM    2  C   UNL     1     -10.402   6.030  70.901  1.00  0.00    -0.277 C  
HETATM    3  C   UNL     1      -9.938   4.617  70.522  1.00  0.00    -0.295 C  
HETATM    4  C   UNL     1     -11.635   6.348  70.012  1.00  0.00    -0.446 C  
ENDROOT
BRANCH   2   5
HETATM    5  C   UNL     1      -9.324   7.124  70.608  1.00  0.00    -0.158 C  
BRANCH   5   6
HETATM    6  C   UNL     1      -9.288   8.551  71.278  1.00  0.00    -0.261 C  
HETATM    7  C   UNL     1      -8.348   8.616  72.503  1.00  0.00    -0.080 C  
HETATM    8  C   UNL     1     -10.680   9.005  71.761  1.00  0.00    -0.437 C  
BRANCH   6   9
HETATM    9  C   UNL     1      -8.721   9.534  70.216  1.00  0.00    -0.270 A  
HETATM   10  C   UNL     1      -7.358   9.867  70.126  1.00  0.00    -0.166 A  
HETATM   11  C   UNL     1      -6.887  10.751  69.154  1.00  0.00    -0.084 A  
HETATM   12  C   UNL     1      -7.764  11.342  68.253  1.00  0.00    -0.124 A  
HETATM   13  C   UNL     1      -9.592  10.155  69.296  1.00  0.00    -0.239 A  
HETATM   14  C   UNL     1      -9.122  11.052  68.330  1.00  0.00    -0.161 A  
BRANCH  12  15
HETATM   15  O   UNL     1      -7.178  12.210  67.372  1.00  0.00    -0.125 OA 
BRANCH  15  16
HETATM   16  C   UNL     1      -6.334  13.202  67.939  1.00  0.00    -0.139 C  
BRANCH  16  17
HETATM   17  C   UNL     1      -6.928  14.573  67.608  1.00  0.00    -0.184 C  
BRANCH  17  18
HETATM   18  O   UNL     1      -6.896  15.531  68.674  1.00  0.00    -0.109 OA 
BRANCH  18  19
HETATM   19  C   UNL     1      -8.133  15.830  69.313  1.00  0.00    -0.241 C  
BRANCH  19  20
HETATM   20  C   UNL     1      -9.312  15.128  68.627  1.00  0.00    -0.199 C  
BRANCH  20  21
HETATM   21  N   UNL     1     -10.306  16.052  67.909  1.00  0.00    -0.262 N  
HETATM   22  C   UNL     1      -9.925  17.489  68.287  1.00  0.00    -0.330 C  
HETATM   23  C   UNL     1     -10.166  15.909  66.398  1.00  0.00    -0.301 C  
BRANCH  21  24
HETATM   24  C   UNL     1     -11.755  15.752  68.378  1.00  0.00    -0.271 C  
BRANCH  24  25
HETATM   25  C   UNL     1     -11.890  15.326  69.816  1.00  0.00    -0.357 A  
HETATM   26  C   UNL     1     -12.401  14.056  70.126  1.00  0.00    -0.409 A  
HETATM   27  C   UNL     1     -12.673  13.710  71.448  1.00  0.00    -0.437 A  
HETATM   28  C   UNL     1     -12.418  14.618  72.472  1.00  0.00    -0.379 A  
HETATM   29  C   UNL     1     -11.855  15.859  72.183  1.00  0.00    -0.615 A  
HETATM   30  C   UNL     1     -11.578  16.208  70.862  1.00  0.00    -0.406 A  
ENDBRANCH  24  25
ENDBRANCH  21  24
ENDBRANCH  20  21
ENDBRANCH  19  20
ENDBRANCH  18  19
ENDBRANCH  17  18
ENDBRANCH  16  17
ENDBRANCH  15  16
ENDBRANCH  12  15
ENDBRANCH   6   9
ENDBRANCH   5   6
ENDBRANCH   2   5
TORSDOF 12
ENDMDL
MODEL      139
REMARK 921   NORMALIZED FREE ENERGY PREDICTED BY IDOCK:   -4.44 KCAL/MOL
REMARK 922        TOTAL FREE ENERGY PREDICTED BY IDOCK:   -8.82 KCAL/MOL
REMARK 923 INTER-LIGAND FREE ENERGY PREDICTED BY IDOCK:   -8.16 KCAL/MOL
REMARK 924 INTRA-LIGAND FREE ENERGY PREDICTED BY IDOCK:   -0.66 KCAL/MOL
REMARK 927      BINDING AFFINITY PREDICTED BY RF-SCORE:    0.00 PKD
ROOT
HETATM    1  C   UNL     1      -7.601   4.291  70.643  1.00  0.00    -0.052 C  
HETATM    2  C   UNL     1      -8.386   3.783  71.859  1.00  0.00    -0.090 C  
HETATM    3  C   UNL     1      -9.584   2.944  71.394  1.00  0.00    -0.223 C  
HETATM    4  C   UNL     1      -7.438   2.820  72.624  1.00  0.00    -0.045 C  
ENDROOT
BRANCH   2   5
HETATM    5  C   UNL     1      -8.789   4.922  72.851  1.00  0.00    -0.117 C  
BRANCH   5   6
HETATM    6  C   UNL     1     -10.166   5.690  72.825  1.00  0.00    -0.213 C  
HETATM    7  C   UNL     1     -10.269   6.776  73.919  1.00  0.00    -0.396 C  
HETATM    8  C   UNL     1     -11.367   4.742  73.024  1.00  0.00    -0.325 C  
BRANCH   6   9
HETATM    9  C   UNL     1     -10.253   6.415  71.454  1.00  0.00    -0.228 A  
HETATM   10  C   UNL     1     -11.143   6.031  70.435  1.00  0.00    -0.399 A  
HETATM   11  C   UNL     1     -11.195   6.712  69.218  1.00  0.00    -0.326 A  
HETATM   12  C   UNL     1     -10.350   7.787  68.974  1.00  0.00    -0.211 A  
HETATM   13  C   UNL     1      -9.399   7.504  71.178  1.00  0.00    -0.155 A  
HETATM   14  C   UNL     1      -9.441   8.178  69.952  1.00  0.00    -0.160 A  
BRANCH  12  15
HETATM   15  O   UNL     1     -10.482   8.348  67.733  1.00  0.00    -0.236 OA 
BRANCH  15  16
HETATM   16  C   UNL     1      -9.825   9.591  67.535  1.00  0.00    -0.167 C  
BRANCH  16  17
HETATM   17  C   UNL     1     -10.897  10.668  67.346  1.00  0.00    -0.296 C  
BRANCH  17  18
HETATM   18  O   UNL     1     -11.696  10.950  68.501  1.00  0.00    -0.382 OA 
BRANCH  18  19
HETATM   19  C   UNL     1     -11.812  12.314  68.893  1.00  0.00    -0.303 C  
BRANCH  19  20
HETATM   20  C   UNL     1     -10.653  13.160  68.349  1.00  0.00    -0.251 C  
BRANCH  20  21
HETATM   21  N   UNL     1     -11.011  14.602  67.962  1.00  0.00    -0.260 N  
HETATM   22  C   UNL     1     -11.948  14.515  66.751  1.00  0.00    -0.342 C  
HETATM   23  C   UNL     1     -11.770  15.282  69.096  1.00  0.00    -0.335 C  
BRANCH  21  24
HETATM   24  C   UNL     1      -9.730  15.392  67.580  1.00  0.00    -0.208 C  
BRANCH  24  25
HETATM   25  C   UNL     1      -9.904  16.882  67.467  1.00  0.00    -0.260 A  
HETATM   26  C   UNL     1      -9.710  17.698  68.593  1.00  0.00    -0.332 A  
HETATM   27  C   UNL     1     -10.015  19.057  68.539  1.00  0.00    -0.486 A  
HETATM   28  C   UNL     1     -10.496  19.616  67.359  1.00  0.00    -0.596 A  
HETATM   29  C   UNL     1     -10.636  18.830  66.218  1.00  0.00    -0.429 A  
HETATM   30  C   UNL     1     -10.328  17.471  66.266  1.00  0.00    -0.335 A  
ENDBRANCH  24  25
ENDBRANCH  21  24
ENDBRANCH  20  21
ENDBRANCH  19  20
ENDBRANCH  18  19
ENDBRANCH  17  18
ENDBRANCH  16  17
ENDBRANCH  15  16
ENDBRANCH  12  15
ENDBRANCH   6   9
ENDBRANCH   5   6
ENDBRANCH   2   5
TORSDOF 12
ENDMDL
MODEL      140
REMARK 921   NORMALIZED FREE ENERGY PREDICTED BY IDOCK:   -4.43 KCAL/MOL
REMARK 922        TOTAL FREE ENERGY PREDICTED BY IDOCK:   -8.81 KCAL/MOL
REMARK 923 INTER-LIGAND FREE ENERGY PREDICTED BY IDOCK:   -8.32 KCAL/MOL
REMARK 924 INTRA-LIGAND FREE ENERGY PREDICTED BY IDOCK:   -0.49 KCAL/MOL
REMARK 927      BINDING AFFINITY PREDICTED BY RF-SCORE:    0.00 PKD
ROOT
HETATM    1  C   UNL     1     -10.994   7.657  72.797  1.00  0.00    -0.432 C  
HETATM    2  C   UNL     1      -9.771   8.010  71.940  1.00  0.00    -0.250 C  
HETATM    3  C   UNL     1     -10.022   9.324  71.188  1.00  0.00    -0.356 C  
HETATM    4  C   UNL     1      -8.604   8.278  72.929  1.00  0.00    -0.276 C  
ENDROOT
BRANCH   2   5
HETATM    5  C   UNL     1      -9.324   6.845  70.998  1.00  0.00    -0.156 C  
BRANCH   5   6
HETATM    6  C   UNL     1     -10.119   6.364  69.725  1.00  0.00    -0.211 C  
HETATM    7  C   UNL     1     -11.649   6.511  69.882  1.00  0.00    -0.433 C  
HETATM    8  C   UNL     1      -9.847   4.883  69.391  1.00  0.00    -0.281 C  
BRANCH   6   9
HETATM    9  C   UNL     1      -9.691   7.285  68.550  1.00  0.00    -0.149 A  
HETATM   10  C   UNL     1     -10.609   7.967  67.732  1.00  0.00    -0.244 A  
HETATM   11  C   UNL     1     -10.184   8.790  66.689  1.00  0.00    -0.340 A  
HETATM   12  C   UNL     1      -8.830   8.946  66.418  1.00  0.00    -0.152 A  
HETATM   13  C   UNL     1      -8.323   7.452  68.249  1.00  0.00    -0.125 A  
HETATM   14  C   UNL     1      -7.896   8.266  67.193  1.00  0.00    -0.097 A  
BRANCH  12  15
HETATM   15  O   UNL     1      -8.550   9.756  65.352  1.00  0.00    -0.135 OA 
BRANCH  15  16
HETATM   16  C   UNL     1      -9.643  10.069  64.500  1.00  0.00    -0.279 C  
BRANCH  16  17
HETATM   17  C   UNL     1      -9.317  11.376  63.774  1.00  0.00    -0.101 C  
BRANCH  17  18
HETATM   18  O   UNL     1     -10.108  12.508  64.158  1.00  0.00    -0.337 OA 
BRANCH  18  19
HETATM   19  C   UNL     1     -11.000  12.333  65.254  1.00  0.00    -0.307 C  
BRANCH  19  20
HETATM   20  C   UNL     1     -10.304  12.590  66.598  1.00  0.00    -0.227 C  
BRANCH  20  21
HETATM   21  N   UNL     1     -10.589  13.955  67.241  1.00  0.00    -0.274 N  
HETATM   22  C   UNL     1      -9.521  14.165  68.322  1.00  0.00    -0.211 C  
HETATM   23  C   UNL     1     -10.441  15.068  66.210  1.00  0.00    -0.304 C  
BRANCH  21  24
HETATM   24  C   UNL     1     -12.000  13.961  67.888  1.00  0.00    -0.358 C  
BRANCH  24  25
HETATM   25  C   UNL     1     -12.046  14.408  69.324  1.00  0.00    -0.336 A  
HETATM   26  C   UNL     1     -11.534  15.664  69.686  1.00  0.00    -0.345 A  
HETATM   27  C   UNL     1     -11.432  16.023  71.028  1.00  0.00    -0.460 A  
HETATM   28  C   UNL     1     -11.858  15.143  72.019  1.00  0.00    -0.495 A  
HETATM   29  C   UNL     1     -12.423  13.919  71.672  1.00  0.00    -0.337 A  
HETATM   30  C   UNL     1     -12.531  13.556  70.329  1.00  0.00    -0.309 A  
ENDBRANCH  24  25
ENDBRANCH  21  24
ENDBRANCH  20  21
ENDBRANCH  19  20
ENDBRANCH  18  19
ENDBRANCH  17  18
ENDBRANCH  16  17
ENDBRANCH  15  16
ENDBRANCH  12  15
ENDBRANCH   6   9
ENDBRANCH   5   6
ENDBRANCH   2   5
TORSDOF 12
ENDMDL
MODEL      141
REMARK 921   NORMALIZED FREE ENERGY PREDICTED BY IDOCK:   -4.43 KCAL/MOL
REMARK 922        TOTAL FREE ENERGY PREDICTED BY IDOCK:   -8.81 KCAL/MOL
REMARK 923 INTER-LIGAND FREE ENERGY PREDICTED BY IDOCK:   -8.31 KCAL/MOL
REMARK 924 INTRA-LIGAND FREE ENERGY PREDICTED BY IDOCK:   -0.50 KCAL/MOL
REMARK 927      BINDING AFFINITY PREDICTED BY RF-SCORE:    0.00 PKD
ROOT
HETATM    1  C   UNL     1     -11.770   8.024  72.433  1.00  0.00    -0.444 C  
HETATM    2  C   UNL     1     -10.787   6.855  72.290  1.00  0.00    -0.262 C  
HETATM    3  C   UNL     1      -9.846   6.813  73.501  1.00  0.00    -0.249 C  
HETATM    4  C   UNL     1     -11.637   5.556  72.341  1.00  0.00    -0.230 C  
ENDROOT
BRANCH   2   5
HETATM    5  C   UNL     1     -10.023   6.857  70.925  1.00  0.00    -0.200 C  
BRANCH   5   6
HETATM    6  C   UNL     1      -9.016   7.978  70.462  1.00  0.00    -0.152 C  
HETATM    7  C   UNL     1      -7.827   7.418  69.648  1.00  0.00    -0.117 C  
HETATM    8  C   UNL     1      -8.415   8.751  71.653  1.00  0.00    -0.209 C  
BRANCH   6   9
HETATM    9  C   UNL     1      -9.803   8.932  69.522  1.00  0.00    -0.180 A  
HETATM   10  C   UNL     1     -10.159   8.592  68.204  1.00  0.00    -0.236 A  
HETATM   11  C   UNL     1     -10.872   9.476  67.392  1.00  0.00    -0.215 A  
HETATM   12  C   UNL     1     -11.236  10.731  67.864  1.00  0.00    -0.318 A  
HETATM   13  C   UNL     1     -10.176  10.215  69.973  1.00  0.00    -0.271 A  
HETATM   14  C   UNL     1     -10.878  11.107  69.154  1.00  0.00    -0.284 A  
BRANCH  12  15
HETATM   15  O   UNL     1     -11.905  11.509  66.958  1.00  0.00    -0.568 OA 
BRANCH  15  16
HETATM   16  C   UNL     1     -11.838  12.912  67.170  1.00  0.00    -0.362 C  
BRANCH  16  17
HETATM   17  C   UNL     1     -11.007  13.523  66.038  1.00  0.00    -0.275 C  
BRANCH  17  18
HETATM   18  O   UNL     1      -9.963  14.412  66.452  1.00  0.00    -0.272 OA 
BRANCH  18  19
HETATM   19  C   UNL     1      -8.996  13.898  67.362  1.00  0.00    -0.210 C  
BRANCH  19  20
HETATM   20  C   UNL     1      -8.510  14.975  68.341  1.00  0.00    -0.153 C  
BRANCH  20  21
HETATM   21  N   UNL     1      -7.327  15.825  67.856  1.00  0.00    -0.128 N  
HETATM   22  C   UNL     1      -7.004  16.816  68.982  1.00  0.00    -0.218 C  
HETATM   23  C   UNL     1      -6.100  14.948  67.635  1.00  0.00    -0.075 C  
BRANCH  21  24
HETATM   24  C   UNL     1      -7.713  16.601  66.568  1.00  0.00    -0.302 C  
BRANCH  24  25
HETATM   25  C   UNL     1      -8.495  17.867  66.791  1.00  0.00    -0.268 A  
HETATM   26  C   UNL     1      -9.888  17.871  66.617  1.00  0.00    -0.342 A  
HETATM   27  C   UNL     1     -10.601  19.067  66.671  1.00  0.00    -0.499 A  
HETATM   28  C   UNL     1      -9.936  20.264  66.918  1.00  0.00    -0.592 A  
HETATM   29  C   UNL     1      -8.562  20.266  67.152  1.00  0.00    -0.417 A  
HETATM   30  C   UNL     1      -7.845  19.071  67.103  1.00  0.00    -0.262 A  
ENDBRANCH  24  25
ENDBRANCH  21  24
ENDBRANCH  20  21
ENDBRANCH  19  20
ENDBRANCH  18  19
ENDBRANCH  17  18
ENDBRANCH  16  17
ENDBRANCH  15  16
ENDBRANCH  12  15
ENDBRANCH   6   9
ENDBRANCH   5   6
ENDBRANCH   2   5
TORSDOF 12
ENDMDL
MODEL      142
REMARK 921   NORMALIZED FREE ENERGY PREDICTED BY IDOCK:   -4.43 KCAL/MOL
REMARK 922        TOTAL FREE ENERGY PREDICTED BY IDOCK:   -8.81 KCAL/MOL
REMARK 923 INTER-LIGAND FREE ENERGY PREDICTED BY IDOCK:   -7.70 KCAL/MOL
REMARK 924 INTRA-LIGAND FREE ENERGY PREDICTED BY IDOCK:   -1.11 KCAL/MOL
REMARK 927      BINDING AFFINITY PREDICTED BY RF-SCORE:    0.00 PKD
ROOT
HETATM    1  C   UNL     1      -8.363   5.409  69.586  1.00  0.00    -0.100 C  
HETATM    2  C   UNL     1      -7.608   6.741  69.496  1.00  0.00    -0.099 C  
HETATM    3  C   UNL     1      -6.118   6.518  69.789  1.00  0.00    -0.026 C  
HETATM    4  C   UNL     1      -7.707   7.205  68.018  1.00  0.00    -0.113 C  
ENDROOT
BRANCH   2   5
HETATM    5  C   UNL     1      -8.241   7.866  70.379  1.00  0.00    -0.119 C  
BRANCH   5   6
HETATM    6  C   UNL     1      -9.712   8.410  70.223  1.00  0.00    -0.178 C  
HETATM    7  C   UNL     1     -10.205   9.177  71.470  1.00  0.00    -0.403 C  
HETATM    8  C   UNL     1     -10.729   7.279  69.966  1.00  0.00    -0.261 C  
BRANCH   6   9
HETATM    9  C   UNL     1      -9.698   9.421  69.043  1.00  0.00    -0.166 A  
HETATM   10  C   UNL     1      -8.786  10.488  68.955  1.00  0.00    -0.160 A  
HETATM   11  C   UNL     1      -8.802  11.372  67.875  1.00  0.00    -0.149 A  
HETATM   12  C   UNL     1      -9.737  11.228  66.858  1.00  0.00    -0.192 A  
HETATM   13  C   UNL     1     -10.643   9.302  68.002  1.00  0.00    -0.262 A  
HETATM   14  C   UNL     1     -10.668  10.197  66.927  1.00  0.00    -0.231 A  
BRANCH  12  15
HETATM   15  O   UNL     1      -9.662  12.177  65.875  1.00  0.00    -0.241 OA 
BRANCH  15  16
HETATM   16  C   UNL     1     -10.757  12.228  64.971  1.00  0.00    -0.298 C  
BRANCH  16  17
HETATM   17  C   UNL     1     -10.981  13.692  64.582  1.00  0.00    -0.396 C  
BRANCH  17  18
HETATM   18  O   UNL     1     -11.207  14.592  65.674  1.00  0.00    -0.320 OA 
BRANCH  18  19
HETATM   19  C   UNL     1     -10.544  15.851  65.625  1.00  0.00    -0.378 C  
BRANCH  19  20
HETATM   20  C   UNL     1      -9.293  15.869  66.513  1.00  0.00    -0.277 C  
BRANCH  20  21
HETATM   21  N   UNL     1      -9.359  16.804  67.730  1.00  0.00    -0.231 N  
HETATM   22  C   UNL     1      -8.164  17.760  67.616  1.00  0.00    -0.230 C  
HETATM   23  C   UNL     1     -10.634  17.637  67.690  1.00  0.00    -0.362 C  
BRANCH  21  24
HETATM   24  C   UNL     1      -9.253  15.986  69.045  1.00  0.00    -0.244 C  
BRANCH  24  25
HETATM   25  C   UNL     1     -10.557  15.460  69.581  1.00  0.00    -0.285 A  
HETATM   26  C   UNL     1     -11.292  16.217  70.507  1.00  0.00    -0.392 A  
HETATM   27  C   UNL     1     -12.418  15.676  71.123  1.00  0.00    -0.505 A  
HETATM   28  C   UNL     1     -12.833  14.386  70.807  1.00  0.00    -0.417 A  
HETATM   29  C   UNL     1     -12.148  13.646  69.846  1.00  0.00    -0.406 A  
HETATM   30  C   UNL     1     -11.023  14.185  69.223  1.00  0.00    -0.252 A  
ENDBRANCH  24  25
ENDBRANCH  21  24
ENDBRANCH  20  21
ENDBRANCH  19  20
ENDBRANCH  18  19
ENDBRANCH  17  18
ENDBRANCH  16  17
ENDBRANCH  15  16
ENDBRANCH  12  15
ENDBRANCH   6   9
ENDBRANCH   5   6
ENDBRANCH   2   5
TORSDOF 12
ENDMDL
MODEL      143
REMARK 921   NORMALIZED FREE ENERGY PREDICTED BY IDOCK:   -4.42 KCAL/MOL
REMARK 922        TOTAL FREE ENERGY PREDICTED BY IDOCK:   -8.79 KCAL/MOL
REMARK 923 INTER-LIGAND FREE ENERGY PREDICTED BY IDOCK:   -8.25 KCAL/MOL
REMARK 924 INTRA-LIGAND FREE ENERGY PREDICTED BY IDOCK:   -0.54 KCAL/MOL
REMARK 927      BINDING AFFINITY PREDICTED BY RF-SCORE:    0.00 PKD
ROOT
HETATM    1  C   UNL     1     -10.269   9.327  67.385  1.00  0.00    -0.304 C  
HETATM    2  C   UNL     1      -9.243   9.944  66.425  1.00  0.00    -0.195 C  
HETATM    3  C   UNL     1      -7.899   9.215  66.559  1.00  0.00    -0.100 C  
HETATM    4  C   UNL     1      -9.761   9.663  64.988  1.00  0.00    -0.234 C  
ENDROOT
BRANCH   2   5
HETATM    5  C   UNL     1      -9.114  11.494  66.578  1.00  0.00    -0.199 C  
BRANCH   5   6
HETATM    6  C   UNL     1      -8.005  12.223  67.429  1.00  0.00    -0.171 C  
HETATM    7  C   UNL     1      -6.575  11.743  67.090  1.00  0.00    -0.143 C  
HETATM    8  C   UNL     1      -8.197  12.010  68.944  1.00  0.00     0.127 C  
BRANCH   6   9
HETATM    9  C   UNL     1      -8.076  13.732  67.068  1.00  0.00    -0.004 A  
HETATM   10  C   UNL     1      -9.135  14.298  66.335  1.00  0.00    -0.171 A  
HETATM   11  C   UNL     1      -9.165  15.661  66.035  1.00  0.00    -0.374 A  
HETATM   12  C   UNL     1      -8.134  16.498  66.443  1.00  0.00    -0.327 A  
HETATM   13  C   UNL     1      -7.037  14.601  67.462  1.00  0.00    -0.203 A  
HETATM   14  C   UNL     1      -7.061  15.965  67.150  1.00  0.00    -0.240 A  
BRANCH  12  15
HETATM   15  O   UNL     1      -8.272  17.804  66.060  1.00  0.00    -0.492 OA 
BRANCH  15  16
HETATM   16  C   UNL     1      -8.376  18.756  67.109  1.00  0.00    -0.271 C  
BRANCH  16  17
HETATM   17  C   UNL     1      -9.771  19.383  67.042  1.00  0.00    -0.334 C  
BRANCH  17  18
HETATM   18  O   UNL     1     -10.854  18.516  67.398  1.00  0.00    -0.421 OA 
BRANCH  18  19
HETATM   19  C   UNL     1     -10.645  17.636  68.498  1.00  0.00    -0.280 C  
BRANCH  19  20
HETATM   20  C   UNL     1     -11.607  16.441  68.460  1.00  0.00    -0.100 C  
BRANCH  20  21
HETATM   21  N   UNL     1     -11.348  15.348  69.507  1.00  0.00    -0.278 N  
HETATM   22  C   UNL     1      -9.849  15.393  69.829  1.00  0.00    -0.227 C  
HETATM   23  C   UNL     1     -12.115  15.651  70.789  1.00  0.00    -0.412 C  
BRANCH  21  24
HETATM   24  C   UNL     1     -11.721  13.954  68.935  1.00  0.00    -0.337 C  
BRANCH  24  25
HETATM   25  C   UNL     1     -12.020  12.897  69.963  1.00  0.00    -0.380 A  
HETATM   26  C   UNL     1     -11.565  11.583  69.771  1.00  0.00    -0.401 A  
HETATM   27  C   UNL     1     -11.964  10.566  70.636  1.00  0.00    -0.455 A  
HETATM   28  C   UNL     1     -12.802  10.853  71.710  1.00  0.00    -0.509 A  
HETATM   29  C   UNL     1     -13.212  12.163  71.946  1.00  0.00    -0.474 A  
HETATM   30  C   UNL     1     -12.812  13.185  71.085  1.00  0.00    -0.349 A  
ENDBRANCH  24  25
ENDBRANCH  21  24
ENDBRANCH  20  21
ENDBRANCH  19  20
ENDBRANCH  18  19
ENDBRANCH  17  18
ENDBRANCH  16  17
ENDBRANCH  15  16
ENDBRANCH  12  15
ENDBRANCH   6   9
ENDBRANCH   5   6
ENDBRANCH   2   5
TORSDOF 12
ENDMDL
MODEL      144
REMARK 921   NORMALIZED FREE ENERGY PREDICTED BY IDOCK:   -4.42 KCAL/MOL
REMARK 922        TOTAL FREE ENERGY PREDICTED BY IDOCK:   -8.79 KCAL/MOL
REMARK 923 INTER-LIGAND FREE ENERGY PREDICTED BY IDOCK:   -8.73 KCAL/MOL
REMARK 924 INTRA-LIGAND FREE ENERGY PREDICTED BY IDOCK:   -0.06 KCAL/MOL
REMARK 927      BINDING AFFINITY PREDICTED BY RF-SCORE:    0.00 PKD
ROOT
HETATM    1  C   UNL     1     -10.706   5.189  70.153  1.00  0.00    -0.105 C  
HETATM    2  C   UNL     1      -9.330   4.777  70.693  1.00  0.00    -0.218 C  
HETATM    3  C   UNL     1      -9.218   3.247  70.727  1.00  0.00    -0.208 C  
HETATM    4  C   UNL     1      -8.284   5.278  69.660  1.00  0.00    -0.095 C  
ENDROOT
BRANCH   2   5
HETATM    5  C   UNL     1      -8.983   5.443  72.065  1.00  0.00    -0.142 C  
BRANCH   5   6
HETATM    6  C   UNL     1      -9.917   6.455  72.833  1.00  0.00    -0.186 C  
HETATM    7  C   UNL     1      -9.300   6.954  74.159  1.00  0.00    -0.267 C  
HETATM    8  C   UNL     1     -11.285   5.836  73.184  1.00  0.00    -0.250 C  
BRANCH   6   9
HETATM    9  C   UNL     1     -10.090   7.697  71.915  1.00  0.00    -0.218 A  
HETATM   10  C   UNL     1      -9.016   8.323  71.257  1.00  0.00    -0.200 A  
HETATM   11  C   UNL     1      -9.213   9.434  70.436  1.00  0.00    -0.305 A  
HETATM   12  C   UNL     1     -10.486   9.964  70.258  1.00  0.00    -0.291 A  
HETATM   13  C   UNL     1     -11.370   8.260  71.725  1.00  0.00    -0.350 A  
HETATM   14  C   UNL     1     -11.566   9.382  70.913  1.00  0.00    -0.380 A  
BRANCH  12  15
HETATM   15  O   UNL     1     -10.536  11.069  69.453  1.00  0.00    -0.223 OA 
BRANCH  15  16
HETATM   16  C   UNL     1     -11.477  11.025  68.389  1.00  0.00    -0.308 C  
BRANCH  16  17
HETATM   17  C   UNL     1     -11.031  12.027  67.322  1.00  0.00    -0.262 C  
BRANCH  17  18
HETATM   18  O   UNL     1     -11.918  13.131  67.105  1.00  0.00    -0.371 OA 
BRANCH  18  19
HETATM   19  C   UNL     1     -11.333  14.426  67.023  1.00  0.00    -0.346 C  
BRANCH  19  20
HETATM   20  C   UNL     1     -11.798  15.332  68.172  1.00  0.00    -0.195 C  
BRANCH  20  21
HETATM   21  N   UNL     1     -10.677  15.984  68.996  1.00  0.00    -0.254 N  
HETATM   22  C   UNL     1      -9.573  14.930  69.151  1.00  0.00    -0.172 C  
HETATM   23  C   UNL     1     -10.091  17.173  68.244  1.00  0.00    -0.314 C  
BRANCH  21  24
HETATM   24  C   UNL     1     -11.208  16.398  70.394  1.00  0.00    -0.238 C  
BRANCH  24  25
HETATM   25  C   UNL     1     -11.980  15.336  71.129  1.00  0.00    -0.400 A  
HETATM   26  C   UNL     1     -11.841  13.987  70.764  1.00  0.00    -0.289 A  
HETATM   27  C   UNL     1     -12.661  13.015  71.331  1.00  0.00    -0.375 A  
HETATM   28  C   UNL     1     -13.613  13.375  72.282  1.00  0.00    -0.703 A  
HETATM   29  C   UNL     1     -13.721  14.700  72.697  1.00  0.00    -0.545 A  
HETATM   30  C   UNL     1     -12.899  15.676  72.134  1.00  0.00    -0.517 A  
ENDBRANCH  24  25
ENDBRANCH  21  24
ENDBRANCH  20  21
ENDBRANCH  19  20
ENDBRANCH  18  19
ENDBRANCH  17  18
ENDBRANCH  16  17
ENDBRANCH  15  16
ENDBRANCH  12  15
ENDBRANCH   6   9
ENDBRANCH   5   6
ENDBRANCH   2   5
TORSDOF 12
ENDMDL
MODEL      145
REMARK 921   NORMALIZED FREE ENERGY PREDICTED BY IDOCK:   -4.40 KCAL/MOL
REMARK 922        TOTAL FREE ENERGY PREDICTED BY IDOCK:   -8.75 KCAL/MOL
REMARK 923 INTER-LIGAND FREE ENERGY PREDICTED BY IDOCK:   -7.99 KCAL/MOL
REMARK 924 INTRA-LIGAND FREE ENERGY PREDICTED BY IDOCK:   -0.76 KCAL/MOL
REMARK 927      BINDING AFFINITY PREDICTED BY RF-SCORE:    0.00 PKD
ROOT
HETATM    1  C   UNL     1     -10.730  19.250  66.678  1.00  0.00    -0.504 C  
HETATM    2  C   UNL     1      -9.662  19.562  67.734  1.00  0.00    -0.458 C  
HETATM    3  C   UNL     1      -8.674  20.602  67.188  1.00  0.00    -0.313 C  
HETATM    4  C   UNL     1     -10.402  20.232  68.923  1.00  0.00    -0.112 C  
ENDROOT
BRANCH   2   5
HETATM    5  C   UNL     1      -8.954  18.283  68.290  1.00  0.00    -0.318 C  
BRANCH   5   6
HETATM    6  C   UNL     1      -8.363  17.125  67.398  1.00  0.00    -0.203 C  
HETATM    7  C   UNL     1      -7.370  16.223  68.165  1.00  0.00    -0.144 C  
HETATM    8  C   UNL     1      -7.611  17.665  66.164  1.00  0.00    -0.315 C  
BRANCH   6   9
HETATM    9  C   UNL     1      -9.557  16.228  66.971  1.00  0.00    -0.240 A  
HETATM   10  C   UNL     1      -9.809  15.867  65.636  1.00  0.00    -0.337 A  
HETATM   11  C   UNL     1     -10.891  15.054  65.293  1.00  0.00    -0.399 A  
HETATM   12  C   UNL     1     -11.763  14.590  66.270  1.00  0.00    -0.358 A  
HETATM   13  C   UNL     1     -10.462  15.752  67.943  1.00  0.00    -0.270 A  
HETATM   14  C   UNL     1     -11.555  14.949  67.598  1.00  0.00    -0.357 A  
BRANCH  12  15
HETATM   15  O   UNL     1     -12.796  13.827  65.798  1.00  0.00    -0.482 OA 
BRANCH  15  16
HETATM   16  C   UNL     1     -12.433  12.633  65.119  1.00  0.00    -0.463 C  
BRANCH  16  17
HETATM   17  C   UNL     1     -11.534  11.815  66.050  1.00  0.00    -0.215 C  
BRANCH  17  18
HETATM   18  O   UNL     1     -12.046  11.605  67.371  1.00  0.00    -0.605 OA 
BRANCH  18  19
HETATM   19  C   UNL     1     -11.143  11.083  68.341  1.00  0.00    -0.251 C  
BRANCH  19  20
HETATM   20  C   UNL     1     -10.969   9.565  68.195  1.00  0.00    -0.089 C  
BRANCH  20  21
HETATM   21  N   UNL     1     -10.058   8.900  69.237  1.00  0.00    -0.197 N  
HETATM   22  C   UNL     1     -10.249   9.674  70.547  1.00  0.00    -0.287 C  
HETATM   23  C   UNL     1     -10.490   7.457  69.474  1.00  0.00    -0.232 C  
BRANCH  21  24
HETATM   24  C   UNL     1      -8.575   8.984  68.788  1.00  0.00    -0.132 C  
BRANCH  24  25
HETATM   25  C   UNL     1      -8.345   8.882  67.304  1.00  0.00    -0.104 A  
HETATM   26  C   UNL     1      -8.199   7.622  66.702  1.00  0.00    -0.124 A  
HETATM   27  C   UNL     1      -7.835   7.521  65.361  1.00  0.00    -0.117 A  
HETATM   28  C   UNL     1      -7.635   8.672  64.605  1.00  0.00    -0.111 A  
HETATM   29  C   UNL     1      -7.835   9.927  65.174  1.00  0.00    -0.133 A  
HETATM   30  C   UNL     1      -8.202  10.034  66.515  1.00  0.00    -0.119 A  
ENDBRANCH  24  25
ENDBRANCH  21  24
ENDBRANCH  20  21
ENDBRANCH  19  20
ENDBRANCH  18  19
ENDBRANCH  17  18
ENDBRANCH  16  17
ENDBRANCH  15  16
ENDBRANCH  12  15
ENDBRANCH   6   9
ENDBRANCH   5   6
ENDBRANCH   2   5
TORSDOF 12
ENDMDL
MODEL      146
REMARK 921   NORMALIZED FREE ENERGY PREDICTED BY IDOCK:   -4.39 KCAL/MOL
REMARK 922        TOTAL FREE ENERGY PREDICTED BY IDOCK:   -8.75 KCAL/MOL
REMARK 923 INTER-LIGAND FREE ENERGY PREDICTED BY IDOCK:   -6.93 KCAL/MOL
REMARK 924 INTRA-LIGAND FREE ENERGY PREDICTED BY IDOCK:   -1.82 KCAL/MOL
REMARK 927      BINDING AFFINITY PREDICTED BY RF-SCORE:    0.00 PKD
ROOT
HETATM    1  C   UNL     1      -9.109   1.995  64.566  1.00  0.00    -0.123 C  
HETATM    2  C   UNL     1      -9.247   3.369  63.897  1.00  0.00    -0.118 C  
HETATM    3  C   UNL     1      -8.102   3.581  62.898  1.00  0.00    -0.072 C  
HETATM    4  C   UNL     1     -10.559   3.326  63.069  1.00  0.00    -0.214 C  
ENDROOT
BRANCH   2   5
HETATM    5  C   UNL     1      -9.384   4.541  64.924  1.00  0.00    -0.150 C  
BRANCH   5   6
HETATM    6  C   UNL     1      -8.252   4.998  65.922  1.00  0.00    -0.114 C  
HETATM    7  C   UNL     1      -7.168   5.866  65.245  1.00  0.00    -0.073 C  
HETATM    8  C   UNL     1      -7.524   3.800  66.566  1.00  0.00    -0.080 C  
BRANCH   6   9
HETATM    9  C   UNL     1      -8.933   5.880  67.004  1.00  0.00    -0.116 A  
HETATM   10  C   UNL     1     -10.322   5.896  67.222  1.00  0.00    -0.279 A  
HETATM   11  C   UNL     1     -10.895   6.699  68.209  1.00  0.00    -0.322 A  
HETATM   12  C   UNL     1     -10.102   7.524  68.997  1.00  0.00    -0.192 A  
HETATM   13  C   UNL     1      -8.151   6.733  67.811  1.00  0.00    -0.113 A  
HETATM   14  C   UNL     1      -8.727   7.549  68.791  1.00  0.00    -0.128 A  
BRANCH  12  15
HETATM   15  O   UNL     1     -10.791   8.280  69.906  1.00  0.00    -0.247 OA 
BRANCH  15  16
HETATM   16  C   UNL     1     -10.238   9.554  70.206  1.00  0.00    -0.260 C  
BRANCH  16  17
HETATM   17  C   UNL     1     -11.338  10.602  70.022  1.00  0.00    -0.324 C  
BRANCH  17  18
HETATM   18  O   UNL     1     -11.686  10.898  68.664  1.00  0.00    -0.331 OA 
BRANCH  18  19
HETATM   19  C   UNL     1     -11.909  12.265  68.334  1.00  0.00    -0.304 C  
BRANCH  19  20
HETATM   20  C   UNL     1     -10.785  12.827  67.454  1.00  0.00    -0.230 C  
BRANCH  20  21
HETATM   21  N   UNL     1     -11.181  13.164  66.009  1.00  0.00    -0.288 N  
HETATM   22  C   UNL     1     -12.372  14.128  66.091  1.00  0.00    -0.436 C  
HETATM   23  C   UNL     1     -10.040  13.885  65.301  1.00  0.00    -0.303 C  
BRANCH  21  24
HETATM   24  C   UNL     1     -11.600  11.876  65.251  1.00  0.00    -0.216 C  
BRANCH  24  25
HETATM   25  C   UNL     1     -10.464  11.003  64.791  1.00  0.00    -0.384 A  
HETATM   26  C   UNL     1     -10.044  11.045  63.452  1.00  0.00    -0.424 A  
HETATM   27  C   UNL     1      -9.099  10.135  62.981  1.00  0.00    -0.296 A  
HETATM   28  C   UNL     1      -8.552   9.190  63.844  1.00  0.00    -0.188 A  
HETATM   29  C   UNL     1      -8.916   9.176  65.189  1.00  0.00    -0.238 A  
HETATM   30  C   UNL     1      -9.857  10.088  65.665  1.00  0.00    -0.363 A  
ENDBRANCH  24  25
ENDBRANCH  21  24
ENDBRANCH  20  21
ENDBRANCH  19  20
ENDBRANCH  18  19
ENDBRANCH  17  18
ENDBRANCH  16  17
ENDBRANCH  15  16
ENDBRANCH  12  15
ENDBRANCH   6   9
ENDBRANCH   5   6
ENDBRANCH   2   5
TORSDOF 12
ENDMDL
MODEL      147
REMARK 921   NORMALIZED FREE ENERGY PREDICTED BY IDOCK:   -4.39 KCAL/MOL
REMARK 922        TOTAL FREE ENERGY PREDICTED BY IDOCK:   -8.74 KCAL/MOL
REMARK 923 INTER-LIGAND FREE ENERGY PREDICTED BY IDOCK:   -8.34 KCAL/MOL
REMARK 924 INTRA-LIGAND FREE ENERGY PREDICTED BY IDOCK:   -0.41 KCAL/MOL
REMARK 927      BINDING AFFINITY PREDICTED BY RF-SCORE:    0.00 PKD
ROOT
HETATM    1  C   UNL     1      -8.437  20.382  66.773  1.00  0.00    -0.275 C  
HETATM    2  C   UNL     1      -9.677  19.478  66.812  1.00  0.00    -0.464 C  
HETATM    3  C   UNL     1     -10.364  19.591  68.179  1.00  0.00    -0.550 C  
HETATM    4  C   UNL     1     -10.671  20.050  65.765  1.00  0.00    -0.357 C  
ENDROOT
BRANCH   2   5
HETATM    5  C   UNL     1      -9.372  18.000  66.404  1.00  0.00    -0.267 C  
BRANCH   5   6
HETATM    6  C   UNL     1      -8.218  17.118  67.019  1.00  0.00    -0.234 C  
HETATM    7  C   UNL     1      -7.997  17.384  68.525  1.00  0.00    -0.266 C  
HETATM    8  C   UNL     1      -6.864  17.359  66.322  1.00  0.00    -0.307 C  
BRANCH   6   9
HETATM    9  C   UNL     1      -8.658  15.635  66.878  1.00  0.00    -0.281 A  
HETATM   10  C   UNL     1      -9.697  15.219  66.027  1.00  0.00    -0.367 A  
HETATM   11  C   UNL     1     -10.060  13.875  65.924  1.00  0.00    -0.331 A  
HETATM   12  C   UNL     1      -9.408  12.908  66.679  1.00  0.00    -0.240 A  
HETATM   13  C   UNL     1      -8.019  14.635  67.641  1.00  0.00    -0.193 A  
HETATM   14  C   UNL     1      -8.392  13.290  67.548  1.00  0.00    -0.186 A  
BRANCH  12  15
HETATM   15  O   UNL     1      -9.879  11.635  66.505  1.00  0.00    -0.197 OA 
BRANCH  15  16
HETATM   16  C   UNL     1     -10.251  11.281  65.181  1.00  0.00    -0.289 C  
BRANCH  16  17
HETATM   17  C   UNL     1      -9.689   9.887  64.888  1.00  0.00    -0.262 C  
BRANCH  17  18
HETATM   18  O   UNL     1      -8.911   9.304  65.941  1.00  0.00    -0.147 OA 
BRANCH  18  19
HETATM   19  C   UNL     1      -9.442   8.144  66.573  1.00  0.00    -0.221 C  
BRANCH  19  20
HETATM   20  C   UNL     1     -10.488   8.506  67.636  1.00  0.00    -0.241 C  
BRANCH  20  21
HETATM   21  N   UNL     1     -10.256   7.897  69.027  1.00  0.00    -0.206 N  
HETATM   22  C   UNL     1      -8.780   7.484  69.087  1.00  0.00    -0.136 C  
HETATM   23  C   UNL     1     -10.497   8.942  70.110  1.00  0.00    -0.214 C  
BRANCH  21  24
HETATM   24  C   UNL     1     -11.159   6.650  69.226  1.00  0.00    -0.289 C  
BRANCH  24  25
HETATM   25  C   UNL     1     -10.969   5.920  70.529  1.00  0.00    -0.362 A  
HETATM   26  C   UNL     1     -11.550   6.420  71.705  1.00  0.00    -0.363 A  
HETATM   27  C   UNL     1     -11.255   5.841  72.937  1.00  0.00    -0.319 A  
HETATM   28  C   UNL     1     -10.397   4.747  73.005  1.00  0.00    -0.235 A  
HETATM   29  C   UNL     1      -9.861   4.204  71.840  1.00  0.00    -0.251 A  
HETATM   30  C   UNL     1     -10.156   4.779  70.603  1.00  0.00    -0.288 A  
ENDBRANCH  24  25
ENDBRANCH  21  24
ENDBRANCH  20  21
ENDBRANCH  19  20
ENDBRANCH  18  19
ENDBRANCH  17  18
ENDBRANCH  16  17
ENDBRANCH  15  16
ENDBRANCH  12  15
ENDBRANCH   6   9
ENDBRANCH   5   6
ENDBRANCH   2   5
TORSDOF 12
ENDMDL
MODEL      148
REMARK 921   NORMALIZED FREE ENERGY PREDICTED BY IDOCK:   -4.38 KCAL/MOL
REMARK 922        TOTAL FREE ENERGY PREDICTED BY IDOCK:   -8.71 KCAL/MOL
REMARK 923 INTER-LIGAND FREE ENERGY PREDICTED BY IDOCK:   -8.16 KCAL/MOL
REMARK 924 INTRA-LIGAND FREE ENERGY PREDICTED BY IDOCK:   -0.55 KCAL/MOL
REMARK 927      BINDING AFFINITY PREDICTED BY RF-SCORE:    0.00 PKD
ROOT
HETATM    1  C   UNL     1      -7.533   8.365  66.171  1.00  0.00    -0.088 C  
HETATM    2  C   UNL     1      -7.262   9.803  65.709  1.00  0.00    -0.104 C  
HETATM    3  C   UNL     1      -5.832  10.212  66.088  1.00  0.00    -0.067 C  
HETATM    4  C   UNL     1      -7.324   9.785  64.158  1.00  0.00    -0.128 C  
ENDROOT
BRANCH   2   5
HETATM    5  C   UNL     1      -8.339  10.822  66.205  1.00  0.00    -0.160 C  
BRANCH   5   6
HETATM    6  C   UNL     1      -9.892  10.666  65.984  1.00  0.00    -0.280 C  
HETATM    7  C   UNL     1     -10.401   9.238  66.279  1.00  0.00    -0.192 C  
HETATM    8  C   UNL     1     -10.311  10.998  64.537  1.00  0.00    -0.420 C  
BRANCH   6   9
HETATM    9  C   UNL     1     -10.590  11.617  66.995  1.00  0.00    -0.272 A  
HETATM   10  C   UNL     1     -10.681  11.343  68.371  1.00  0.00    -0.237 A  
HETATM   11  C   UNL     1     -11.312  12.226  69.249  1.00  0.00    -0.317 A  
HETATM   12  C   UNL     1     -11.887  13.400  68.778  1.00  0.00    -0.351 A  
HETATM   13  C   UNL     1     -11.189  12.811  66.541  1.00  0.00    -0.349 A  
HETATM   14  C   UNL     1     -11.835  13.689  67.418  1.00  0.00    -0.429 A  
BRANCH  12  15
HETATM   15  O   UNL     1     -12.498  14.161  69.737  1.00  0.00    -0.332 OA 
BRANCH  15  16
HETATM   16  C   UNL     1     -12.201  15.550  69.716  1.00  0.00    -0.302 C  
BRANCH  16  17
HETATM   17  C   UNL     1     -10.729  15.725  70.098  1.00  0.00    -0.344 C  
BRANCH  17  18
HETATM   18  O   UNL     1      -9.938  16.477  69.169  1.00  0.00    -0.262 OA 
BRANCH  18  19
HETATM   19  C   UNL     1     -10.631  17.153  68.125  1.00  0.00    -0.380 C  
BRANCH  19  20
HETATM   20  C   UNL     1      -9.662  17.748  67.094  1.00  0.00    -0.288 C  
BRANCH  20  21
HETATM   21  N   UNL     1      -9.610  19.282  67.043  1.00  0.00    -0.313 N  
HETATM   22  C   UNL     1     -10.462  19.712  65.842  1.00  0.00    -0.493 C  
HETATM   23  C   UNL     1     -10.233  19.876  68.300  1.00  0.00    -0.434 C  
BRANCH  21  24
HETATM   24  C   UNL     1      -8.147  19.765  66.848  1.00  0.00    -0.297 C  
BRANCH  24  25
HETATM   25  C   UNL     1      -7.093  18.887  67.465  1.00  0.00    -0.219 A  
HETATM   26  C   UNL     1      -6.354  18.006  66.660  1.00  0.00    -0.228 A  
HETATM   27  C   UNL     1      -5.485  17.083  67.239  1.00  0.00    -0.174 A  
HETATM   28  C   UNL     1      -5.331  17.044  68.622  1.00  0.00    -0.132 A  
HETATM   29  C   UNL     1      -6.014  17.952  69.428  1.00  0.00    -0.237 A  
HETATM   30  C   UNL     1      -6.881  18.881  68.853  1.00  0.00    -0.329 A  
ENDBRANCH  24  25
ENDBRANCH  21  24
ENDBRANCH  20  21
ENDBRANCH  19  20
ENDBRANCH  18  19
ENDBRANCH  17  18
ENDBRANCH  16  17
ENDBRANCH  15  16
ENDBRANCH  12  15
ENDBRANCH   6   9
ENDBRANCH   5   6
ENDBRANCH   2   5
TORSDOF 12
ENDMDL
MODEL      149
REMARK 921   NORMALIZED FREE ENERGY PREDICTED BY IDOCK:   -4.38 KCAL/MOL
REMARK 922        TOTAL FREE ENERGY PREDICTED BY IDOCK:   -8.71 KCAL/MOL
REMARK 923 INTER-LIGAND FREE ENERGY PREDICTED BY IDOCK:   -7.03 KCAL/MOL
REMARK 924 INTRA-LIGAND FREE ENERGY PREDICTED BY IDOCK:   -1.69 KCAL/MOL
REMARK 927      BINDING AFFINITY PREDICTED BY RF-SCORE:    0.00 PKD
ROOT
HETATM    1  C   UNL     1     -11.202   9.336  70.936  1.00  0.00    -0.372 C  
HETATM    2  C   UNL     1      -9.764   8.962  70.553  1.00  0.00    -0.244 C  
HETATM    3  C   UNL     1      -9.027  10.198  70.020  1.00  0.00    -0.015 C  
HETATM    4  C   UNL     1      -9.050   8.551  71.869  1.00  0.00    -0.314 C  
ENDROOT
BRANCH   2   5
HETATM    5  C   UNL     1      -9.685   7.740  69.581  1.00  0.00    -0.172 C  
BRANCH   5   6
HETATM    6  C   UNL     1      -8.521   7.488  68.548  1.00  0.00    -0.129 C  
HETATM    7  C   UNL     1      -8.431   6.014  68.092  1.00  0.00    -0.115 C  
HETATM    8  C   UNL     1      -7.139   7.861  69.123  1.00  0.00    -0.069 C  
BRANCH   6   9
HETATM    9  C   UNL     1      -8.844   8.336  67.287  1.00  0.00    -0.137 A  
HETATM   10  C   UNL     1     -10.120   8.866  67.023  1.00  0.00    -0.331 A  
HETATM   11  C   UNL     1     -10.369   9.629  65.881  1.00  0.00    -0.103 A  
HETATM   12  C   UNL     1      -9.357   9.872  64.959  1.00  0.00    -0.264 A  
HETATM   13  C   UNL     1      -7.837   8.590  66.332  1.00  0.00    -0.099 A  
HETATM   14  C   UNL     1      -8.090   9.342  65.179  1.00  0.00    -0.124 A  
BRANCH  12  15
HETATM   15  O   UNL     1      -9.741  10.607  63.871  1.00  0.00    -0.270 OA 
BRANCH  15  16
HETATM   16  C   UNL     1     -10.264  11.900  64.143  1.00  0.00    -0.330 C  
BRANCH  16  17
HETATM   17  C   UNL     1     -11.602  12.032  63.412  1.00  0.00    -0.403 C  
BRANCH  17  18
HETATM   18  O   UNL     1     -12.556  12.907  64.026  1.00  0.00    -0.625 OA 
BRANCH  18  19
HETATM   19  C   UNL     1     -12.044  14.041  64.718  1.00  0.00    -0.437 C  
BRANCH  19  20
HETATM   20  C   UNL     1     -12.163  13.878  66.240  1.00  0.00    -0.461 C  
BRANCH  20  21
HETATM   21  N   UNL     1     -10.974  14.402  67.057  1.00  0.00    -0.298 N  
HETATM   22  C   UNL     1      -9.974  14.990  66.054  1.00  0.00    -0.310 C  
HETATM   23  C   UNL     1     -11.423  15.524  67.987  1.00  0.00    -0.308 C  
BRANCH  21  24
HETATM   24  C   UNL     1     -10.307  13.242  67.844  1.00  0.00    -0.238 C  
BRANCH  24  25
HETATM   25  C   UNL     1      -8.803  13.222  67.808  1.00  0.00    -0.197 A  
HETATM   26  C   UNL     1      -8.131  12.205  67.111  1.00  0.00    -0.175 A  
HETATM   27  C   UNL     1      -6.745  12.089  67.197  1.00  0.00    -0.136 A  
HETATM   28  C   UNL     1      -6.016  12.996  67.961  1.00  0.00    -0.112 A  
HETATM   29  C   UNL     1      -6.665  14.045  68.609  1.00  0.00    -0.096 A  
HETATM   30  C   UNL     1      -8.051  14.168  68.522  1.00  0.00    -0.143 A  
ENDBRANCH  24  25
ENDBRANCH  21  24
ENDBRANCH  20  21
ENDBRANCH  19  20
ENDBRANCH  18  19
ENDBRANCH  17  18
ENDBRANCH  16  17
ENDBRANCH  15  16
ENDBRANCH  12  15
ENDBRANCH   6   9
ENDBRANCH   5   6
ENDBRANCH   2   5
TORSDOF 12
ENDMDL
MODEL      150
REMARK 921   NORMALIZED FREE ENERGY PREDICTED BY IDOCK:   -4.35 KCAL/MOL
REMARK 922        TOTAL FREE ENERGY PREDICTED BY IDOCK:   -8.67 KCAL/MOL
REMARK 923 INTER-LIGAND FREE ENERGY PREDICTED BY IDOCK:   -7.25 KCAL/MOL
REMARK 924 INTRA-LIGAND FREE ENERGY PREDICTED BY IDOCK:   -1.42 KCAL/MOL
REMARK 927      BINDING AFFINITY PREDICTED BY RF-SCORE:    0.00 PKD
ROOT
HETATM    1  C   UNL     1     -11.567  11.217  67.854  1.00  0.00    -0.330 C  
HETATM    2  C   UNL     1     -11.054  12.265  66.858  1.00  0.00    -0.341 C  
HETATM    3  C   UNL     1     -12.003  12.350  65.654  1.00  0.00    -0.449 C  
HETATM    4  C   UNL     1     -11.131  13.636  67.583  1.00  0.00    -0.293 C  
ENDROOT
BRANCH   2   5
HETATM    5  C   UNL     1      -9.563  12.042  66.443  1.00  0.00    -0.239 C  
BRANCH   5   6
HETATM    6  C   UNL     1      -8.502  11.253  67.302  1.00  0.00    -0.144 C  
HETATM    7  C   UNL     1      -8.705  11.434  68.823  1.00  0.00    -0.080 C  
HETATM    8  C   UNL     1      -7.056  11.694  66.991  1.00  0.00    -0.145 C  
BRANCH   6   9
HETATM    9  C   UNL     1      -8.700   9.744  66.992  1.00  0.00    -0.141 A  
HETATM   10  C   UNL     1      -8.913   8.775  67.989  1.00  0.00    -0.141 A  
HETATM   11  C   UNL     1      -9.092   7.429  67.669  1.00  0.00    -0.126 A  
HETATM   12  C   UNL     1      -9.049   7.005  66.346  1.00  0.00    -0.160 A  
HETATM   13  C   UNL     1      -8.651   9.287  65.658  1.00  0.00    -0.172 A  
HETATM   14  C   UNL     1      -8.817   7.935  65.338  1.00  0.00    -0.020 A  
BRANCH  12  15
HETATM   15  O   UNL     1      -9.211   5.658  66.173  1.00  0.00    -0.155 OA 
BRANCH  15  16
HETATM   16  C   UNL     1     -10.117   5.017  67.060  1.00  0.00    -0.214 C  
BRANCH  16  17
HETATM   17  C   UNL     1      -9.528   3.655  67.435  1.00  0.00    -0.195 C  
BRANCH  17  18
HETATM   18  O   UNL     1      -9.599   3.315  68.825  1.00  0.00    -0.160 OA 
BRANCH  18  19
HETATM   19  C   UNL     1      -8.981   4.210  69.744  1.00  0.00    -0.096 C  
BRANCH  19  20
HETATM   20  C   UNL     1      -9.749   4.281  71.071  1.00  0.00    -0.190 C  
BRANCH  20  21
HETATM   21  N   UNL     1     -10.206   5.684  71.496  1.00  0.00    -0.201 N  
HETATM   22  C   UNL     1     -10.932   5.524  72.838  1.00  0.00    -0.285 C  
HETATM   23  C   UNL     1      -9.000   6.590  71.718  1.00  0.00    -0.138 C  
BRANCH  21  24
HETATM   24  C   UNL     1     -11.178   6.278  70.441  1.00  0.00    -0.373 C  
BRANCH  24  25
HETATM   25  C   UNL     1     -12.023   7.427  70.921  1.00  0.00    -0.308 A  
HETATM   26  C   UNL     1     -11.497   8.728  70.934  1.00  0.00    -0.330 A  
HETATM   27  C   UNL     1     -12.213   9.772  71.515  1.00  0.00    -0.493 A  
HETATM   28  C   UNL     1     -13.467   9.532  72.070  1.00  0.00    -0.522 A  
HETATM   29  C   UNL     1     -14.026   8.258  72.011  1.00  0.00    -0.432 A  
HETATM   30  C   UNL     1     -13.315   7.211  71.426  1.00  0.00    -0.380 A  
ENDBRANCH  24  25
ENDBRANCH  21  24
ENDBRANCH  20  21
ENDBRANCH  19  20
ENDBRANCH  18  19
ENDBRANCH  17  18
ENDBRANCH  16  17
ENDBRANCH  15  16
ENDBRANCH  12  15
ENDBRANCH   6   9
ENDBRANCH   5   6
ENDBRANCH   2   5
TORSDOF 12
ENDMDL
MODEL      151
REMARK 921   NORMALIZED FREE ENERGY PREDICTED BY IDOCK:   -4.34 KCAL/MOL
REMARK 922        TOTAL FREE ENERGY PREDICTED BY IDOCK:   -8.64 KCAL/MOL
REMARK 923 INTER-LIGAND FREE ENERGY PREDICTED BY IDOCK:   -7.42 KCAL/MOL
REMARK 924 INTRA-LIGAND FREE ENERGY PREDICTED BY IDOCK:   -1.23 KCAL/MOL
REMARK 927      BINDING AFFINITY PREDICTED BY RF-SCORE:    0.00 PKD
ROOT
HETATM    1  C   UNL     1     -10.596   7.015  67.023  1.00  0.00    -0.412 C  
HETATM    2  C   UNL     1      -9.850   5.674  67.041  1.00  0.00    -0.172 C  
HETATM    3  C   UNL     1     -10.520   4.691  66.071  1.00  0.00    -0.303 C  
HETATM    4  C   UNL     1      -8.429   5.953  66.481  1.00  0.00    -0.113 C  
ENDROOT
BRANCH   2   5
HETATM    5  C   UNL     1      -9.676   5.087  68.479  1.00  0.00    -0.215 C  
BRANCH   5   6
HETATM    6  C   UNL     1     -10.171   5.788  69.802  1.00  0.00    -0.303 C  
HETATM    7  C   UNL     1     -10.066   4.873  71.043  1.00  0.00    -0.288 C  
HETATM    8  C   UNL     1     -11.643   6.241  69.707  1.00  0.00    -0.330 C  
BRANCH   6   9
HETATM    9  C   UNL     1      -9.233   7.001  70.049  1.00  0.00    -0.148 A  
HETATM   10  C   UNL     1      -7.830   6.898  70.065  1.00  0.00    -0.110 A  
HETATM   11  C   UNL     1      -7.021   8.013  70.285  1.00  0.00    -0.044 A  
HETATM   12  C   UNL     1      -7.586   9.262  70.513  1.00  0.00    -0.139 A  
HETATM   13  C   UNL     1      -9.781   8.278  70.292  1.00  0.00    -0.177 A  
HETATM   14  C   UNL     1      -8.970   9.394  70.528  1.00  0.00    -0.303 A  
BRANCH  12  15
HETATM   15  O   UNL     1      -6.683  10.264  70.743  1.00  0.00    -0.322 OA 
BRANCH  15  16
HETATM   16  C   UNL     1      -6.098  10.856  69.592  1.00  0.00    -0.075 C  
BRANCH  16  17
HETATM   17  C   UNL     1      -6.072  12.372  69.801  1.00  0.00    -0.137 C  
BRANCH  17  18
HETATM   18  O   UNL     1      -6.931  13.128  68.939  1.00  0.00    -0.101 OA 
BRANCH  18  19
HETATM   19  C   UNL     1      -7.751  12.394  68.036  1.00  0.00    -0.135 C  
BRANCH  19  20
HETATM   20  C   UNL     1      -9.138  13.034  67.881  1.00  0.00    -0.207 C  
BRANCH  20  21
HETATM   21  N   UNL     1      -9.873  12.711  66.572  1.00  0.00    -0.250 N  
HETATM   22  C   UNL     1      -9.992  14.029  65.796  1.00  0.00    -0.298 C  
HETATM   23  C   UNL     1      -9.054  11.741  65.729  1.00  0.00    -0.083 C  
BRANCH  21  24
HETATM   24  C   UNL     1     -11.289  12.149  66.873  1.00  0.00    -0.343 C  
BRANCH  24  25
HETATM   25  C   UNL     1     -11.774  12.353  68.283  1.00  0.00    -0.398 A  
HETATM   26  C   UNL     1     -11.982  13.652  68.773  1.00  0.00    -0.394 A  
HETATM   27  C   UNL     1     -12.283  13.858  70.118  1.00  0.00    -0.425 A  
HETATM   28  C   UNL     1     -12.399  12.771  70.980  1.00  0.00    -0.316 A  
HETATM   29  C   UNL     1     -12.254  11.473  70.494  1.00  0.00    -0.469 A  
HETATM   30  C   UNL     1     -11.957  11.262  69.148  1.00  0.00    -0.405 A  
ENDBRANCH  24  25
ENDBRANCH  21  24
ENDBRANCH  20  21
ENDBRANCH  19  20
ENDBRANCH  18  19
ENDBRANCH  17  18
ENDBRANCH  16  17
ENDBRANCH  15  16
ENDBRANCH  12  15
ENDBRANCH   6   9
ENDBRANCH   5   6
ENDBRANCH   2   5
TORSDOF 12
ENDMDL
MODEL      152
REMARK 921   NORMALIZED FREE ENERGY PREDICTED BY IDOCK:   -4.33 KCAL/MOL
REMARK 922        TOTAL FREE ENERGY PREDICTED BY IDOCK:   -8.63 KCAL/MOL
REMARK 923 INTER-LIGAND FREE ENERGY PREDICTED BY IDOCK:   -8.14 KCAL/MOL
REMARK 924 INTRA-LIGAND FREE ENERGY PREDICTED BY IDOCK:   -0.49 KCAL/MOL
REMARK 927      BINDING AFFINITY PREDICTED BY RF-SCORE:    0.00 PKD
ROOT
HETATM    1  C   UNL     1      -9.417   9.084  65.412  1.00  0.00    -0.163 C  
HETATM    2  C   UNL     1      -8.836  10.276  64.640  1.00  0.00    -0.220 C  
HETATM    3  C   UNL     1      -7.330  10.074  64.423  1.00  0.00    -0.138 C  
HETATM    4  C   UNL     1      -9.496  10.256  63.235  1.00  0.00    -0.342 C  
ENDROOT
BRANCH   2   5
HETATM    5  C   UNL     1      -9.176  11.655  65.294  1.00  0.00    -0.039 C  
BRANCH   5   6
HETATM    6  C   UNL     1     -10.599  12.334  65.268  1.00  0.00    -0.322 C  
HETATM    7  C   UNL     1     -11.649  11.500  64.500  1.00  0.00    -0.149 C  
HETATM    8  C   UNL     1     -10.569  13.728  64.607  1.00  0.00    -0.443 C  
BRANCH   6   9
HETATM    9  C   UNL     1     -11.082  12.429  66.741  1.00  0.00    -0.333 A  
HETATM   10  C   UNL     1     -10.719  11.498  67.731  1.00  0.00    -0.249 A  
HETATM   11  C   UNL     1     -11.170  11.621  69.046  1.00  0.00    -0.323 A  
HETATM   12  C   UNL     1     -12.008  12.667  69.411  1.00  0.00    -0.260 A  
HETATM   13  C   UNL     1     -11.941  13.477  67.135  1.00  0.00    -0.426 A  
HETATM   14  C   UNL     1     -12.405  13.592  68.450  1.00  0.00     0.033 A  
BRANCH  12  15
HETATM   15  O   UNL     1     -12.400  12.655  70.722  1.00  0.00    -0.371 OA 
BRANCH  15  16
HETATM   16  C   UNL     1     -12.949  13.867  71.221  1.00  0.00    -0.341 C  
BRANCH  16  17
HETATM   17  C   UNL     1     -11.789  14.806  71.564  1.00  0.00    -0.331 C  
BRANCH  17  18
HETATM   18  O   UNL     1     -11.905  16.139  71.052  1.00  0.00    -0.408 OA 
BRANCH  18  19
HETATM   19  C   UNL     1     -10.932  16.554  70.099  1.00  0.00    -0.207 C  
BRANCH  19  20
HETATM   20  C   UNL     1      -9.838  15.495  69.907  1.00  0.00    -0.198 C  
BRANCH  20  21
HETATM   21  N   UNL     1      -8.952  15.676  68.666  1.00  0.00    -0.190 N  
HETATM   22  C   UNL     1      -7.809  16.615  69.073  1.00  0.00    -0.215 C  
HETATM   23  C   UNL     1      -8.341  14.342  68.252  1.00  0.00    -0.158 C  
BRANCH  21  24
HETATM   24  C   UNL     1      -9.768  16.313  67.509  1.00  0.00    -0.234 C  
BRANCH  24  25
HETATM   25  C   UNL     1      -9.374  17.718  67.143  1.00  0.00    -0.264 A  
HETATM   26  C   UNL     1      -8.232  17.945  66.358  1.00  0.00    -0.287 A  
HETATM   27  C   UNL     1      -7.772  19.242  66.141  1.00  0.00    -0.304 A  
HETATM   28  C   UNL     1      -8.458  20.324  66.686  1.00  0.00    -0.295 A  
HETATM   29  C   UNL     1      -9.626  20.117  67.416  1.00  0.00    -0.551 A  
HETATM   30  C   UNL     1     -10.092  18.820  67.633  1.00  0.00    -0.415 A  
ENDBRANCH  24  25
ENDBRANCH  21  24
ENDBRANCH  20  21
ENDBRANCH  19  20
ENDBRANCH  18  19
ENDBRANCH  17  18
ENDBRANCH  16  17
ENDBRANCH  15  16
ENDBRANCH  12  15
ENDBRANCH   6   9
ENDBRANCH   5   6
ENDBRANCH   2   5
TORSDOF 12
ENDMDL
MODEL      153
REMARK 921   NORMALIZED FREE ENERGY PREDICTED BY IDOCK:   -4.32 KCAL/MOL
REMARK 922        TOTAL FREE ENERGY PREDICTED BY IDOCK:   -8.62 KCAL/MOL
REMARK 923 INTER-LIGAND FREE ENERGY PREDICTED BY IDOCK:   -8.02 KCAL/MOL
REMARK 924 INTRA-LIGAND FREE ENERGY PREDICTED BY IDOCK:   -0.61 KCAL/MOL
REMARK 927      BINDING AFFINITY PREDICTED BY RF-SCORE:    0.00 PKD
ROOT
HETATM    1  C   UNL     1      -8.876   2.733  65.683  1.00  0.00    -0.133 C  
HETATM    2  C   UNL     1      -9.398   3.989  64.973  1.00  0.00    -0.163 C  
HETATM    3  C   UNL     1      -8.325   4.534  64.020  1.00  0.00    -0.116 C  
HETATM    4  C   UNL     1     -10.589   3.533  64.089  1.00  0.00    -0.207 C  
ENDROOT
BRANCH   2   5
HETATM    5  C   UNL     1      -9.941   5.072  65.962  1.00  0.00    -0.220 C  
BRANCH   5   6
HETATM    6  C   UNL     1      -9.043   6.102  66.748  1.00  0.00    -0.137 C  
HETATM    7  C   UNL     1      -8.735   7.377  65.930  1.00  0.00    -0.161 C  
HETATM    8  C   UNL     1      -7.684   5.499  67.157  1.00  0.00    -0.100 C  
BRANCH   6   9
HETATM    9  C   UNL     1      -9.851   6.546  67.998  1.00  0.00    -0.129 A  
HETATM   10  C   UNL     1     -10.491   5.640  68.862  1.00  0.00    -0.310 A  
HETATM   11  C   UNL     1     -11.204   6.078  69.979  1.00  0.00    -0.425 A  
HETATM   12  C   UNL     1     -11.315   7.435  70.258  1.00  0.00    -0.221 A  
HETATM   13  C   UNL     1      -9.986   7.918  68.298  1.00  0.00    -0.204 A  
HETATM   14  C   UNL     1     -10.713   8.359  69.410  1.00  0.00    -0.162 A  
BRANCH  12  15
HETATM   15  O   UNL     1     -12.064   7.730  71.364  1.00  0.00    -0.297 OA 
BRANCH  15  16
HETATM   16  C   UNL     1     -11.807   8.987  71.976  1.00  0.00    -0.356 C  
BRANCH  16  17
HETATM   17  C   UNL     1     -13.123   9.766  72.026  1.00  0.00    -0.452 C  
BRANCH  17  18
HETATM   18  O   UNL     1     -13.173  10.943  71.209  1.00  0.00    -0.333 OA 
BRANCH  18  19
HETATM   19  C   UNL     1     -13.202  12.198  71.881  1.00  0.00    -0.369 C  
BRANCH  19  20
HETATM   20  C   UNL     1     -12.496  13.292  71.070  1.00  0.00    -0.336 C  
BRANCH  20  21
HETATM   21  N   UNL     1     -12.792  14.735  71.505  1.00  0.00    -0.311 N  
HETATM   22  C   UNL     1     -14.273  14.781  71.901  1.00  0.00    -0.544 C  
HETATM   23  C   UNL     1     -11.965  15.098  72.733  1.00  0.00    -0.377 C  
BRANCH  21  24
HETATM   24  C   UNL     1     -12.532  15.717  70.332  1.00  0.00    -0.371 C  
BRANCH  24  25
HETATM   25  C   UNL     1     -11.464  15.289  69.361  1.00  0.00    -0.329 A  
HETATM   26  C   UNL     1     -11.823  14.753  68.114  1.00  0.00    -0.318 A  
HETATM   27  C   UNL     1     -10.852  14.215  67.273  1.00  0.00    -0.288 A  
HETATM   28  C   UNL     1      -9.514  14.225  67.658  1.00  0.00    -0.211 A  
HETATM   29  C   UNL     1      -9.137  14.808  68.866  1.00  0.00    -0.168 A  
HETATM   30  C   UNL     1     -10.106  15.352  69.709  1.00  0.00    -0.266 A  
ENDBRANCH  24  25
ENDBRANCH  21  24
ENDBRANCH  20  21
ENDBRANCH  19  20
ENDBRANCH  18  19
ENDBRANCH  17  18
ENDBRANCH  16  17
ENDBRANCH  15  16
ENDBRANCH  12  15
ENDBRANCH   6   9
ENDBRANCH   5   6
ENDBRANCH   2   5
TORSDOF 12
ENDMDL
MODEL      154
REMARK 921   NORMALIZED FREE ENERGY PREDICTED BY IDOCK:   -4.30 KCAL/MOL
REMARK 922        TOTAL FREE ENERGY PREDICTED BY IDOCK:   -8.58 KCAL/MOL
REMARK 923 INTER-LIGAND FREE ENERGY PREDICTED BY IDOCK:   -7.80 KCAL/MOL
REMARK 924 INTRA-LIGAND FREE ENERGY PREDICTED BY IDOCK:   -0.78 KCAL/MOL
REMARK 927      BINDING AFFINITY PREDICTED BY RF-SCORE:    0.00 PKD
ROOT
HETATM    1  C   UNL     1     -10.655   5.353  71.197  1.00  0.00    -0.276 C  
HETATM    2  C   UNL     1     -10.004   5.748  69.865  1.00  0.00    -0.254 C  
HETATM    3  C   UNL     1      -9.131   4.597  69.348  1.00  0.00    -0.159 C  
HETATM    4  C   UNL     1     -11.161   5.923  68.845  1.00  0.00    -0.254 C  
ENDROOT
BRANCH   2   5
HETATM    5  C   UNL     1      -9.237   7.109  69.936  1.00  0.00    -0.141 C  
BRANCH   5   6
HETATM    6  C   UNL     1      -9.708   8.363  70.767  1.00  0.00    -0.207 C  
HETATM    7  C   UNL     1      -8.905   8.554  72.073  1.00  0.00    -0.286 C  
HETATM    8  C   UNL     1     -11.195   8.273  71.169  1.00  0.00    -0.296 C  
BRANCH   6   9
HETATM    9  C   UNL     1      -9.447   9.615  69.884  1.00  0.00    -0.260 A  
HETATM   10  C   UNL     1      -8.158  10.090  69.586  1.00  0.00    -0.180 A  
HETATM   11  C   UNL     1      -7.965  11.216  68.784  1.00  0.00    -0.144 A  
HETATM   12  C   UNL     1      -9.052  11.911  68.268  1.00  0.00    -0.183 A  
HETATM   13  C   UNL     1     -10.534  10.343  69.357  1.00  0.00    -0.261 A  
HETATM   14  C   UNL     1     -10.341  11.480  68.564  1.00  0.00    -0.224 A  
BRANCH  12  15
HETATM   15  O   UNL     1      -8.725  13.011  67.523  1.00  0.00    -0.175 OA 
BRANCH  15  16
HETATM   16  C   UNL     1      -7.374  13.442  67.604  1.00  0.00    -0.168 C  
BRANCH  16  17
HETATM   17  C   UNL     1      -7.369  14.970  67.687  1.00  0.00    -0.188 C  
BRANCH  17  18
HETATM   18  O   UNL     1      -6.141  15.604  67.309  1.00  0.00    -0.310 OA 
BRANCH  18  19
HETATM   19  C   UNL     1      -6.197  16.992  66.996  1.00  0.00    -0.190 C  
BRANCH  19  20
HETATM   20  C   UNL     1      -7.469  17.346  66.215  1.00  0.00    -0.319 C  
BRANCH  20  21
HETATM   21  N   UNL     1      -8.205  18.609  66.686  1.00  0.00    -0.269 N  
HETATM   22  C   UNL     1      -7.910  18.759  68.184  1.00  0.00    -0.288 C  
HETATM   23  C   UNL     1      -7.657  19.839  65.973  1.00  0.00    -0.330 C  
BRANCH  21  24
HETATM   24  C   UNL     1      -9.734  18.456  66.466  1.00  0.00    -0.348 C  
BRANCH  24  25
HETATM   25  C   UNL     1     -10.269  17.058  66.625  1.00  0.00    -0.310 A  
HETATM   26  C   UNL     1     -10.385  16.219  65.506  1.00  0.00    -0.363 A  
HETATM   27  C   UNL     1     -11.019  14.983  65.614  1.00  0.00    -0.357 A  
HETATM   28  C   UNL     1     -11.523  14.564  66.842  1.00  0.00    -0.375 A  
HETATM   29  C   UNL     1     -11.362  15.361  67.973  1.00  0.00    -0.345 A  
HETATM   30  C   UNL     1     -10.725  16.597  67.870  1.00  0.00    -0.344 A  
ENDBRANCH  24  25
ENDBRANCH  21  24
ENDBRANCH  20  21
ENDBRANCH  19  20
ENDBRANCH  18  19
ENDBRANCH  17  18
ENDBRANCH  16  17
ENDBRANCH  15  16
ENDBRANCH  12  15
ENDBRANCH   6   9
ENDBRANCH   5   6
ENDBRANCH   2   5
TORSDOF 12
ENDMDL
MODEL      155
REMARK 921   NORMALIZED FREE ENERGY PREDICTED BY IDOCK:   -4.27 KCAL/MOL
REMARK 922        TOTAL FREE ENERGY PREDICTED BY IDOCK:   -8.53 KCAL/MOL
REMARK 923 INTER-LIGAND FREE ENERGY PREDICTED BY IDOCK:   -7.95 KCAL/MOL
REMARK 924 INTRA-LIGAND FREE ENERGY PREDICTED BY IDOCK:   -0.59 KCAL/MOL
REMARK 927      BINDING AFFINITY PREDICTED BY RF-SCORE:    0.00 PKD
ROOT
HETATM    1  C   UNL     1      -9.963   3.049  71.644  1.00  0.00    -0.158 C  
HETATM    2  C   UNL     1      -9.081   4.242  71.252  1.00  0.00    -0.181 C  
HETATM    3  C   UNL     1      -7.795   4.238  72.089  1.00  0.00    -0.082 C  
HETATM    4  C   UNL     1      -8.655   4.009  69.778  1.00  0.00    -0.098 C  
ENDROOT
BRANCH   2   5
HETATM    5  C   UNL     1      -9.838   5.610  71.306  1.00  0.00    -0.225 C  
BRANCH   5   6
HETATM    6  C   UNL     1      -9.639   6.702  72.426  1.00  0.00    -0.154 C  
HETATM    7  C   UNL     1      -8.221   7.316  72.421  1.00  0.00    -0.113 C  
HETATM    8  C   UNL     1      -9.875   6.137  73.841  1.00  0.00    -0.214 C  
BRANCH   6   9
HETATM    9  C   UNL     1     -10.635   7.853  72.115  1.00  0.00    -0.312 A  
HETATM   10  C   UNL     1     -11.920   7.933  72.682  1.00  0.00    -0.299 A  
HETATM   11  C   UNL     1     -12.784   8.987  72.382  1.00  0.00    -0.433 A  
HETATM   12  C   UNL     1     -12.399   9.985  71.495  1.00  0.00    -0.419 A  
HETATM   13  C   UNL     1     -10.272   8.874  71.212  1.00  0.00    -0.361 A  
HETATM   14  C   UNL     1     -11.144   9.923  70.899  1.00  0.00    -0.418 A  
BRANCH  12  15
HETATM   15  O   UNL     1     -13.349  10.943  71.266  1.00  0.00    -0.253 OA 
BRANCH  15  16
HETATM   16  C   UNL     1     -13.255  12.119  72.058  1.00  0.00    -0.391 C  
BRANCH  16  17
HETATM   17  C   UNL     1     -13.261  13.325  71.115  1.00  0.00    -0.070 C  
BRANCH  17  18
HETATM   18  O   UNL     1     -11.978  13.725  70.620  1.00  0.00    -0.316 OA 
BRANCH  18  19
HETATM   19  C   UNL     1     -11.597  13.235  69.338  1.00  0.00    -0.305 C  
BRANCH  19  20
HETATM   20  C   UNL     1     -10.291  13.879  68.850  1.00  0.00    -0.155 C  
BRANCH  20  21
HETATM   21  N   UNL     1     -10.277  14.313  67.377  1.00  0.00    -0.247 N  
HETATM   22  C   UNL     1     -10.474  15.835  67.364  1.00  0.00    -0.297 C  
HETATM   23  C   UNL     1      -8.923  14.008  66.748  1.00  0.00    -0.197 C  
BRANCH  21  24
HETATM   24  C   UNL     1     -11.434  13.628  66.602  1.00  0.00    -0.343 C  
BRANCH  24  25
HETATM   25  C   UNL     1     -11.060  12.366  65.873  1.00  0.00    -0.349 A  
HETATM   26  C   UNL     1     -10.677  11.225  66.595  1.00  0.00    -0.321 A  
HETATM   27  C   UNL     1     -10.184  10.104  65.931  1.00  0.00    -0.281 A  
HETATM   28  C   UNL     1     -10.088  10.103  64.542  1.00  0.00    -0.158 A  
HETATM   29  C   UNL     1     -10.520  11.206  63.810  1.00  0.00    -0.444 A  
HETATM   30  C   UNL     1     -11.018  12.329  64.470  1.00  0.00    -0.358 A  
ENDBRANCH  24  25
ENDBRANCH  21  24
ENDBRANCH  20  21
ENDBRANCH  19  20
ENDBRANCH  18  19
ENDBRANCH  17  18
ENDBRANCH  16  17
ENDBRANCH  15  16
ENDBRANCH  12  15
ENDBRANCH   6   9
ENDBRANCH   5   6
ENDBRANCH   2   5
TORSDOF 12
ENDMDL
MODEL      156
REMARK 921   NORMALIZED FREE ENERGY PREDICTED BY IDOCK:   -4.27 KCAL/MOL
REMARK 922        TOTAL FREE ENERGY PREDICTED BY IDOCK:   -8.53 KCAL/MOL
REMARK 923 INTER-LIGAND FREE ENERGY PREDICTED BY IDOCK:   -7.25 KCAL/MOL
REMARK 924 INTRA-LIGAND FREE ENERGY PREDICTED BY IDOCK:   -1.27 KCAL/MOL
REMARK 927      BINDING AFFINITY PREDICTED BY RF-SCORE:    0.00 PKD
ROOT
HETATM    1  C   UNL     1     -12.662  13.890  65.717  1.00  0.00    -0.503 C  
HETATM    2  C   UNL     1     -11.230  14.366  65.440  1.00  0.00    -0.335 C  
HETATM    3  C   UNL     1     -10.451  13.275  64.693  1.00  0.00    -0.420 C  
HETATM    4  C   UNL     1     -11.347  15.573  64.471  1.00  0.00    -0.322 C  
ENDROOT
BRANCH   2   5
HETATM    5  C   UNL     1     -10.491  14.870  66.723  1.00  0.00    -0.284 C  
BRANCH   5   6
HETATM    6  C   UNL     1     -10.693  14.274  68.168  1.00  0.00    -0.249 C  
HETATM    7  C   UNL     1     -12.150  14.395  68.670  1.00  0.00    -0.274 C  
HETATM    8  C   UNL     1      -9.802  14.971  69.217  1.00  0.00    -0.200 C  
BRANCH   6   9
HETATM    9  C   UNL     1     -10.366  12.758  68.082  1.00  0.00    -0.243 A  
HETATM   10  C   UNL     1     -11.347  11.753  68.156  1.00  0.00    -0.348 A  
HETATM   11  C   UNL     1     -11.012  10.401  68.069  1.00  0.00    -0.347 A  
HETATM   12  C   UNL     1      -9.688  10.009  67.920  1.00  0.00    -0.146 A  
HETATM   13  C   UNL     1      -9.028  12.334  67.940  1.00  0.00    -0.186 A  
HETATM   14  C   UNL     1      -8.690  10.977  67.866  1.00  0.00    -0.133 A  
BRANCH  12  15
HETATM   15  O   UNL     1      -9.494   8.655  67.876  1.00  0.00    -0.138 OA 
BRANCH  15  16
HETATM   16  C   UNL     1     -10.380   7.924  67.040  1.00  0.00    -0.341 C  
BRANCH  16  17
HETATM   17  C   UNL     1      -9.537   7.051  66.107  1.00  0.00     0.057 C  
BRANCH  17  18
HETATM   18  O   UNL     1      -9.532   5.651  66.411  1.00  0.00    -0.149 OA 
BRANCH  18  19
HETATM   19  C   UNL     1      -8.665   5.217  67.454  1.00  0.00    -0.106 C  
BRANCH  19  20
HETATM   20  C   UNL     1      -9.431   4.470  68.554  1.00  0.00    -0.152 C  
BRANCH  20  21
HETATM   21  N   UNL     1      -8.956   4.738  69.990  1.00  0.00    -0.092 N  
HETATM   22  C   UNL     1      -7.927   3.650  70.325  1.00  0.00    -0.046 C  
HETATM   23  C   UNL     1      -8.257   6.090  70.073  1.00  0.00    -0.122 C  
BRANCH  21  24
HETATM   24  C   UNL     1     -10.151   4.652  70.977  1.00  0.00    -0.175 C  
BRANCH  24  25
HETATM   25  C   UNL     1     -10.744   5.973  71.385  1.00  0.00    -0.314 A  
HETATM   26  C   UNL     1     -11.507   6.713  70.469  1.00  0.00    -0.432 A  
HETATM   27  C   UNL     1     -11.931   8.002  70.783  1.00  0.00    -0.132 A  
HETATM   28  C   UNL     1     -11.616   8.557  72.021  1.00  0.00    -0.432 A  
HETATM   29  C   UNL     1     -10.911   7.811  72.962  1.00  0.00    -0.451 A  
HETATM   30  C   UNL     1     -10.488   6.518  72.653  1.00  0.00    -0.236 A  
ENDBRANCH  24  25
ENDBRANCH  21  24
ENDBRANCH  20  21
ENDBRANCH  19  20
ENDBRANCH  18  19
ENDBRANCH  17  18
ENDBRANCH  16  17
ENDBRANCH  15  16
ENDBRANCH  12  15
ENDBRANCH   6   9
ENDBRANCH   5   6
ENDBRANCH   2   5
TORSDOF 12
ENDMDL
MODEL      157
REMARK 921   NORMALIZED FREE ENERGY PREDICTED BY IDOCK:   -4.26 KCAL/MOL
REMARK 922        TOTAL FREE ENERGY PREDICTED BY IDOCK:   -8.51 KCAL/MOL
REMARK 923 INTER-LIGAND FREE ENERGY PREDICTED BY IDOCK:   -7.98 KCAL/MOL
REMARK 924 INTRA-LIGAND FREE ENERGY PREDICTED BY IDOCK:   -0.53 KCAL/MOL
REMARK 927      BINDING AFFINITY PREDICTED BY RF-SCORE:    0.00 PKD
ROOT
HETATM    1  C   UNL     1      -6.649  17.097  68.796  1.00  0.00    -0.191 C  
HETATM    2  C   UNL     1      -7.858  17.058  67.853  1.00  0.00    -0.188 C  
HETATM    3  C   UNL     1      -8.642  18.373  67.954  1.00  0.00    -0.285 C  
HETATM    4  C   UNL     1      -7.288  16.989  66.410  1.00  0.00    -0.328 C  
ENDROOT
BRANCH   2   5
HETATM    5  C   UNL     1      -8.757  15.795  68.058  1.00  0.00    -0.171 C  
BRANCH   5   6
HETATM    6  C   UNL     1     -10.264  15.684  67.608  1.00  0.00    -0.261 C  
HETATM    7  C   UNL     1     -10.427  15.585  66.074  1.00  0.00    -0.335 C  
HETATM    8  C   UNL     1     -11.102  16.894  68.068  1.00  0.00    -0.190 C  
BRANCH   6   9
HETATM    9  C   UNL     1     -10.819  14.364  68.211  1.00  0.00    -0.250 A  
HETATM   10  C   UNL     1     -11.525  14.310  69.425  1.00  0.00    -0.337 A  
HETATM   11  C   UNL     1     -12.013  13.104  69.932  1.00  0.00    -0.387 A  
HETATM   12  C   UNL     1     -11.797  11.913  69.249  1.00  0.00    -0.318 A  
HETATM   13  C   UNL     1     -10.605  13.140  67.542  1.00  0.00    -0.240 A  
HETATM   14  C   UNL     1     -11.082  11.928  68.056  1.00  0.00    -0.293 A  
BRANCH  12  15
HETATM   15  O   UNL     1     -12.301  10.801  69.867  1.00  0.00    -0.329 OA 
BRANCH  15  16
HETATM   16  C   UNL     1     -12.946  11.018  71.115  1.00  0.00    -0.324 C  
BRANCH  16  17
HETATM   17  C   UNL     1     -12.768   9.758  71.964  1.00  0.00    -0.376 C  
BRANCH  17  18
HETATM   18  O   UNL     1     -11.965   8.727  71.377  1.00  0.00    -0.286 OA 
BRANCH  18  19
HETATM   19  C   UNL     1     -11.833   7.512  72.106  1.00  0.00    -0.298 C  
BRANCH  19  20
HETATM   20  C   UNL     1     -11.426   6.345  71.196  1.00  0.00    -0.323 C  
BRANCH  20  21
HETATM   21  N   UNL     1     -10.080   5.685  71.528  1.00  0.00    -0.194 N  
HETATM   22  C   UNL     1      -9.321   6.663  72.434  1.00  0.00    -0.141 C  
HETATM   23  C   UNL     1     -10.301   4.394  72.309  1.00  0.00    -0.160 C  
BRANCH  21  24
HETATM   24  C   UNL     1      -9.268   5.434  70.229  1.00  0.00    -0.148 C  
BRANCH  24  25
HETATM   25  C   UNL     1      -9.667   6.278  69.049  1.00  0.00    -0.147 A  
HETATM   26  C   UNL     1      -9.297   7.631  68.996  1.00  0.00    -0.146 A  
HETATM   27  C   UNL     1      -9.789   8.457  67.987  1.00  0.00    -0.202 A  
HETATM   28  C   UNL     1     -10.635   7.936  67.012  1.00  0.00    -0.381 A  
HETATM   29  C   UNL     1     -10.962   6.582  67.018  1.00  0.00    -0.466 A  
HETATM   30  C   UNL     1     -10.469   5.751  68.024  1.00  0.00    -0.286 A  
ENDBRANCH  24  25
ENDBRANCH  21  24
ENDBRANCH  20  21
ENDBRANCH  19  20
ENDBRANCH  18  19
ENDBRANCH  17  18
ENDBRANCH  16  17
ENDBRANCH  15  16
ENDBRANCH  12  15
ENDBRANCH   6   9
ENDBRANCH   5   6
ENDBRANCH   2   5
TORSDOF 12
ENDMDL
MODEL      158
REMARK 921   NORMALIZED FREE ENERGY PREDICTED BY IDOCK:   -4.25 KCAL/MOL
REMARK 922        TOTAL FREE ENERGY PREDICTED BY IDOCK:   -8.50 KCAL/MOL
REMARK 923 INTER-LIGAND FREE ENERGY PREDICTED BY IDOCK:   -7.25 KCAL/MOL
REMARK 924 INTRA-LIGAND FREE ENERGY PREDICTED BY IDOCK:   -1.25 KCAL/MOL
REMARK 927      BINDING AFFINITY PREDICTED BY RF-SCORE:    0.00 PKD
ROOT
HETATM    1  C   UNL     1     -11.649  14.857  67.471  1.00  0.00    -0.355 C  
HETATM    2  C   UNL     1     -11.218  13.410  67.742  1.00  0.00    -0.306 C  
HETATM    3  C   UNL     1      -9.699  13.348  67.955  1.00  0.00    -0.226 C  
HETATM    4  C   UNL     1     -11.874  13.000  69.088  1.00  0.00    -0.360 C  
ENDROOT
BRANCH   2   5
HETATM    5  C   UNL     1     -11.722  12.405  66.655  1.00  0.00    -0.438 C  
BRANCH   5   6
HETATM    6  C   UNL     1     -11.379  12.498  65.119  1.00  0.00    -0.352 C  
HETATM    7  C   UNL     1     -10.633  13.799  64.747  1.00  0.00    -0.444 C  
HETATM    8  C   UNL     1     -12.642  12.441  64.234  1.00  0.00    -0.494 C  
BRANCH   6   9
HETATM    9  C   UNL     1     -10.423  11.316  64.797  1.00  0.00    -0.384 A  
HETATM   10  C   UNL     1      -9.824  11.132  63.538  1.00  0.00    -0.392 A  
HETATM   11  C   UNL     1      -8.965  10.060  63.290  1.00  0.00    -0.275 A  
HETATM   12  C   UNL     1      -8.691   9.130  64.286  1.00  0.00    -0.150 A  
HETATM   13  C   UNL     1     -10.136  10.354  65.787  1.00  0.00    -0.329 A  
HETATM   14  C   UNL     1      -9.286   9.270  65.535  1.00  0.00    -0.303 A  
BRANCH  12  15
HETATM   15  O   UNL     1      -7.858   8.114  63.904  1.00  0.00    -0.134 OA 
BRANCH  15  16
HETATM   16  C   UNL     1      -6.579   8.088  64.522  1.00  0.00    -0.060 C  
BRANCH  16  17
HETATM   17  C   UNL     1      -6.372   6.693  65.119  1.00  0.00    -0.042 C  
BRANCH  17  18
HETATM   18  O   UNL     1      -7.439   6.212  65.945  1.00  0.00    -0.078 OA 
BRANCH  18  19
HETATM   19  C   UNL     1      -7.752   4.826  65.856  1.00  0.00    -0.091 C  
BRANCH  19  20
HETATM   20  C   UNL     1      -8.800   4.413  66.900  1.00  0.00    -0.114 C  
BRANCH  20  21
HETATM   21  N   UNL     1      -8.273   3.567  68.068  1.00  0.00    -0.082 N  
HETATM   22  C   UNL     1      -9.260   2.407  68.252  1.00  0.00    -0.203 C  
HETATM   23  C   UNL     1      -6.911   2.976  67.723  1.00  0.00    -0.049 C  
BRANCH  21  24
HETATM   24  C   UNL     1      -8.215   4.417  69.365  1.00  0.00    -0.063 C  
BRANCH  24  25
HETATM   25  C   UNL     1      -9.183   5.567  69.425  1.00  0.00    -0.145 A  
HETATM   26  C   UNL     1      -8.742   6.871  69.151  1.00  0.00    -0.135 A  
HETATM   27  C   UNL     1      -9.589   7.958  69.350  1.00  0.00    -0.160 A  
HETATM   28  C   UNL     1     -10.889   7.754  69.805  1.00  0.00    -0.211 A  
HETATM   29  C   UNL     1     -11.359   6.461  70.024  1.00  0.00    -0.496 A  
HETATM   30  C   UNL     1     -10.515   5.369  69.821  1.00  0.00    -0.378 A  
ENDBRANCH  24  25
ENDBRANCH  21  24
ENDBRANCH  20  21
ENDBRANCH  19  20
ENDBRANCH  18  19
ENDBRANCH  17  18
ENDBRANCH  16  17
ENDBRANCH  15  16
ENDBRANCH  12  15
ENDBRANCH   6   9
ENDBRANCH   5   6
ENDBRANCH   2   5
TORSDOF 12
ENDMDL
MODEL      159
REMARK 921   NORMALIZED FREE ENERGY PREDICTED BY IDOCK:   -4.25 KCAL/MOL
REMARK 922        TOTAL FREE ENERGY PREDICTED BY IDOCK:   -8.50 KCAL/MOL
REMARK 923 INTER-LIGAND FREE ENERGY PREDICTED BY IDOCK:   -8.01 KCAL/MOL
REMARK 924 INTRA-LIGAND FREE ENERGY PREDICTED BY IDOCK:   -0.49 KCAL/MOL
REMARK 927      BINDING AFFINITY PREDICTED BY RF-SCORE:    0.00 PKD
ROOT
HETATM    1  C   UNL     1      -7.917   5.714  69.813  1.00  0.00    -0.098 C  
HETATM    2  C   UNL     1      -8.045   6.611  71.052  1.00  0.00    -0.119 C  
HETATM    3  C   UNL     1      -7.298   5.978  72.234  1.00  0.00    -0.094 C  
HETATM    4  C   UNL     1      -7.308   7.935  70.716  1.00  0.00    -0.061 C  
ENDROOT
BRANCH   2   5
HETATM    5  C   UNL     1      -9.526   6.977  71.395  1.00  0.00    -0.159 C  
BRANCH   5   6
HETATM    6  C   UNL     1     -10.749   6.777  70.420  1.00  0.00    -0.281 C  
HETATM    7  C   UNL     1     -12.113   6.950  71.125  1.00  0.00    -0.428 C  
HETATM    8  C   UNL     1     -10.757   5.376  69.774  1.00  0.00    -0.280 C  
BRANCH   6   9
HETATM    9  C   UNL     1     -10.651   7.886  69.337  1.00  0.00    -0.209 A  
HETATM   10  C   UNL     1     -10.786   9.256  69.625  1.00  0.00    -0.244 A  
HETATM   11  C   UNL     1     -10.686  10.224  68.624  1.00  0.00    -0.255 A  
HETATM   12  C   UNL     1     -10.465   9.853  67.303  1.00  0.00    -0.258 A  
HETATM   13  C   UNL     1     -10.436   7.536  67.988  1.00  0.00    -0.253 A  
HETATM   14  C   UNL     1     -10.351   8.505  66.981  1.00  0.00    -0.379 A  
BRANCH  12  15
HETATM   15  O   UNL     1     -10.417  10.896  66.418  1.00  0.00    -0.248 OA 
BRANCH  15  16
HETATM   16  C   UNL     1     -10.161  10.554  65.063  1.00  0.00    -0.321 C  
BRANCH  16  17
HETATM   17  C   UNL     1     -11.001  11.477  64.176  1.00  0.00    -0.366 C  
BRANCH  17  18
HETATM   18  O   UNL     1     -11.933  12.316  64.869  1.00  0.00    -0.381 OA 
BRANCH  18  19
HETATM   19  C   UNL     1     -11.826  13.719  64.654  1.00  0.00    -0.402 C  
BRANCH  19  20
HETATM   20  C   UNL     1     -10.402  14.227  64.917  1.00  0.00    -0.401 C  
BRANCH  20  21
HETATM   21  N   UNL     1     -10.262  15.242  66.062  1.00  0.00    -0.295 N  
HETATM   22  C   UNL     1     -10.713  16.598  65.506  1.00  0.00    -0.223 C  
HETATM   23  C   UNL     1     -11.190  14.873  67.213  1.00  0.00    -0.345 C  
BRANCH  21  24
HETATM   24  C   UNL     1      -8.783  15.330  66.526  1.00  0.00    -0.279 C  
BRANCH  24  25
HETATM   25  C   UNL     1      -8.289  16.717  66.836  1.00  0.00    -0.243 A  
HETATM   26  C   UNL     1      -8.758  17.391  67.974  1.00  0.00    -0.241 A  
HETATM   27  C   UNL     1      -8.427  18.727  68.189  1.00  0.00    -0.335 A  
HETATM   28  C   UNL     1      -7.608  19.395  67.282  1.00  0.00    -0.268 A  
HETATM   29  C   UNL     1      -7.087  18.721  66.181  1.00  0.00    -0.290 A  
HETATM   30  C   UNL     1      -7.413  17.382  65.965  1.00  0.00    -0.255 A  
ENDBRANCH  24  25
ENDBRANCH  21  24
ENDBRANCH  20  21
ENDBRANCH  19  20
ENDBRANCH  18  19
ENDBRANCH  17  18
ENDBRANCH  16  17
ENDBRANCH  15  16
ENDBRANCH  12  15
ENDBRANCH   6   9
ENDBRANCH   5   6
ENDBRANCH   2   5
TORSDOF 12
ENDMDL
MODEL      160
REMARK 921   NORMALIZED FREE ENERGY PREDICTED BY IDOCK:   -4.25 KCAL/MOL
REMARK 922        TOTAL FREE ENERGY PREDICTED BY IDOCK:   -8.49 KCAL/MOL
REMARK 923 INTER-LIGAND FREE ENERGY PREDICTED BY IDOCK:   -8.19 KCAL/MOL
REMARK 924 INTRA-LIGAND FREE ENERGY PREDICTED BY IDOCK:   -0.30 KCAL/MOL
REMARK 927      BINDING AFFINITY PREDICTED BY RF-SCORE:    0.00 PKD
ROOT
HETATM    1  C   UNL     1      -7.568   5.484  67.705  1.00  0.00    -0.088 C  
HETATM    2  C   UNL     1      -8.840   4.751  67.259  1.00  0.00    -0.104 C  
HETATM    3  C   UNL     1      -8.770   4.451  65.756  1.00  0.00    -0.120 C  
HETATM    4  C   UNL     1      -8.838   3.380  67.988  1.00  0.00    -0.155 C  
ENDROOT
BRANCH   2   5
HETATM    5  C   UNL     1     -10.153   5.494  67.671  1.00  0.00    -0.217 C  
BRANCH   5   6
HETATM    6  C   UNL     1     -10.238   6.630  68.760  1.00  0.00    -0.186 C  
HETATM    7  C   UNL     1      -9.075   6.577  69.776  1.00  0.00    -0.142 C  
HETATM    8  C   UNL     1     -11.545   6.559  69.577  1.00  0.00    -0.298 C  
BRANCH   6   9
HETATM    9  C   UNL     1     -10.127   7.985  68.009  1.00  0.00    -0.238 A  
HETATM   10  C   UNL     1     -10.217   9.232  68.654  1.00  0.00    -0.220 A  
HETATM   11  C   UNL     1     -10.106  10.428  67.944  1.00  0.00    -0.200 A  
HETATM   12  C   UNL     1      -9.918  10.418  66.567  1.00  0.00    -0.217 A  
HETATM   13  C   UNL     1      -9.945   8.002  66.610  1.00  0.00    -0.326 A  
HETATM   14  C   UNL     1      -9.848   9.202  65.896  1.00  0.00    -0.305 A  
BRANCH  12  15
HETATM   15  O   UNL     1      -9.854  11.657  65.991  1.00  0.00    -0.216 OA 
BRANCH  15  16
HETATM   16  C   UNL     1     -11.025  12.092  65.313  1.00  0.00    -0.304 C  
BRANCH  16  17
HETATM   17  C   UNL     1     -10.841  13.568  64.950  1.00  0.00    -0.362 C  
BRANCH  17  18
HETATM   18  O   UNL     1     -11.668  14.488  65.672  1.00  0.00    -0.345 OA 
BRANCH  18  19
HETATM   19  C   UNL     1     -11.833  14.255  67.067  1.00  0.00    -0.428 C  
BRANCH  19  20
HETATM   20  C   UNL     1     -11.396  15.468  67.899  1.00  0.00    -0.308 C  
BRANCH  20  21
HETATM   21  N   UNL     1     -10.140  15.264  68.759  1.00  0.00    -0.212 N  
HETATM   22  C   UNL     1     -10.579  15.403  70.222  1.00  0.00    -0.277 C  
HETATM   23  C   UNL     1      -9.588  13.857  68.564  1.00  0.00    -0.185 C  
BRANCH  21  24
HETATM   24  C   UNL     1      -9.077  16.345  68.424  1.00  0.00    -0.214 C  
BRANCH  24  25
HETATM   25  C   UNL     1      -9.619  17.618  67.832  1.00  0.00    -0.282 A  
HETATM   26  C   UNL     1      -9.820  17.718  66.447  1.00  0.00    -0.328 A  
HETATM   27  C   UNL     1     -10.175  18.937  65.872  1.00  0.00    -0.333 A  
HETATM   28  C   UNL     1     -10.352  20.060  66.676  1.00  0.00    -0.565 A  
HETATM   29  C   UNL     1     -10.214  19.960  68.058  1.00  0.00    -0.572 A  
HETATM   30  C   UNL     1      -9.863  18.741  68.638  1.00  0.00    -0.441 A  
ENDBRANCH  24  25
ENDBRANCH  21  24
ENDBRANCH  20  21
ENDBRANCH  19  20
ENDBRANCH  18  19
ENDBRANCH  17  18
ENDBRANCH  16  17
ENDBRANCH  15  16
ENDBRANCH  12  15
ENDBRANCH   6   9
ENDBRANCH   5   6
ENDBRANCH   2   5
TORSDOF 12
ENDMDL
MODEL      161
REMARK 921   NORMALIZED FREE ENERGY PREDICTED BY IDOCK:   -4.23 KCAL/MOL
REMARK 922        TOTAL FREE ENERGY PREDICTED BY IDOCK:   -8.47 KCAL/MOL
REMARK 923 INTER-LIGAND FREE ENERGY PREDICTED BY IDOCK:   -7.73 KCAL/MOL
REMARK 924 INTRA-LIGAND FREE ENERGY PREDICTED BY IDOCK:   -0.75 KCAL/MOL
REMARK 927      BINDING AFFINITY PREDICTED BY RF-SCORE:    0.00 PKD
ROOT
HETATM    1  C   UNL     1     -11.652  15.095  64.357  1.00  0.00    -0.275 C  
HETATM    2  C   UNL     1     -11.312  13.772  65.054  1.00  0.00    -0.334 C  
HETATM    3  C   UNL     1     -12.601  13.075  65.511  1.00  0.00    -0.422 C  
HETATM    4  C   UNL     1     -10.669  12.858  63.976  1.00  0.00    -0.429 C  
ENDROOT
BRANCH   2   5
HETATM    5  C   UNL     1     -10.268  13.935  66.207  1.00  0.00    -0.299 C  
BRANCH   5   6
HETATM    6  C   UNL     1      -9.579  12.740  66.971  1.00  0.00    -0.229 C  
HETATM    7  C   UNL     1      -8.247  13.144  67.642  1.00  0.00    -0.175 C  
HETATM    8  C   UNL     1      -9.264  11.554  66.036  1.00  0.00    -0.229 C  
BRANCH   6   9
HETATM    9  C   UNL     1     -10.549  12.310  68.105  1.00  0.00    -0.232 A  
HETATM   10  C   UNL     1     -11.075  13.210  69.050  1.00  0.00    -0.282 A  
HETATM   11  C   UNL     1     -11.949  12.785  70.052  1.00  0.00    -0.371 A  
HETATM   12  C   UNL     1     -12.312  11.447  70.152  1.00  0.00    -0.266 A  
HETATM   13  C   UNL     1     -10.926  10.957  68.234  1.00  0.00    -0.293 A  
HETATM   14  C   UNL     1     -11.791  10.528  69.247  1.00  0.00    -0.242 A  
BRANCH  12  15
HETATM   15  O   UNL     1     -13.150  11.160  71.194  1.00  0.00    -0.331 OA 
BRANCH  15  16
HETATM   16  C   UNL     1     -12.689  10.182  72.116  1.00  0.00    -0.225 C  
BRANCH  16  17
HETATM   17  C   UNL     1     -13.825   9.185  72.356  1.00  0.00    -0.457 C  
BRANCH  17  18
HETATM   18  O   UNL     1     -13.985   8.180  71.347  1.00  0.00    -0.335 OA 
BRANCH  18  19
HETATM   19  C   UNL     1     -12.937   7.226  71.211  1.00  0.00    -0.328 C  
BRANCH  19  20
HETATM   20  C   UNL     1     -11.959   7.284  72.393  1.00  0.00    -0.163 C  
BRANCH  20  21
HETATM   21  N   UNL     1     -10.773   6.312  72.319  1.00  0.00    -0.220 N  
HETATM   22  C   UNL     1     -11.137   5.103  73.190  1.00  0.00    -0.326 C  
HETATM   23  C   UNL     1     -10.578   5.821  70.889  1.00  0.00    -0.262 C  
BRANCH  21  24
HETATM   24  C   UNL     1      -9.488   6.987  72.869  1.00  0.00    -0.146 C  
BRANCH  24  25
HETATM   25  C   UNL     1      -8.649   7.703  71.845  1.00  0.00    -0.131 A  
HETATM   26  C   UNL     1      -9.059   8.951  71.350  1.00  0.00    -0.318 A  
HETATM   27  C   UNL     1      -8.374   9.550  70.295  1.00  0.00    -0.221 A  
HETATM   28  C   UNL     1      -7.263   8.921  69.740  1.00  0.00    -0.055 A  
HETATM   29  C   UNL     1      -6.810   7.712  70.262  1.00  0.00    -0.047 A  
HETATM   30  C   UNL     1      -7.490   7.111  71.320  1.00  0.00    -0.080 A  
ENDBRANCH  24  25
ENDBRANCH  21  24
ENDBRANCH  20  21
ENDBRANCH  19  20
ENDBRANCH  18  19
ENDBRANCH  17  18
ENDBRANCH  16  17
ENDBRANCH  15  16
ENDBRANCH  12  15
ENDBRANCH   6   9
ENDBRANCH   5   6
ENDBRANCH   2   5
TORSDOF 12
ENDMDL
MODEL      162
REMARK 921   NORMALIZED FREE ENERGY PREDICTED BY IDOCK:   -4.23 KCAL/MOL
REMARK 922        TOTAL FREE ENERGY PREDICTED BY IDOCK:   -8.46 KCAL/MOL
REMARK 923 INTER-LIGAND FREE ENERGY PREDICTED BY IDOCK:   -7.09 KCAL/MOL
REMARK 924 INTRA-LIGAND FREE ENERGY PREDICTED BY IDOCK:   -1.37 KCAL/MOL
REMARK 927      BINDING AFFINITY PREDICTED BY RF-SCORE:    0.00 PKD
ROOT
HETATM    1  C   UNL     1     -12.320   7.010  71.024  1.00  0.00    -0.402 C  
HETATM    2  C   UNL     1     -11.939   8.185  71.934  1.00  0.00    -0.367 C  
HETATM    3  C   UNL     1     -13.199   8.776  72.580  1.00  0.00    -0.398 C  
HETATM    4  C   UNL     1     -11.085   7.591  73.087  1.00  0.00    -0.378 C  
ENDROOT
BRANCH   2   5
HETATM    5  C   UNL     1     -11.062   9.261  71.215  1.00  0.00    -0.427 C  
BRANCH   5   6
HETATM    6  C   UNL     1      -9.802   8.942  70.322  1.00  0.00    -0.211 C  
HETATM    7  C   UNL     1      -9.862   7.539  69.677  1.00  0.00    -0.180 C  
HETATM    8  C   UNL     1      -8.486   9.006  71.125  1.00  0.00    -0.234 C  
BRANCH   6   9
HETATM    9  C   UNL     1      -9.795   9.976  69.163  1.00  0.00    -0.213 A  
HETATM   10  C   UNL     1      -8.700  10.815  68.887  1.00  0.00    -0.154 A  
HETATM   11  C   UNL     1      -8.731  11.729  67.832  1.00  0.00    -0.164 A  
HETATM   12  C   UNL     1      -9.860  11.845  67.031  1.00  0.00    -0.192 A  
HETATM   13  C   UNL     1     -10.932  10.120  68.341  1.00  0.00    -0.293 A  
HETATM   14  C   UNL     1     -10.969  11.046  67.292  1.00  0.00    -0.356 A  
BRANCH  12  15
HETATM   15  O   UNL     1      -9.771  12.796  66.052  1.00  0.00    -0.259 OA 
BRANCH  15  16
HETATM   16  C   UNL     1     -10.923  12.968  65.239  1.00  0.00    -0.284 C  
BRANCH  16  17
HETATM   17  C   UNL     1     -10.558  12.564  63.809  1.00  0.00    -0.436 C  
BRANCH  17  18
HETATM   18  O   UNL     1     -10.666  11.166  63.518  1.00  0.00    -0.368 OA 
BRANCH  18  19
HETATM   19  C   UNL     1      -9.451  10.431  63.403  1.00  0.00    -0.315 C  
BRANCH  19  20
HETATM   20  C   UNL     1      -9.309   9.391  64.523  1.00  0.00    -0.004 C  
BRANCH  20  21
HETATM   21  N   UNL     1      -7.877   8.911  64.802  1.00  0.00    -0.114 N  
HETATM   22  C   UNL     1      -7.571   7.815  63.773  1.00  0.00    -0.118 C  
HETATM   23  C   UNL     1      -6.885  10.048  64.588  1.00  0.00    -0.130 C  
BRANCH  21  24
HETATM   24  C   UNL     1      -7.775   8.327  66.237  1.00  0.00    -0.097 C  
BRANCH  24  25
HETATM   25  C   UNL     1      -8.384   6.963  66.421  1.00  0.00    -0.125 A  
HETATM   26  C   UNL     1      -7.562   5.826  66.453  1.00  0.00    -0.091 A  
HETATM   27  C   UNL     1      -8.123   4.551  66.469  1.00  0.00    -0.103 A  
HETATM   28  C   UNL     1      -9.507   4.399  66.474  1.00  0.00    -0.186 A  
HETATM   29  C   UNL     1     -10.334   5.520  66.502  1.00  0.00    -0.309 A  
HETATM   30  C   UNL     1      -9.776   6.798  66.490  1.00  0.00    -0.183 A  
ENDBRANCH  24  25
ENDBRANCH  21  24
ENDBRANCH  20  21
ENDBRANCH  19  20
ENDBRANCH  18  19
ENDBRANCH  17  18
ENDBRANCH  16  17
ENDBRANCH  15  16
ENDBRANCH  12  15
ENDBRANCH   6   9
ENDBRANCH   5   6
ENDBRANCH   2   5
TORSDOF 12
ENDMDL
MODEL      163
REMARK 921   NORMALIZED FREE ENERGY PREDICTED BY IDOCK:   -4.20 KCAL/MOL
REMARK 922        TOTAL FREE ENERGY PREDICTED BY IDOCK:   -8.42 KCAL/MOL
REMARK 923 INTER-LIGAND FREE ENERGY PREDICTED BY IDOCK:   -7.67 KCAL/MOL
REMARK 924 INTRA-LIGAND FREE ENERGY PREDICTED BY IDOCK:   -0.75 KCAL/MOL
REMARK 927      BINDING AFFINITY PREDICTED BY RF-SCORE:    0.00 PKD
ROOT
HETATM    1  C   UNL     1      -8.962   9.055  65.493  1.00  0.00    -0.252 C  
HETATM    2  C   UNL     1      -8.653  10.302  64.654  1.00  0.00    -0.194 C  
HETATM    3  C   UNL     1      -7.169  10.316  64.265  1.00  0.00    -0.063 C  
HETATM    4  C   UNL     1      -9.458  10.155  63.334  1.00  0.00    -0.308 C  
ENDROOT
BRANCH   2   5
HETATM    5  C   UNL     1      -9.117  11.631  65.335  1.00  0.00    -0.007 C  
BRANCH   5   6
HETATM    6  C   UNL     1     -10.567  12.239  65.222  1.00  0.00    -0.322 C  
HETATM    7  C   UNL     1     -11.584  11.256  64.602  1.00  0.00     0.125 C  
HETATM    8  C   UNL     1     -10.599  13.517  64.358  1.00  0.00    -0.394 C  
BRANCH   6   9
HETATM    9  C   UNL     1     -11.045  12.538  66.670  1.00  0.00    -0.327 A  
HETATM   10  C   UNL     1     -10.804  11.674  67.753  1.00  0.00    -0.264 A  
HETATM   11  C   UNL     1     -11.246  11.981  69.041  1.00  0.00    -0.313 A  
HETATM   12  C   UNL     1     -11.956  13.150  69.285  1.00  0.00    -0.292 A  
HETATM   13  C   UNL     1     -11.776  13.713  66.941  1.00  0.00    -0.423 A  
HETATM   14  C   UNL     1     -12.232  14.014  68.230  1.00  0.00    -0.195 A  
BRANCH  12  15
HETATM   15  O   UNL     1     -12.356  13.315  70.582  1.00  0.00    -0.356 OA 
BRANCH  15  16
HETATM   16  C   UNL     1     -12.613  14.651  70.992  1.00  0.00    -0.329 C  
BRANCH  16  17
HETATM   17  C   UNL     1     -11.282  15.407  71.004  1.00  0.00    -0.364 C  
BRANCH  17  18
HETATM   18  O   UNL     1     -11.267  16.639  70.273  1.00  0.00    -0.262 OA 
BRANCH  18  19
HETATM   19  C   UNL     1     -10.207  16.827  69.341  1.00  0.00    -0.225 C  
BRANCH  19  20
HETATM   20  C   UNL     1     -10.605  17.793  68.217  1.00  0.00    -0.319 C  
BRANCH  20  21
HETATM   21  N   UNL     1      -9.455  18.605  67.604  1.00  0.00    -0.290 N  
HETATM   22  C   UNL     1     -10.061  19.924  67.107  1.00  0.00    -0.438 C  
HETATM   23  C   UNL     1      -8.415  18.937  68.668  1.00  0.00    -0.346 C  
BRANCH  21  24
HETATM   24  C   UNL     1      -8.826  17.834  66.412  1.00  0.00    -0.231 C  
BRANCH  24  25
HETATM   25  C   UNL     1      -7.996  16.637  66.787  1.00  0.00    -0.284 A  
HETATM   26  C   UNL     1      -8.617  15.403  67.038  1.00  0.00    -0.262 A  
HETATM   27  C   UNL     1      -7.878  14.330  67.533  1.00  0.00    -0.209 A  
HETATM   28  C   UNL     1      -6.513  14.472  67.762  1.00  0.00    -0.181 A  
HETATM   29  C   UNL     1      -5.873  15.672  67.461  1.00  0.00    -0.103 A  
HETATM   30  C   UNL     1      -6.608  16.748  66.962  1.00  0.00    -0.239 A  
ENDBRANCH  24  25
ENDBRANCH  21  24
ENDBRANCH  20  21
ENDBRANCH  19  20
ENDBRANCH  18  19
ENDBRANCH  17  18
ENDBRANCH  16  17
ENDBRANCH  15  16
ENDBRANCH  12  15
ENDBRANCH   6   9
ENDBRANCH   5   6
ENDBRANCH   2   5
TORSDOF 12
ENDMDL
MODEL      164
REMARK 921   NORMALIZED FREE ENERGY PREDICTED BY IDOCK:   -4.19 KCAL/MOL
REMARK 922        TOTAL FREE ENERGY PREDICTED BY IDOCK:   -8.40 KCAL/MOL
REMARK 923 INTER-LIGAND FREE ENERGY PREDICTED BY IDOCK:   -7.20 KCAL/MOL
REMARK 924 INTRA-LIGAND FREE ENERGY PREDICTED BY IDOCK:   -1.21 KCAL/MOL
REMARK 927      BINDING AFFINITY PREDICTED BY RF-SCORE:    0.00 PKD
ROOT
HETATM    1  C   UNL     1     -10.537  11.037  68.159  1.00  0.00    -0.226 C  
HETATM    2  C   UNL     1      -9.854  10.160  67.101  1.00  0.00    -0.231 C  
HETATM    3  C   UNL     1     -10.287   8.698  67.275  1.00  0.00    -0.366 C  
HETATM    4  C   UNL     1     -10.401  10.626  65.724  1.00  0.00    -0.287 C  
ENDROOT
BRANCH   2   5
HETATM    5  C   UNL     1      -8.301  10.336  67.067  1.00  0.00    -0.126 C  
BRANCH   5   6
HETATM    6  C   UNL     1      -7.367  10.314  68.337  1.00  0.00    -0.084 C  
HETATM    7  C   UNL     1      -6.114   9.430  68.145  1.00  0.00    -0.052 C  
HETATM    8  C   UNL     1      -8.096   9.787  69.589  1.00  0.00    -0.158 C  
BRANCH   6   9
HETATM    9  C   UNL     1      -6.869  11.769  68.556  1.00  0.00    -0.075 A  
HETATM   10  C   UNL     1      -6.862  12.742  67.541  1.00  0.00    -0.153 A  
HETATM   11  C   UNL     1      -6.411  14.041  67.780  1.00  0.00    -0.181 A  
HETATM   12  C   UNL     1      -5.939  14.405  69.035  1.00  0.00    -0.089 A  
HETATM   13  C   UNL     1      -6.376  12.162  69.819  1.00  0.00    -0.102 A  
HETATM   14  C   UNL     1      -5.910  13.460  70.055  1.00  0.00    -0.132 A  
BRANCH  12  15
HETATM   15  O   UNL     1      -5.501  15.698  69.127  1.00  0.00    -0.100 OA 
BRANCH  15  16
HETATM   16  C   UNL     1      -6.485  16.670  69.453  1.00  0.00    -0.220 C  
BRANCH  16  17
HETATM   17  C   UNL     1      -6.561  17.672  68.298  1.00  0.00    -0.190 C  
BRANCH  17  18
HETATM   18  O   UNL     1      -7.863  18.209  68.034  1.00  0.00    -0.247 OA 
BRANCH  18  19
HETATM   19  C   UNL     1      -8.815  17.336  67.436  1.00  0.00    -0.218 C  
BRANCH  19  20
HETATM   20  C   UNL     1     -10.125  17.292  68.236  1.00  0.00    -0.321 C  
BRANCH  20  21
HETATM   21  N   UNL     1     -10.628  15.889  68.605  1.00  0.00    -0.239 N  
HETATM   22  C   UNL     1     -10.553  15.043  67.328  1.00  0.00    -0.279 C  
HETATM   23  C   UNL     1      -9.711  15.254  69.645  1.00  0.00    -0.200 C  
BRANCH  21  24
HETATM   24  C   UNL     1     -12.096  15.957  69.104  1.00  0.00    -0.142 C  
BRANCH  24  25
HETATM   25  C   UNL     1     -12.406  15.106  70.307  1.00  0.00    -0.398 A  
HETATM   26  C   UNL     1     -12.340  13.707  70.212  1.00  0.00    -0.392 A  
HETATM   27  C   UNL     1     -12.770  12.909  71.269  1.00  0.00    -0.371 A  
HETATM   28  C   UNL     1     -13.251  13.497  72.435  1.00  0.00    -0.577 A  
HETATM   29  C   UNL     1     -13.267  14.884  72.565  1.00  0.00    -0.499 A  
HETATM   30  C   UNL     1     -12.832  15.687  71.511  1.00  0.00    -0.538 A  
ENDBRANCH  24  25
ENDBRANCH  21  24
ENDBRANCH  20  21
ENDBRANCH  19  20
ENDBRANCH  18  19
ENDBRANCH  17  18
ENDBRANCH  16  17
ENDBRANCH  15  16
ENDBRANCH  12  15
ENDBRANCH   6   9
ENDBRANCH   5   6
ENDBRANCH   2   5
TORSDOF 12
ENDMDL
MODEL      165
REMARK 921   NORMALIZED FREE ENERGY PREDICTED BY IDOCK:   -4.14 KCAL/MOL
REMARK 922        TOTAL FREE ENERGY PREDICTED BY IDOCK:   -8.32 KCAL/MOL
REMARK 923 INTER-LIGAND FREE ENERGY PREDICTED BY IDOCK:   -6.56 KCAL/MOL
REMARK 924 INTRA-LIGAND FREE ENERGY PREDICTED BY IDOCK:   -1.76 KCAL/MOL
REMARK 927      BINDING AFFINITY PREDICTED BY RF-SCORE:    0.00 PKD
ROOT
HETATM    1  C   UNL     1     -10.547   7.136  67.420  1.00  0.00    -0.372 C  
HETATM    2  C   UNL     1      -9.050   7.474  67.416  1.00  0.00    -0.135 C  
HETATM    3  C   UNL     1      -8.249   6.304  68.005  1.00  0.00    -0.115 C  
HETATM    4  C   UNL     1      -8.630   7.596  65.926  1.00  0.00    -0.164 C  
ENDROOT
BRANCH   2   5
HETATM    5  C   UNL     1      -8.726   8.841  68.103  1.00  0.00    -0.134 C  
BRANCH   5   6
HETATM    6  C   UNL     1      -9.474  10.196  67.802  1.00  0.00    -0.160 C  
HETATM    7  C   UNL     1     -10.657  10.455  68.762  1.00  0.00    -0.232 C  
HETATM    8  C   UNL     1     -10.045  10.243  66.370  1.00  0.00    -0.296 C  
BRANCH   6   9
HETATM    9  C   UNL     1      -8.446  11.339  68.026  1.00  0.00    -0.138 A  
HETATM   10  C   UNL     1      -8.301  12.427  67.148  1.00  0.00    -0.181 A  
HETATM   11  C   UNL     1      -7.369  13.438  67.388  1.00  0.00    -0.124 A  
HETATM   12  C   UNL     1      -6.540  13.385  68.503  1.00  0.00    -0.089 A  
HETATM   13  C   UNL     1      -7.587  11.303  69.145  1.00  0.00    -0.070 A  
HETATM   14  C   UNL     1      -6.642  12.309  69.378  1.00  0.00    -0.081 A  
BRANCH  12  15
HETATM   15  O   UNL     1      -5.653  14.421  68.604  1.00  0.00    -0.084 OA 
BRANCH  15  16
HETATM   16  C   UNL     1      -5.900  15.540  67.765  1.00  0.00    -0.137 C  
BRANCH  16  17
HETATM   17  C   UNL     1      -6.211  16.742  68.661  1.00  0.00    -0.151 C  
BRANCH  17  18
HETATM   18  O   UNL     1      -6.062  18.026  68.042  1.00  0.00    -0.164 OA 
BRANCH  18  19
HETATM   19  C   UNL     1      -7.056  19.004  68.330  1.00  0.00    -0.273 C  
BRANCH  19  20
HETATM   20  C   UNL     1      -8.456  18.381  68.420  1.00  0.00    -0.326 C  
BRANCH  20  21
HETATM   21  N   UNL     1      -9.217  18.269  67.092  1.00  0.00    -0.260 N  
HETATM   22  C   UNL     1     -10.704  18.466  67.417  1.00  0.00    -0.361 C  
HETATM   23  C   UNL     1      -8.792  19.382  66.141  1.00  0.00    -0.283 C  
BRANCH  21  24
HETATM   24  C   UNL     1      -8.999  16.867  66.462  1.00  0.00    -0.272 C  
BRANCH  24  25
HETATM   25  C   UNL     1     -10.052  15.843  66.792  1.00  0.00    -0.276 A  
HETATM   26  C   UNL     1     -10.191  15.379  68.109  1.00  0.00    -0.230 A  
HETATM   27  C   UNL     1     -11.055  14.325  68.397  1.00  0.00    -0.274 A  
HETATM   28  C   UNL     1     -11.802  13.739  67.379  1.00  0.00    -0.431 A  
HETATM   29  C   UNL     1     -11.718  14.230  66.078  1.00  0.00    -0.384 A  
HETATM   30  C   UNL     1     -10.858  15.287  65.786  1.00  0.00    -0.363 A  
ENDBRANCH  24  25
ENDBRANCH  21  24
ENDBRANCH  20  21
ENDBRANCH  19  20
ENDBRANCH  18  19
ENDBRANCH  17  18
ENDBRANCH  16  17
ENDBRANCH  15  16
ENDBRANCH  12  15
ENDBRANCH   6   9
ENDBRANCH   5   6
ENDBRANCH   2   5
TORSDOF 12
ENDMDL
MODEL      166
REMARK 921   NORMALIZED FREE ENERGY PREDICTED BY IDOCK:   -4.14 KCAL/MOL
REMARK 922        TOTAL FREE ENERGY PREDICTED BY IDOCK:   -8.31 KCAL/MOL
REMARK 923 INTER-LIGAND FREE ENERGY PREDICTED BY IDOCK:   -6.88 KCAL/MOL
REMARK 924 INTRA-LIGAND FREE ENERGY PREDICTED BY IDOCK:   -1.43 KCAL/MOL
REMARK 927      BINDING AFFINITY PREDICTED BY RF-SCORE:    0.00 PKD
ROOT
HETATM    1  C   UNL     1      -6.665  12.783  67.415  1.00  0.00    -0.138 C  
HETATM    2  C   UNL     1      -7.623  11.589  67.319  1.00  0.00    -0.143 C  
HETATM    3  C   UNL     1      -6.855  10.282  67.558  1.00  0.00    -0.072 C  
HETATM    4  C   UNL     1      -8.629  11.735  68.493  1.00  0.00    -0.123 C  
ENDROOT
BRANCH   2   5
HETATM    5  C   UNL     1      -8.454  11.573  65.995  1.00  0.00    -0.005 C  
BRANCH   5   6
HETATM    6  C   UNL     1      -9.796  10.771  65.786  1.00  0.00    -0.292 C  
HETATM    7  C   UNL     1     -10.321  10.846  64.335  1.00  0.00    -0.430 C  
HETATM    8  C   UNL     1     -10.930  11.284  66.697  1.00  0.00    -0.326 C  
BRANCH   6   9
HETATM    9  C   UNL     1      -9.480   9.278  66.081  1.00  0.00    -0.298 A  
HETATM   10  C   UNL     1      -8.675   8.483  65.246  1.00  0.00    -0.175 A  
HETATM   11  C   UNL     1      -8.411   7.146  65.548  1.00  0.00    -0.132 A  
HETATM   12  C   UNL     1      -8.955   6.558  66.683  1.00  0.00    -0.138 A  
HETATM   13  C   UNL     1     -10.028   8.655  67.221  1.00  0.00    -0.282 A  
HETATM   14  C   UNL     1      -9.775   7.311  67.517  1.00  0.00    -0.181 A  
BRANCH  12  15
HETATM   15  O   UNL     1      -8.641   5.236  66.847  1.00  0.00    -0.107 OA 
BRANCH  15  16
HETATM   16  C   UNL     1      -8.168   4.860  68.133  1.00  0.00    -0.089 C  
BRANCH  16  17
HETATM   17  C   UNL     1      -9.167   3.868  68.733  1.00  0.00    -0.152 C  
BRANCH  17  18
HETATM   18  O   UNL     1     -10.254   4.453  69.461  1.00  0.00    -0.115 OA 
BRANCH  18  19
HETATM   19  C   UNL     1     -10.052   4.688  70.850  1.00  0.00    -0.187 C  
BRANCH  19  20
HETATM   20  C   UNL     1     -10.389   6.135  71.236  1.00  0.00    -0.217 C  
BRANCH  20  21
HETATM   21  N   UNL     1      -9.805   6.617  72.571  1.00  0.00    -0.165 N  
HETATM   22  C   UNL     1     -10.716   6.068  73.676  1.00  0.00    -0.219 C  
HETATM   23  C   UNL     1      -8.410   6.038  72.780  1.00  0.00    -0.118 C  
BRANCH  21  24
HETATM   24  C   UNL     1      -9.792   8.169  72.625  1.00  0.00    -0.294 C  
BRANCH  24  25
HETATM   25  C   UNL     1     -10.918   8.846  71.890  1.00  0.00    -0.439 A  
HETATM   26  C   UNL     1     -10.646   9.625  70.755  1.00  0.00    -0.392 A  
HETATM   27  C   UNL     1     -11.655  10.378  70.159  1.00  0.00    -0.392 A  
HETATM   28  C   UNL     1     -12.947  10.345  70.677  1.00  0.00    -0.357 A  
HETATM   29  C   UNL     1     -13.243   9.529  71.767  1.00  0.00    -0.505 A  
HETATM   30  C   UNL     1     -12.237   8.771  72.364  1.00  0.00    -0.396 A  
ENDBRANCH  24  25
ENDBRANCH  21  24
ENDBRANCH  20  21
ENDBRANCH  19  20
ENDBRANCH  18  19
ENDBRANCH  17  18
ENDBRANCH  16  17
ENDBRANCH  15  16
ENDBRANCH  12  15
ENDBRANCH   6   9
ENDBRANCH   5   6
ENDBRANCH   2   5
TORSDOF 12
ENDMDL
MODEL      167
REMARK 921   NORMALIZED FREE ENERGY PREDICTED BY IDOCK:   -4.13 KCAL/MOL
REMARK 922        TOTAL FREE ENERGY PREDICTED BY IDOCK:   -8.30 KCAL/MOL
REMARK 923 INTER-LIGAND FREE ENERGY PREDICTED BY IDOCK:   -5.51 KCAL/MOL
REMARK 924 INTRA-LIGAND FREE ENERGY PREDICTED BY IDOCK:   -2.79 KCAL/MOL
REMARK 927      BINDING AFFINITY PREDICTED BY RF-SCORE:    0.00 PKD
ROOT
HETATM    1  C   UNL     1     -11.156   7.927  72.754  1.00  0.00    -0.462 C  
HETATM    2  C   UNL     1     -12.164   8.289  71.655  1.00  0.00    -0.350 C  
HETATM    3  C   UNL     1     -12.752   7.009  71.044  1.00  0.00    -0.300 C  
HETATM    4  C   UNL     1     -13.335   9.026  72.358  1.00  0.00    -0.516 C  
ENDROOT
BRANCH   2   5
HETATM    5  C   UNL     1     -11.579   9.263  70.582  1.00  0.00    -0.305 C  
BRANCH   5   6
HETATM    6  C   UNL     1     -10.142   9.139  69.944  1.00  0.00    -0.219 C  
HETATM    7  C   UNL     1      -9.029   8.964  71.001  1.00  0.00    -0.298 C  
HETATM    8  C   UNL     1      -9.767  10.377  69.103  1.00  0.00    -0.234 C  
BRANCH   6   9
HETATM    9  C   UNL     1     -10.146   7.855  69.069  1.00  0.00    -0.204 A  
HETATM   10  C   UNL     1     -10.761   7.786  67.807  1.00  0.00    -0.197 A  
HETATM   11  C   UNL     1     -10.738   6.614  67.048  1.00  0.00    -0.437 A  
HETATM   12  C   UNL     1     -10.114   5.471  67.533  1.00  0.00    -0.180 A  
HETATM   13  C   UNL     1      -9.527   6.679  69.542  1.00  0.00    -0.148 A  
HETATM   14  C   UNL     1      -9.515   5.500  68.789  1.00  0.00    -0.163 A  
BRANCH  12  15
HETATM   15  O   UNL     1     -10.188   4.385  66.705  1.00  0.00    -0.219 OA 
BRANCH  15  16
HETATM   16  C   UNL     1      -9.093   3.481  66.758  1.00  0.00    -0.164 C  
BRANCH  16  17
HETATM   17  C   UNL     1      -8.465   3.415  65.364  1.00  0.00    -0.104 C  
BRANCH  17  18
HETATM   18  O   UNL     1      -9.350   3.710  64.276  1.00  0.00    -0.128 OA 
BRANCH  18  19
HETATM   19  C   UNL     1      -8.915   4.683  63.332  1.00  0.00    -0.110 C  
BRANCH  19  20
HETATM   20  C   UNL     1      -7.413   4.969  63.463  1.00  0.00    -0.056 C  
BRANCH  20  21
HETATM   21  N   UNL     1      -7.043   6.419  63.809  1.00  0.00    -0.047 N  
HETATM   22  C   UNL     1      -5.612   6.390  64.361  1.00  0.00    -0.025 C  
HETATM   23  C   UNL     1      -7.046   7.281  62.552  1.00  0.00    -0.075 C  
BRANCH  21  24
HETATM   24  C   UNL     1      -8.010   6.979  64.887  1.00  0.00    -0.127 C  
BRANCH  24  25
HETATM   25  C   UNL     1      -7.385   7.917  65.885  1.00  0.00    -0.076 A  
HETATM   26  C   UNL     1      -6.903   7.421  67.107  1.00  0.00    -0.074 A  
HETATM   27  C   UNL     1      -6.464   8.296  68.098  1.00  0.00    -0.056 A  
HETATM   28  C   UNL     1      -6.483   9.670  67.873  1.00  0.00    -0.061 A  
HETATM   29  C   UNL     1      -6.903  10.172  66.643  1.00  0.00    -0.084 A  
HETATM   30  C   UNL     1      -7.339   9.299  65.646  1.00  0.00    -0.093 A  
ENDBRANCH  24  25
ENDBRANCH  21  24
ENDBRANCH  20  21
ENDBRANCH  19  20
ENDBRANCH  18  19
ENDBRANCH  17  18
ENDBRANCH  16  17
ENDBRANCH  15  16
ENDBRANCH  12  15
ENDBRANCH   6   9
ENDBRANCH   5   6
ENDBRANCH   2   5
TORSDOF 12
ENDMDL
MODEL      168
REMARK 921   NORMALIZED FREE ENERGY PREDICTED BY IDOCK:   -4.12 KCAL/MOL
REMARK 922        TOTAL FREE ENERGY PREDICTED BY IDOCK:   -8.28 KCAL/MOL
REMARK 923 INTER-LIGAND FREE ENERGY PREDICTED BY IDOCK:   -7.59 KCAL/MOL
REMARK 924 INTRA-LIGAND FREE ENERGY PREDICTED BY IDOCK:   -0.69 KCAL/MOL
REMARK 927      BINDING AFFINITY PREDICTED BY RF-SCORE:    0.00 PKD
ROOT
HETATM    1  C   UNL     1     -10.791   6.545  67.117  1.00  0.00    -0.472 C  
HETATM    2  C   UNL     1     -10.109   6.762  68.474  1.00  0.00    -0.166 C  
HETATM    3  C   UNL     1     -10.537   8.112  69.065  1.00  0.00    -0.167 C  
HETATM    4  C   UNL     1     -10.660   5.665  69.425  1.00  0.00    -0.374 C  
ENDROOT
BRANCH   2   5
HETATM    5  C   UNL     1      -8.556   6.588  68.416  1.00  0.00    -0.119 C  
BRANCH   5   6
HETATM    6  C   UNL     1      -7.735   6.286  67.104  1.00  0.00    -0.097 C  
HETATM    7  C   UNL     1      -8.240   5.033  66.354  1.00  0.00    -0.108 C  
HETATM    8  C   UNL     1      -6.237   6.058  67.393  1.00  0.00    -0.033 C  
BRANCH   6   9
HETATM    9  C   UNL     1      -7.938   7.499  66.155  1.00  0.00    -0.111 A  
HETATM   10  C   UNL     1      -7.857   8.835  66.585  1.00  0.00    -0.100 A  
HETATM   11  C   UNL     1      -8.041   9.898  65.700  1.00  0.00    -0.128 A  
HETATM   12  C   UNL     1      -8.327   9.660  64.361  1.00  0.00    -0.168 A  
HETATM   13  C   UNL     1      -8.239   7.284  64.793  1.00  0.00    -0.055 A  
HETATM   14  C   UNL     1      -8.438   8.349  63.908  1.00  0.00     0.008 A  
BRANCH  12  15
HETATM   15  O   UNL     1      -8.513  10.787  63.608  1.00  0.00    -0.119 OA 
BRANCH  15  16
HETATM   16  C   UNL     1      -9.838  11.024  63.152  1.00  0.00    -0.363 C  
BRANCH  16  17
HETATM   17  C   UNL     1     -10.361  12.281  63.852  1.00  0.00    -0.429 C  
BRANCH  17  18
HETATM   18  O   UNL     1     -11.234  12.048  64.964  1.00  0.00    -0.315 OA 
BRANCH  18  19
HETATM   19  C   UNL     1     -10.647  12.049  66.261  1.00  0.00    -0.252 C  
BRANCH  19  20
HETATM   20  C   UNL     1     -11.702  12.227  67.361  1.00  0.00    -0.335 C  
BRANCH  20  21
HETATM   21  N   UNL     1     -11.220  12.942  68.632  1.00  0.00    -0.263 N  
HETATM   22  C   UNL     1     -11.161  11.883  69.739  1.00  0.00    -0.057 C  
HETATM   23  C   UNL     1      -9.812  13.490  68.429  1.00  0.00    -0.225 C  
BRANCH  21  24
HETATM   24  C   UNL     1     -12.217  14.064  69.030  1.00  0.00    -0.245 C  
BRANCH  24  25
HETATM   25  C   UNL     1     -12.288  14.367  70.502  1.00  0.00    -0.413 A  
HETATM   26  C   UNL     1     -13.275  13.763  71.297  1.00  0.00    -0.331 A  
HETATM   27  C   UNL     1     -13.446  14.151  72.624  1.00  0.00    -0.634 A  
HETATM   28  C   UNL     1     -12.623  15.128  73.175  1.00  0.00    -0.585 A  
HETATM   29  C   UNL     1     -11.601  15.693  72.416  1.00  0.00    -0.523 A  
HETATM   30  C   UNL     1     -11.423  15.305  71.088  1.00  0.00    -0.414 A  
ENDBRANCH  24  25
ENDBRANCH  21  24
ENDBRANCH  20  21
ENDBRANCH  19  20
ENDBRANCH  18  19
ENDBRANCH  17  18
ENDBRANCH  16  17
ENDBRANCH  15  16
ENDBRANCH  12  15
ENDBRANCH   6   9
ENDBRANCH   5   6
ENDBRANCH   2   5
TORSDOF 12
ENDMDL
MODEL      169
REMARK 921   NORMALIZED FREE ENERGY PREDICTED BY IDOCK:   -4.11 KCAL/MOL
REMARK 922        TOTAL FREE ENERGY PREDICTED BY IDOCK:   -8.27 KCAL/MOL
REMARK 923 INTER-LIGAND FREE ENERGY PREDICTED BY IDOCK:   -6.08 KCAL/MOL
REMARK 924 INTRA-LIGAND FREE ENERGY PREDICTED BY IDOCK:   -2.19 KCAL/MOL
REMARK 927      BINDING AFFINITY PREDICTED BY RF-SCORE:    0.00 PKD
ROOT
HETATM    1  C   UNL     1      -9.819  13.372  66.326  1.00  0.00    -0.295 C  
HETATM    2  C   UNL     1     -10.806  12.462  65.583  1.00  0.00    -0.312 C  
HETATM    3  C   UNL     1     -12.245  12.924  65.849  1.00  0.00    -0.469 C  
HETATM    4  C   UNL     1     -10.544  12.672  64.067  1.00  0.00    -0.457 C  
ENDROOT
BRANCH   2   5
HETATM    5  C   UNL     1     -10.589  10.943  65.885  1.00  0.00    -0.244 C  
BRANCH   5   6
HETATM    6  C   UNL     1      -9.204  10.197  65.786  1.00  0.00    -0.221 C  
HETATM    7  C   UNL     1      -8.186  10.677  66.845  1.00  0.00    -0.123 C  
HETATM    8  C   UNL     1      -8.535  10.387  64.409  1.00  0.00    -0.166 C  
BRANCH   6   9
HETATM    9  C   UNL     1      -9.479   8.694  66.066  1.00  0.00    -0.278 A  
HETATM   10  C   UNL     1      -8.670   7.658  65.566  1.00  0.00    -0.079 A  
HETATM   11  C   UNL     1      -8.948   6.319  65.845  1.00  0.00    -0.122 A  
HETATM   12  C   UNL     1     -10.049   5.972  66.618  1.00  0.00    -0.174 A  
HETATM   13  C   UNL     1     -10.595   8.315  66.840  1.00  0.00    -0.302 A  
HETATM   14  C   UNL     1     -10.882   6.972  67.108  1.00  0.00    -0.427 A  
BRANCH  12  15
HETATM   15  O   UNL     1     -10.224   4.626  66.791  1.00  0.00    -0.227 OA 
BRANCH  15  16
HETATM   16  C   UNL     1      -9.168   3.938  67.448  1.00  0.00    -0.172 C  
BRANCH  16  17
HETATM   17  C   UNL     1      -9.535   3.814  68.929  1.00  0.00    -0.153 C  
BRANCH  17  18
HETATM   18  O   UNL     1      -8.802   4.666  69.818  1.00  0.00    -0.085 OA 
BRANCH  18  19
HETATM   19  C   UNL     1      -9.283   4.777  71.153  1.00  0.00    -0.142 C  
BRANCH  19  20
HETATM   20  C   UNL     1     -10.376   5.848  71.275  1.00  0.00    -0.221 C  
BRANCH  20  21
HETATM   21  N   UNL     1      -9.893   7.241  71.705  1.00  0.00    -0.161 N  
HETATM   22  C   UNL     1     -10.920   7.773  72.713  1.00  0.00    -0.388 C  
HETATM   23  C   UNL     1      -8.547   7.140  72.413  1.00  0.00    -0.119 C  
BRANCH  21  24
HETATM   24  C   UNL     1      -9.822   8.189  70.478  1.00  0.00    -0.186 C  
BRANCH  24  25
HETATM   25  C   UNL     1      -8.433   8.546  70.021  1.00  0.00    -0.125 A  
HETATM   26  C   UNL     1      -7.734   7.684  69.162  1.00  0.00    -0.109 A  
HETATM   27  C   UNL     1      -6.397   7.926  68.856  1.00  0.00    -0.040 A  
HETATM   28  C   UNL     1      -5.752   9.040  69.385  1.00  0.00    -0.035 A  
HETATM   29  C   UNL     1      -6.451   9.936  70.191  1.00  0.00    -0.093 A  
HETATM   30  C   UNL     1      -7.791   9.700  70.497  1.00  0.00    -0.150 A  
ENDBRANCH  24  25
ENDBRANCH  21  24
ENDBRANCH  20  21
ENDBRANCH  19  20
ENDBRANCH  18  19
ENDBRANCH  17  18
ENDBRANCH  16  17
ENDBRANCH  15  16
ENDBRANCH  12  15
ENDBRANCH   6   9
ENDBRANCH   5   6
ENDBRANCH   2   5
TORSDOF 12
ENDMDL
MODEL      170
REMARK 921   NORMALIZED FREE ENERGY PREDICTED BY IDOCK:   -4.10 KCAL/MOL
REMARK 922        TOTAL FREE ENERGY PREDICTED BY IDOCK:   -8.25 KCAL/MOL
REMARK 923 INTER-LIGAND FREE ENERGY PREDICTED BY IDOCK:   -7.22 KCAL/MOL
REMARK 924 INTRA-LIGAND FREE ENERGY PREDICTED BY IDOCK:   -1.03 KCAL/MOL
REMARK 927      BINDING AFFINITY PREDICTED BY RF-SCORE:    0.00 PKD
ROOT
HETATM    1  C   UNL     1      -8.152  15.056  69.272  1.00  0.00    -0.178 C  
HETATM    2  C   UNL     1      -9.215  15.866  68.520  1.00  0.00    -0.200 C  
HETATM    3  C   UNL     1     -10.507  15.927  69.346  1.00  0.00    -0.265 C  
HETATM    4  C   UNL     1      -8.677  17.320  68.427  1.00  0.00    -0.261 C  
ENDROOT
BRANCH   2   5
HETATM    5  C   UNL     1      -9.450  15.364  67.058  1.00  0.00    -0.232 C  
BRANCH   5   6
HETATM    6  C   UNL     1     -10.668  14.475  66.598  1.00  0.00    -0.305 C  
HETATM    7  C   UNL     1     -10.850  14.452  65.064  1.00  0.00    -0.420 C  
HETATM    8  C   UNL     1     -12.004  14.959  67.198  1.00  0.00    -0.136 C  
BRANCH   6   9
HETATM    9  C   UNL     1     -10.357  13.019  67.042  1.00  0.00    -0.247 A  
HETATM   10  C   UNL     1      -9.068  12.459  66.995  1.00  0.00    -0.207 A  
HETATM   11  C   UNL     1      -8.828  11.147  67.408  1.00  0.00    -0.139 A  
HETATM   12  C   UNL     1      -9.869  10.349  67.865  1.00  0.00    -0.154 A  
HETATM   13  C   UNL     1     -11.398  12.185  67.501  1.00  0.00    -0.392 A  
HETATM   14  C   UNL     1     -11.161  10.865  67.901  1.00  0.00    -0.362 A  
BRANCH  12  15
HETATM   15  O   UNL     1      -9.504   9.077  68.211  1.00  0.00    -0.145 OA 
BRANCH  15  16
HETATM   16  C   UNL     1      -8.995   8.265  67.162  1.00  0.00    -0.138 C  
BRANCH  16  17
HETATM   17  C   UNL     1      -9.954   7.087  66.968  1.00  0.00    -0.210 C  
BRANCH  17  18
HETATM   18  O   UNL     1      -9.346   5.790  66.984  1.00  0.00    -0.116 OA 
BRANCH  18  19
HETATM   19  C   UNL     1      -9.925   4.813  67.843  1.00  0.00    -0.102 C  
BRANCH  19  20
HETATM   20  C   UNL     1     -10.477   5.445  69.128  1.00  0.00    -0.207 C  
BRANCH  20  21
HETATM   21  N   UNL     1      -9.705   5.112  70.413  1.00  0.00    -0.185 N  
HETATM   22  C   UNL     1      -9.620   3.583  70.494  1.00  0.00    -0.176 C  
HETATM   23  C   UNL     1      -8.285   5.660  70.335  1.00  0.00    -0.105 C  
BRANCH  21  24
HETATM   24  C   UNL     1     -10.461   5.662  71.653  1.00  0.00    -0.228 C  
BRANCH  24  25
HETATM   25  C   UNL     1     -11.012   7.054  71.505  1.00  0.00    -0.260 A  
HETATM   26  C   UNL     1     -10.138   8.150  71.427  1.00  0.00    -0.248 A  
HETATM   27  C   UNL     1     -10.636   9.451  71.443  1.00  0.00    -0.381 A  
HETATM   28  C   UNL     1     -12.009   9.670  71.517  1.00  0.00    -0.485 A  
HETATM   29  C   UNL     1     -12.890   8.591  71.535  1.00  0.00    -0.335 A  
HETATM   30  C   UNL     1     -12.395   7.287  71.514  1.00  0.00    -0.397 A  
ENDBRANCH  24  25
ENDBRANCH  21  24
ENDBRANCH  20  21
ENDBRANCH  19  20
ENDBRANCH  18  19
ENDBRANCH  17  18
ENDBRANCH  16  17
ENDBRANCH  15  16
ENDBRANCH  12  15
ENDBRANCH   6   9
ENDBRANCH   5   6
ENDBRANCH   2   5
TORSDOF 12
ENDMDL
MODEL      171
REMARK 921   NORMALIZED FREE ENERGY PREDICTED BY IDOCK:   -4.10 KCAL/MOL
REMARK 922        TOTAL FREE ENERGY PREDICTED BY IDOCK:   -8.24 KCAL/MOL
REMARK 923 INTER-LIGAND FREE ENERGY PREDICTED BY IDOCK:   -8.01 KCAL/MOL
REMARK 924 INTRA-LIGAND FREE ENERGY PREDICTED BY IDOCK:   -0.23 KCAL/MOL
REMARK 927      BINDING AFFINITY PREDICTED BY RF-SCORE:    0.00 PKD
ROOT
HETATM    1  C   UNL     1      -8.799   4.640  68.290  1.00  0.00    -0.122 C  
HETATM    2  C   UNL     1      -9.005   3.478  69.270  1.00  0.00    -0.179 C  
HETATM    3  C   UNL     1      -9.511   2.241  68.516  1.00  0.00    -0.213 C  
HETATM    4  C   UNL     1      -7.602   3.117  69.827  1.00  0.00    -0.044 C  
ENDROOT
BRANCH   2   5
HETATM    5  C   UNL     1      -9.906   3.856  70.491  1.00  0.00    -0.180 C  
BRANCH   5   6
HETATM    6  C   UNL     1      -9.494   4.862  71.634  1.00  0.00    -0.204 C  
HETATM    7  C   UNL     1      -8.111   5.508  71.395  1.00  0.00    -0.117 C  
HETATM    8  C   UNL     1      -9.434   4.181  73.017  1.00  0.00    -0.143 C  
BRANCH   6   9
HETATM    9  C   UNL     1     -10.541   6.010  71.625  1.00  0.00    -0.286 A  
HETATM   10  C   UNL     1     -11.379   6.279  70.528  1.00  0.00    -0.428 A  
HETATM   11  C   UNL     1     -12.311   7.317  70.561  1.00  0.00    -0.055 A  
HETATM   12  C   UNL     1     -12.425   8.128  71.684  1.00  0.00    -0.319 A  
HETATM   13  C   UNL     1     -10.670   6.853  72.748  1.00  0.00    -0.286 A  
HETATM   14  C   UNL     1     -11.595   7.903  72.777  1.00  0.00    -0.387 A  
BRANCH  12  15
HETATM   15  O   UNL     1     -13.356   9.125  71.575  1.00  0.00    -0.351 OA 
BRANCH  15  16
HETATM   16  C   UNL     1     -12.853  10.454  71.582  1.00  0.00    -0.474 C  
BRANCH  16  17
HETATM   17  C   UNL     1     -12.582  10.864  70.133  1.00  0.00    -0.234 C  
BRANCH  17  18
HETATM   18  O   UNL     1     -11.449  11.720  69.937  1.00  0.00    -0.272 OA 
BRANCH  18  19
HETATM   19  C   UNL     1     -10.510  11.334  68.940  1.00  0.00    -0.206 C  
BRANCH  19  20
HETATM   20  C   UNL     1     -11.177  11.162  67.568  1.00  0.00    -0.301 C  
BRANCH  20  21
HETATM   21  N   UNL     1     -10.929  12.299  66.565  1.00  0.00    -0.266 N  
HETATM   22  C   UNL     1      -9.536  12.862  66.871  1.00  0.00    -0.237 C  
HETATM   23  C   UNL     1     -10.915  11.755  65.141  1.00  0.00    -0.294 C  
BRANCH  21  24
HETATM   24  C   UNL     1     -11.996  13.413  66.740  1.00  0.00    -0.394 C  
BRANCH  24  25
HETATM   25  C   UNL     1     -11.451  14.810  66.872  1.00  0.00    -0.354 A  
HETATM   26  C   UNL     1     -10.965  15.483  65.740  1.00  0.00    -0.285 A  
HETATM   27  C   UNL     1     -10.320  16.711  65.874  1.00  0.00    -0.355 A  
HETATM   28  C   UNL     1     -10.173  17.287  67.133  1.00  0.00    -0.319 A  
HETATM   29  C   UNL     1     -10.703  16.657  68.257  1.00  0.00    -0.351 A  
HETATM   30  C   UNL     1     -11.353  15.430  68.127  1.00  0.00    -0.353 A  
ENDBRANCH  24  25
ENDBRANCH  21  24
ENDBRANCH  20  21
ENDBRANCH  19  20
ENDBRANCH  18  19
ENDBRANCH  17  18
ENDBRANCH  16  17
ENDBRANCH  15  16
ENDBRANCH  12  15
ENDBRANCH   6   9
ENDBRANCH   5   6
ENDBRANCH   2   5
TORSDOF 12
ENDMDL
MODEL      172
REMARK 921   NORMALIZED FREE ENERGY PREDICTED BY IDOCK:   -4.09 KCAL/MOL
REMARK 922        TOTAL FREE ENERGY PREDICTED BY IDOCK:   -8.23 KCAL/MOL
REMARK 923 INTER-LIGAND FREE ENERGY PREDICTED BY IDOCK:   -5.97 KCAL/MOL
REMARK 924 INTRA-LIGAND FREE ENERGY PREDICTED BY IDOCK:   -2.26 KCAL/MOL
REMARK 927      BINDING AFFINITY PREDICTED BY RF-SCORE:    0.00 PKD
ROOT
HETATM    1  C   UNL     1      -6.081   4.152  65.453  1.00  0.00    -0.024 C  
HETATM    2  C   UNL     1      -7.320   3.280  65.694  1.00  0.00    -0.072 C  
HETATM    3  C   UNL     1      -8.030   3.000  64.362  1.00  0.00    -0.082 C  
HETATM    4  C   UNL     1      -6.802   1.914  66.219  1.00  0.00    -0.042 C  
ENDROOT
BRANCH   2   5
HETATM    5  C   UNL     1      -8.279   3.863  66.783  1.00  0.00    -0.100 C  
BRANCH   5   6
HETATM    6  C   UNL     1      -9.347   4.994  66.528  1.00  0.00    -0.141 C  
HETATM    7  C   UNL     1     -10.584   4.488  65.753  1.00  0.00    -0.226 C  
HETATM    8  C   UNL     1      -8.767   6.172  65.718  1.00  0.00    -0.151 C  
BRANCH   6   9
HETATM    9  C   UNL     1      -9.844   5.469  67.920  1.00  0.00    -0.169 A  
HETATM   10  C   UNL     1      -9.189   5.148  69.122  1.00  0.00    -0.150 A  
HETATM   11  C   UNL     1      -9.665   5.599  70.354  1.00  0.00    -0.233 A  
HETATM   12  C   UNL     1     -10.818   6.371  70.426  1.00  0.00    -0.286 A  
HETATM   13  C   UNL     1     -11.017   6.247  68.021  1.00  0.00    -0.418 A  
HETATM   14  C   UNL     1     -11.503   6.688  69.258  1.00  0.00    -0.253 A  
BRANCH  12  15
HETATM   15  O   UNL     1     -11.191   6.723  71.695  1.00  0.00    -0.238 OA 
BRANCH  15  16
HETATM   16  C   UNL     1     -10.877   8.050  72.094  1.00  0.00    -0.279 C  
BRANCH  16  17
HETATM   17  C   UNL     1     -12.166   8.875  72.049  1.00  0.00    -0.377 C  
BRANCH  17  18
HETATM   18  O   UNL     1     -12.030  10.202  71.526  1.00  0.00    -0.374 OA 
BRANCH  18  19
HETATM   19  C   UNL     1     -11.162  10.374  70.411  1.00  0.00    -0.321 C  
BRANCH  19  20
HETATM   20  C   UNL     1     -11.799  11.254  69.327  1.00  0.00    -0.354 C  
BRANCH  20  21
HETATM   21  N   UNL     1     -10.950  11.471  68.066  1.00  0.00    -0.215 N  
HETATM   22  C   UNL     1     -11.699  12.489  67.198  1.00  0.00    -0.355 C  
HETATM   23  C   UNL     1      -9.598  12.071  68.435  1.00  0.00    -0.190 C  
BRANCH  21  24
HETATM   24  C   UNL     1     -10.788  10.137  67.289  1.00  0.00    -0.230 C  
BRANCH  24  25
HETATM   25  C   UNL     1      -9.374   9.643  67.147  1.00  0.00    -0.168 A  
HETATM   26  C   UNL     1      -8.754   8.974  68.214  1.00  0.00    -0.130 A  
HETATM   27  C   UNL     1      -7.401   8.649  68.151  1.00  0.00    -0.091 A  
HETATM   28  C   UNL     1      -6.660   8.968  67.016  1.00  0.00    -0.061 A  
HETATM   29  C   UNL     1      -7.277   9.577  65.926  1.00  0.00    -0.096 A  
HETATM   30  C   UNL     1      -8.632   9.901  65.984  1.00  0.00    -0.147 A  
ENDBRANCH  24  25
ENDBRANCH  21  24
ENDBRANCH  20  21
ENDBRANCH  19  20
ENDBRANCH  18  19
ENDBRANCH  17  18
ENDBRANCH  16  17
ENDBRANCH  15  16
ENDBRANCH  12  15
ENDBRANCH   6   9
ENDBRANCH   5   6
ENDBRANCH   2   5
TORSDOF 12
ENDMDL
MODEL      173
REMARK 921   NORMALIZED FREE ENERGY PREDICTED BY IDOCK:   -4.09 KCAL/MOL
REMARK 922        TOTAL FREE ENERGY PREDICTED BY IDOCK:   -8.23 KCAL/MOL
REMARK 923 INTER-LIGAND FREE ENERGY PREDICTED BY IDOCK:   -7.49 KCAL/MOL
REMARK 924 INTRA-LIGAND FREE ENERGY PREDICTED BY IDOCK:   -0.74 KCAL/MOL
REMARK 927      BINDING AFFINITY PREDICTED BY RF-SCORE:    0.00 PKD
ROOT
HETATM    1  C   UNL     1     -11.939   6.659  71.036  1.00  0.00    -0.415 C  
HETATM    2  C   UNL     1     -11.619   8.059  71.577  1.00  0.00    -0.313 C  
HETATM    3  C   UNL     1     -12.881   8.682  72.190  1.00  0.00    -0.442 C  
HETATM    4  C   UNL     1     -10.609   7.862  72.740  1.00  0.00    -0.418 C  
ENDROOT
BRANCH   2   5
HETATM    5  C   UNL     1     -10.935   8.985  70.520  1.00  0.00    -0.295 C  
BRANCH   5   6
HETATM    6  C   UNL     1      -9.483   8.771  69.945  1.00  0.00    -0.174 C  
HETATM    7  C   UNL     1      -9.097   7.280  69.826  1.00  0.00    -0.141 C  
HETATM    8  C   UNL     1      -8.404   9.442  70.820  1.00  0.00    -0.180 C  
BRANCH   6   9
HETATM    9  C   UNL     1      -9.475   9.360  68.507  1.00  0.00    -0.150 A  
HETATM   10  C   UNL     1      -8.718  10.488  68.142  1.00  0.00    -0.130 A  
HETATM   11  C   UNL     1      -8.734  10.983  66.837  1.00  0.00    -0.148 A  
HETATM   12  C   UNL     1      -9.516  10.378  65.861  1.00  0.00    -0.189 A  
HETATM   13  C   UNL     1     -10.267   8.770  67.500  1.00  0.00    -0.309 A  
HETATM   14  C   UNL     1     -10.294   9.275  66.195  1.00  0.00    -0.118 A  
BRANCH  12  15
HETATM   15  O   UNL     1      -9.463  10.979  64.633  1.00  0.00    -0.219 OA 
BRANCH  15  16
HETATM   16  C   UNL     1     -10.698  11.101  63.942  1.00  0.00    -0.337 C  
BRANCH  16  17
HETATM   17  C   UNL     1     -10.919  12.583  63.626  1.00  0.00    -0.456 C  
BRANCH  17  18
HETATM   18  O   UNL     1     -10.377  13.503  64.581  1.00  0.00    -0.408 OA 
BRANCH  18  19
HETATM   19  C   UNL     1     -11.303  14.313  65.299  1.00  0.00    -0.336 C  
BRANCH  19  20
HETATM   20  C   UNL     1     -10.596  15.210  66.323  1.00  0.00    -0.310 C  
BRANCH  20  21
HETATM   21  N   UNL     1     -10.999  14.988  67.788  1.00  0.00    -0.288 N  
HETATM   22  C   UNL     1     -11.385  16.361  68.353  1.00  0.00    -0.268 C  
HETATM   23  C   UNL     1     -12.224  14.084  67.869  1.00  0.00    -0.153 C  
BRANCH  21  24
HETATM   24  C   UNL     1      -9.806  14.405  68.593  1.00  0.00    -0.231 C  
BRANCH  24  25
HETATM   25  C   UNL     1      -8.494  15.116  68.401  1.00  0.00    -0.157 A  
HETATM   26  C   UNL     1      -7.389  14.423  67.882  1.00  0.00    -0.163 A  
HETATM   27  C   UNL     1      -6.134  15.025  67.844  1.00  0.00    -0.170 A  
HETATM   28  C   UNL     1      -5.973  16.330  68.302  1.00  0.00    -0.110 A  
HETATM   29  C   UNL     1      -7.072  17.050  68.764  1.00  0.00    -0.219 A  
HETATM   30  C   UNL     1      -8.332  16.452  68.801  1.00  0.00    -0.242 A  
ENDBRANCH  24  25
ENDBRANCH  21  24
ENDBRANCH  20  21
ENDBRANCH  19  20
ENDBRANCH  18  19
ENDBRANCH  17  18
ENDBRANCH  16  17
ENDBRANCH  15  16
ENDBRANCH  12  15
ENDBRANCH   6   9
ENDBRANCH   5   6
ENDBRANCH   2   5
TORSDOF 12
ENDMDL
MODEL      174
REMARK 921   NORMALIZED FREE ENERGY PREDICTED BY IDOCK:   -4.06 KCAL/MOL
REMARK 922        TOTAL FREE ENERGY PREDICTED BY IDOCK:   -8.17 KCAL/MOL
REMARK 923 INTER-LIGAND FREE ENERGY PREDICTED BY IDOCK:   -7.51 KCAL/MOL
REMARK 924 INTRA-LIGAND FREE ENERGY PREDICTED BY IDOCK:   -0.67 KCAL/MOL
REMARK 927      BINDING AFFINITY PREDICTED BY RF-SCORE:    0.00 PKD
ROOT
HETATM    1  C   UNL     1     -11.763   6.582  70.536  1.00  0.00    -0.438 C  
HETATM    2  C   UNL     1     -10.725   6.207  71.602  1.00  0.00    -0.294 C  
HETATM    3  C   UNL     1     -10.151   7.478  72.243  1.00  0.00    -0.244 C  
HETATM    4  C   UNL     1     -11.493   5.451  72.719  1.00  0.00    -0.333 C  
ENDROOT
BRANCH   2   5
HETATM    5  C   UNL     1      -9.617   5.242  71.067  1.00  0.00    -0.227 C  
BRANCH   5   6
HETATM    6  C   UNL     1      -8.245   5.708  70.443  1.00  0.00    -0.105 C  
HETATM    7  C   UNL     1      -7.338   4.525  70.036  1.00  0.00    -0.053 C  
HETATM    8  C   UNL     1      -7.428   6.581  71.417  1.00  0.00    -0.089 C  
BRANCH   6   9
HETATM    9  C   UNL     1      -8.582   6.492  69.145  1.00  0.00    -0.129 A  
HETATM   10  C   UNL     1      -8.324   7.865  68.987  1.00  0.00    -0.130 A  
HETATM   11  C   UNL     1      -8.636   8.533  67.801  1.00  0.00    -0.134 A  
HETATM   12  C   UNL     1      -9.230   7.854  66.744  1.00  0.00    -0.166 A  
HETATM   13  C   UNL     1      -9.194   5.828  68.061  1.00  0.00    -0.109 A  
HETATM   14  C   UNL     1      -9.520   6.500  66.877  1.00  0.00    -0.178 A  
BRANCH  12  15
HETATM   15  O   UNL     1      -9.510   8.631  65.653  1.00  0.00    -0.170 OA 
BRANCH  15  16
HETATM   16  C   UNL     1      -8.497   9.546  65.260  1.00  0.00    -0.148 C  
BRANCH  16  17
HETATM   17  C   UNL     1      -9.132  10.586  64.334  1.00  0.00    -0.225 C  
BRANCH  17  18
HETATM   18  O   UNL     1     -10.495  10.920  64.626  1.00  0.00    -0.337 OA 
BRANCH  18  19
HETATM   19  C   UNL     1     -10.784  12.288  64.891  1.00  0.00    -0.297 C  
BRANCH  19  20
HETATM   20  C   UNL     1     -10.154  12.757  66.209  1.00  0.00    -0.259 C  
BRANCH  20  21
HETATM   21  N   UNL     1     -11.137  13.000  67.364  1.00  0.00    -0.263 N  
HETATM   22  C   UNL     1     -12.219  13.948  66.830  1.00  0.00    -0.399 C  
HETATM   23  C   UNL     1     -11.813  11.695  67.768  1.00  0.00    -0.176 C  
BRANCH  21  24
HETATM   24  C   UNL     1     -10.407  13.660  68.564  1.00  0.00    -0.243 C  
BRANCH  24  25
HETATM   25  C   UNL     1     -11.305  14.248  69.618  1.00  0.00    -0.292 A  
HETATM   26  C   UNL     1     -11.124  15.577  70.033  1.00  0.00    -0.326 A  
HETATM   27  C   UNL     1     -11.847  16.083  71.112  1.00  0.00    -0.465 A  
HETATM   28  C   UNL     1     -12.769  15.276  71.772  1.00  0.00    -0.444 A  
HETATM   29  C   UNL     1     -13.002  13.975  71.332  1.00  0.00    -0.427 A  
HETATM   30  C   UNL     1     -12.284  13.466  70.251  1.00  0.00    -0.405 A  
ENDBRANCH  24  25
ENDBRANCH  21  24
ENDBRANCH  20  21
ENDBRANCH  19  20
ENDBRANCH  18  19
ENDBRANCH  17  18
ENDBRANCH  16  17
ENDBRANCH  15  16
ENDBRANCH  12  15
ENDBRANCH   6   9
ENDBRANCH   5   6
ENDBRANCH   2   5
TORSDOF 12
ENDMDL
MODEL      175
REMARK 921   NORMALIZED FREE ENERGY PREDICTED BY IDOCK:   -4.06 KCAL/MOL
REMARK 922        TOTAL FREE ENERGY PREDICTED BY IDOCK:   -8.17 KCAL/MOL
REMARK 923 INTER-LIGAND FREE ENERGY PREDICTED BY IDOCK:   -6.46 KCAL/MOL
REMARK 924 INTRA-LIGAND FREE ENERGY PREDICTED BY IDOCK:   -1.72 KCAL/MOL
REMARK 927      BINDING AFFINITY PREDICTED BY RF-SCORE:    0.00 PKD
ROOT
HETATM    1  C   UNL     1     -10.090  10.005  69.379  1.00  0.00    -0.235 C  
HETATM    2  C   UNL     1      -9.862   8.595  68.818  1.00  0.00    -0.180 C  
HETATM    3  C   UNL     1     -10.641   7.568  69.652  1.00  0.00    -0.243 C  
HETATM    4  C   UNL     1     -10.486   8.580  67.396  1.00  0.00    -0.351 C  
ENDROOT
BRANCH   2   5
HETATM    5  C   UNL     1      -8.349   8.232  68.664  1.00  0.00    -0.125 C  
BRANCH   5   6
HETATM    6  C   UNL     1      -7.191   8.809  69.566  1.00  0.00    -0.059 C  
HETATM    7  C   UNL     1      -5.925   7.924  69.556  1.00  0.00    -0.033 C  
HETATM    8  C   UNL     1      -7.619   8.957  71.041  1.00  0.00    -0.136 C  
BRANCH   6   9
HETATM    9  C   UNL     1      -6.791  10.184  68.964  1.00  0.00    -0.056 A  
HETATM   10  C   UNL     1      -6.368  11.273  69.746  1.00  0.00    -0.137 A  
HETATM   11  C   UNL     1      -6.011  12.491  69.166  1.00  0.00    -0.085 A  
HETATM   12  C   UNL     1      -6.082  12.666  67.790  1.00  0.00    -0.127 A  
HETATM   13  C   UNL     1      -6.863  10.390  67.570  1.00  0.00    -0.075 A  
HETATM   14  C   UNL     1      -6.519  11.616  66.989  1.00  0.00    -0.148 A  
BRANCH  12  15
HETATM   15  O   UNL     1      -5.733  13.915  67.354  1.00  0.00    -0.352 OA 
BRANCH  15  16
HETATM   16  C   UNL     1      -5.658  14.926  68.349  1.00  0.00    -0.109 C  
BRANCH  16  17
HETATM   17  C   UNL     1      -6.507  16.111  67.884  1.00  0.00    -0.142 C  
BRANCH  17  18
HETATM   18  O   UNL     1      -7.469  15.817  66.863  1.00  0.00    -0.216 OA 
BRANCH  18  19
HETATM   19  C   UNL     1      -8.843  15.971  67.203  1.00  0.00    -0.204 C  
BRANCH  19  20
HETATM   20  C   UNL     1      -9.740  15.039  66.375  1.00  0.00    -0.283 C  
BRANCH  20  21
HETATM   21  N   UNL     1     -10.265  13.799  67.113  1.00  0.00    -0.242 N  
HETATM   22  C   UNL     1     -10.075  12.608  66.165  1.00  0.00    -0.257 C  
HETATM   23  C   UNL     1      -9.439  13.539  68.367  1.00  0.00    -0.185 C  
BRANCH  21  24
HETATM   24  C   UNL     1     -11.772  13.969  67.446  1.00  0.00    -0.388 C  
BRANCH  24  25
HETATM   25  C   UNL     1     -12.090  14.149  68.906  1.00  0.00    -0.339 A  
HETATM   26  C   UNL     1     -12.026  15.425  69.486  1.00  0.00    -0.358 A  
HETATM   27  C   UNL     1     -12.169  15.582  70.863  1.00  0.00    -0.450 A  
HETATM   28  C   UNL     1     -12.398  14.471  71.670  1.00  0.00    -0.420 A  
HETATM   29  C   UNL     1     -12.523  13.206  71.100  1.00  0.00    -0.378 A  
HETATM   30  C   UNL     1     -12.385  13.045  69.722  1.00  0.00    -0.141 A  
ENDBRANCH  24  25
ENDBRANCH  21  24
ENDBRANCH  20  21
ENDBRANCH  19  20
ENDBRANCH  18  19
ENDBRANCH  17  18
ENDBRANCH  16  17
ENDBRANCH  15  16
ENDBRANCH  12  15
ENDBRANCH   6   9
ENDBRANCH   5   6
ENDBRANCH   2   5
TORSDOF 12
ENDMDL
MODEL      176
REMARK 921   NORMALIZED FREE ENERGY PREDICTED BY IDOCK:   -4.06 KCAL/MOL
REMARK 922        TOTAL FREE ENERGY PREDICTED BY IDOCK:   -8.17 KCAL/MOL
REMARK 923 INTER-LIGAND FREE ENERGY PREDICTED BY IDOCK:   -7.82 KCAL/MOL
REMARK 924 INTRA-LIGAND FREE ENERGY PREDICTED BY IDOCK:   -0.34 KCAL/MOL
REMARK 927      BINDING AFFINITY PREDICTED BY RF-SCORE:    0.00 PKD
ROOT
HETATM    1  C   UNL     1      -6.162   4.172  65.271  1.00  0.00    -0.027 C  
HETATM    2  C   UNL     1      -7.334   3.262  65.663  1.00  0.00    -0.072 C  
HETATM    3  C   UNL     1      -8.145   2.888  64.415  1.00  0.00    -0.082 C  
HETATM    4  C   UNL     1      -6.709   1.946  66.200  1.00  0.00    -0.031 C  
ENDROOT
BRANCH   2   5
HETATM    5  C   UNL     1      -8.218   3.857  66.807  1.00  0.00    -0.100 C  
BRANCH   5   6
HETATM    6  C   UNL     1      -9.298   4.989  66.611  1.00  0.00    -0.138 C  
HETATM    7  C   UNL     1     -10.490   4.537  65.739  1.00  0.00    -0.268 C  
HETATM    8  C   UNL     1      -8.710   6.248  65.943  1.00  0.00    -0.154 C  
BRANCH   6   9
HETATM    9  C   UNL     1      -9.864   5.322  68.019  1.00  0.00    -0.193 A  
HETATM   10  C   UNL     1      -9.325   4.801  69.208  1.00  0.00    -0.196 A  
HETATM   11  C   UNL     1      -9.859   5.129  70.456  1.00  0.00    -0.285 A  
HETATM   12  C   UNL     1     -10.958   5.974  70.553  1.00  0.00    -0.319 A  
HETATM   13  C   UNL     1     -10.985   6.170  68.145  1.00  0.00    -0.398 A  
HETATM   14  C   UNL     1     -11.530   6.488  69.394  1.00  0.00    -0.346 A  
BRANCH  12  15
HETATM   15  O   UNL     1     -11.400   6.190  71.830  1.00  0.00    -0.275 OA 
BRANCH  15  16
HETATM   16  C   UNL     1     -10.994   7.411  72.433  1.00  0.00    -0.275 C  
BRANCH  16  17
HETATM   17  C   UNL     1     -11.941   8.514  71.951  1.00  0.00    -0.345 C  
BRANCH  17  18
HETATM   18  O   UNL     1     -11.305   9.701  71.462  1.00  0.00    -0.381 OA 
BRANCH  18  19
HETATM   19  C   UNL     1     -10.439   9.557  70.341  1.00  0.00    -0.278 C  
BRANCH  19  20
HETATM   20  C   UNL     1     -11.003  10.254  69.095  1.00  0.00    -0.238 C  
BRANCH  20  21
HETATM   21  N   UNL     1     -10.020  10.417  67.927  1.00  0.00    -0.163 N  
HETATM   22  C   UNL     1      -8.628  10.067  68.468  1.00  0.00    -0.119 C  
HETATM   23  C   UNL     1     -10.354   9.432  66.812  1.00  0.00    -0.233 C  
BRANCH  21  24
HETATM   24  C   UNL     1     -10.030  11.883  67.415  1.00  0.00    -0.190 C  
BRANCH  24  25
HETATM   25  C   UNL     1     -10.681  12.091  66.074  1.00  0.00    -0.317 A  
HETATM   26  C   UNL     1     -11.994  12.582  66.000  1.00  0.00    -0.456 A  
HETATM   27  C   UNL     1     -12.658  12.634  64.777  1.00  0.00    -0.530 A  
HETATM   28  C   UNL     1     -12.014  12.217  63.616  1.00  0.00    -0.633 A  
HETATM   29  C   UNL     1     -10.691  11.784  63.667  1.00  0.00    -0.503 A  
HETATM   30  C   UNL     1     -10.020  11.734  64.889  1.00  0.00    -0.280 A  
ENDBRANCH  24  25
ENDBRANCH  21  24
ENDBRANCH  20  21
ENDBRANCH  19  20
ENDBRANCH  18  19
ENDBRANCH  17  18
ENDBRANCH  16  17
ENDBRANCH  15  16
ENDBRANCH  12  15
ENDBRANCH   6   9
ENDBRANCH   5   6
ENDBRANCH   2   5
TORSDOF 12
ENDMDL
MODEL      177
REMARK 921   NORMALIZED FREE ENERGY PREDICTED BY IDOCK:   -4.05 KCAL/MOL
REMARK 922        TOTAL FREE ENERGY PREDICTED BY IDOCK:   -8.16 KCAL/MOL
REMARK 923 INTER-LIGAND FREE ENERGY PREDICTED BY IDOCK:   -6.83 KCAL/MOL
REMARK 924 INTRA-LIGAND FREE ENERGY PREDICTED BY IDOCK:   -1.33 KCAL/MOL
REMARK 927      BINDING AFFINITY PREDICTED BY RF-SCORE:    0.00 PKD
ROOT
HETATM    1  C   UNL     1      -9.471  14.668  68.807  1.00  0.00    -0.199 C  
HETATM    2  C   UNL     1     -10.766  14.569  67.989  1.00  0.00    -0.243 C  
HETATM    3  C   UNL     1     -11.707  13.536  68.623  1.00  0.00    -0.389 C  
HETATM    4  C   UNL     1     -11.470  15.948  68.111  1.00  0.00    -0.281 C  
ENDROOT
BRANCH   2   5
HETATM    5  C   UNL     1     -10.513  14.310  66.468  1.00  0.00    -0.287 C  
BRANCH   5   6
HETATM    6  C   UNL     1     -10.707  12.920  65.750  1.00  0.00    -0.293 C  
HETATM    7  C   UNL     1     -10.309  12.955  64.257  1.00  0.00    -0.396 C  
HETATM    8  C   UNL     1     -12.169  12.432  65.808  1.00  0.00    -0.277 C  
BRANCH   6   9
HETATM    9  C   UNL     1      -9.758  11.912  66.452  1.00  0.00    -0.238 A  
HETATM   10  C   UNL     1      -8.402  12.182  66.708  1.00  0.00    -0.111 A  
HETATM   11  C   UNL     1      -7.581  11.251  67.347  1.00  0.00    -0.120 A  
HETATM   12  C   UNL     1      -8.085  10.016  67.736  1.00  0.00    -0.109 A  
HETATM   13  C   UNL     1     -10.242  10.647  66.849  1.00  0.00    -0.272 A  
HETATM   14  C   UNL     1      -9.416   9.708  67.477  1.00  0.00    -0.157 A  
BRANCH  12  15
HETATM   15  O   UNL     1      -7.170   9.186  68.325  1.00  0.00    -0.076 OA 
BRANCH  15  16
HETATM   16  C   UNL     1      -7.232   7.818  67.947  1.00  0.00    -0.090 C  
BRANCH  16  17
HETATM   17  C   UNL     1      -7.039   6.970  69.207  1.00  0.00    -0.083 C  
BRANCH  17  18
HETATM   18  O   UNL     1      -6.808   7.705  70.414  1.00  0.00    -0.046 OA 
BRANCH  18  19
HETATM   19  C   UNL     1      -7.788   7.592  71.440  1.00  0.00    -0.093 C  
BRANCH  19  20
HETATM   20  C   UNL     1      -9.184   7.985  70.937  1.00  0.00    -0.149 C  
BRANCH  20  21
HETATM   21  N   UNL     1     -10.331   7.781  71.938  1.00  0.00    -0.201 N  
HETATM   22  C   UNL     1      -9.683   7.512  73.302  1.00  0.00    -0.272 C  
HETATM   23  C   UNL     1     -11.165   9.051  72.055  1.00  0.00    -0.309 C  
BRANCH  21  24
HETATM   24  C   UNL     1     -11.199   6.564  71.520  1.00  0.00    -0.276 C  
BRANCH  24  25
HETATM   25  C   UNL     1     -10.870   5.969  70.178  1.00  0.00    -0.409 A  
HETATM   26  C   UNL     1     -10.058   4.827  70.096  1.00  0.00    -0.310 A  
HETATM   27  C   UNL     1      -9.623   4.359  68.859  1.00  0.00    -0.233 A  
HETATM   28  C   UNL     1     -10.008   5.013  67.692  1.00  0.00    -0.202 A  
HETATM   29  C   UNL     1     -10.862   6.112  67.755  1.00  0.00    -0.413 A  
HETATM   30  C   UNL     1     -11.304   6.581  68.992  1.00  0.00    -0.296 A  
ENDBRANCH  24  25
ENDBRANCH  21  24
ENDBRANCH  20  21
ENDBRANCH  19  20
ENDBRANCH  18  19
ENDBRANCH  17  18
ENDBRANCH  16  17
ENDBRANCH  15  16
ENDBRANCH  12  15
ENDBRANCH   6   9
ENDBRANCH   5   6
ENDBRANCH   2   5
TORSDOF 12
ENDMDL
MODEL      178
REMARK 921   NORMALIZED FREE ENERGY PREDICTED BY IDOCK:   -4.05 KCAL/MOL
REMARK 922        TOTAL FREE ENERGY PREDICTED BY IDOCK:   -8.15 KCAL/MOL
REMARK 923 INTER-LIGAND FREE ENERGY PREDICTED BY IDOCK:   -6.22 KCAL/MOL
REMARK 924 INTRA-LIGAND FREE ENERGY PREDICTED BY IDOCK:   -1.93 KCAL/MOL
REMARK 927      BINDING AFFINITY PREDICTED BY RF-SCORE:    0.00 PKD
ROOT
HETATM    1  C   UNL     1      -9.623   8.856  66.037  1.00  0.00    -0.320 C  
HETATM    2  C   UNL     1      -8.148   8.590  66.363  1.00  0.00    -0.103 C  
HETATM    3  C   UNL     1      -8.038   7.464  67.401  1.00  0.00    -0.113 C  
HETATM    4  C   UNL     1      -7.497   8.058  65.058  1.00  0.00    -0.087 C  
ENDROOT
BRANCH   2   5
HETATM    5  C   UNL     1      -7.368   9.879  66.779  1.00  0.00    -0.095 C  
BRANCH   5   6
HETATM    6  C   UNL     1      -6.686  10.103  68.183  1.00  0.00    -0.062 C  
HETATM    7  C   UNL     1      -5.249   9.539  68.249  1.00  0.00    -0.033 C  
HETATM    8  C   UNL     1      -7.477   9.439  69.329  1.00  0.00    -0.076 C  
BRANCH   6   9
HETATM    9  C   UNL     1      -6.584  11.638  68.397  1.00  0.00    -0.061 A  
HETATM   10  C   UNL     1      -6.734  12.571  67.355  1.00  0.00    -0.147 A  
HETATM   11  C   UNL     1      -6.640  13.944  67.589  1.00  0.00    -0.178 A  
HETATM   12  C   UNL     1      -6.378  14.427  68.865  1.00  0.00    -0.091 A  
HETATM   13  C   UNL     1      -6.309  12.154  69.681  1.00  0.00    -0.115 A  
HETATM   14  C   UNL     1      -6.201  13.530  69.913  1.00  0.00    -0.108 A  
BRANCH  12  15
HETATM   15  O   UNL     1      -6.283  15.789  68.952  1.00  0.00    -0.109 OA 
BRANCH  15  16
HETATM   16  C   UNL     1      -6.726  16.520  67.817  1.00  0.00    -0.139 C  
BRANCH  16  17
HETATM   17  C   UNL     1      -7.972  17.313  68.222  1.00  0.00    -0.244 C  
BRANCH  17  18
HETATM   18  O   UNL     1      -9.045  17.301  67.273  1.00  0.00    -0.223 OA 
BRANCH  18  19
HETATM   19  C   UNL     1      -9.044  16.255  66.306  1.00  0.00    -0.331 C  
BRANCH  19  20
HETATM   20  C   UNL     1     -10.461  15.727  66.041  1.00  0.00    -0.338 C  
BRANCH  20  21
HETATM   21  N   UNL     1     -10.741  14.303  66.544  1.00  0.00    -0.294 N  
HETATM   22  C   UNL     1     -12.254  14.083  66.424  1.00  0.00    -0.460 C  
HETATM   23  C   UNL     1     -10.044  13.280  65.654  1.00  0.00    -0.272 C  
BRANCH  21  24
HETATM   24  C   UNL     1     -10.305  14.160  68.027  1.00  0.00    -0.231 C  
BRANCH  24  25
HETATM   25  C   UNL     1     -10.888  12.979  68.756  1.00  0.00    -0.277 A  
HETATM   26  C   UNL     1     -11.908  13.172  69.702  1.00  0.00    -0.390 A  
HETATM   27  C   UNL     1     -12.347  12.111  70.490  1.00  0.00    -0.358 A  
HETATM   28  C   UNL     1     -11.788  10.846  70.330  1.00  0.00    -0.450 A  
HETATM   29  C   UNL     1     -10.818  10.628  69.354  1.00  0.00    -0.289 A  
HETATM   30  C   UNL     1     -10.378  11.686  68.560  1.00  0.00    -0.224 A  
ENDBRANCH  24  25
ENDBRANCH  21  24
ENDBRANCH  20  21
ENDBRANCH  19  20
ENDBRANCH  18  19
ENDBRANCH  17  18
ENDBRANCH  16  17
ENDBRANCH  15  16
ENDBRANCH  12  15
ENDBRANCH   6   9
ENDBRANCH   5   6
ENDBRANCH   2   5
TORSDOF 12
ENDMDL
MODEL      179
REMARK 921   NORMALIZED FREE ENERGY PREDICTED BY IDOCK:   -4.04 KCAL/MOL
REMARK 922        TOTAL FREE ENERGY PREDICTED BY IDOCK:   -8.14 KCAL/MOL
REMARK 923 INTER-LIGAND FREE ENERGY PREDICTED BY IDOCK:   -6.35 KCAL/MOL
REMARK 924 INTRA-LIGAND FREE ENERGY PREDICTED BY IDOCK:   -1.79 KCAL/MOL
REMARK 927      BINDING AFFINITY PREDICTED BY RF-SCORE:    0.00 PKD
ROOT
HETATM    1  C   UNL     1     -10.972   6.633  67.012  1.00  0.00    -0.463 C  
HETATM    2  C   UNL     1      -9.892   5.558  66.838  1.00  0.00    -0.181 C  
HETATM    3  C   UNL     1     -10.469   4.357  66.075  1.00  0.00    -0.136 C  
HETATM    4  C   UNL     1      -8.795   6.178  65.930  1.00  0.00    -0.151 C  
ENDROOT
BRANCH   2   5
HETATM    5  C   UNL     1      -9.206   5.151  68.183  1.00  0.00    -0.136 C  
BRANCH   5   6
HETATM    6  C   UNL     1      -9.475   5.845  69.573  1.00  0.00    -0.166 C  
HETATM    7  C   UNL     1      -8.882   5.057  70.763  1.00  0.00    -0.156 C  
HETATM    8  C   UNL     1     -10.981   6.016  69.860  1.00  0.00    -0.458 C  
BRANCH   6   9
HETATM    9  C   UNL     1      -8.758   7.223  69.537  1.00  0.00    -0.134 A  
HETATM   10  C   UNL     1      -9.382   8.425  69.914  1.00  0.00    -0.155 A  
HETATM   11  C   UNL     1      -8.702   9.644  69.872  1.00  0.00    -0.236 A  
HETATM   12  C   UNL     1      -7.384   9.702  69.437  1.00  0.00    -0.081 A  
HETATM   13  C   UNL     1      -7.423   7.310  69.091  1.00  0.00    -0.093 A  
HETATM   14  C   UNL     1      -6.744   8.533  69.035  1.00  0.00    -0.052 A  
BRANCH  12  15
HETATM   15  O   UNL     1      -6.844  10.959  69.417  1.00  0.00    -0.088 OA 
BRANCH  15  16
HETATM   16  C   UNL     1      -7.670  11.985  68.885  1.00  0.00     0.014 C  
BRANCH  16  17
HETATM   17  C   UNL     1      -7.126  12.362  67.505  1.00  0.00    -0.145 C  
BRANCH  17  18
HETATM   18  O   UNL     1      -7.306  13.731  67.125  1.00  0.00    -0.077 OA 
BRANCH  18  19
HETATM   19  C   UNL     1      -8.416  14.421  67.690  1.00  0.00    -0.185 C  
BRANCH  19  20
HETATM   20  C   UNL     1      -9.672  14.282  66.819  1.00  0.00    -0.275 C  
BRANCH  20  21
HETATM   21  N   UNL     1     -11.003  14.219  67.583  1.00  0.00    -0.271 N  
HETATM   22  C   UNL     1     -10.665  13.830  69.028  1.00  0.00    -0.182 C  
HETATM   23  C   UNL     1     -11.666  15.591  67.607  1.00  0.00    -0.045 C  
BRANCH  21  24
HETATM   24  C   UNL     1     -11.934  13.147  66.955  1.00  0.00    -0.362 C  
BRANCH  24  25
HETATM   25  C   UNL     1     -11.232  11.968  66.338  1.00  0.00    -0.389 A  
HETATM   26  C   UNL     1     -10.675  10.975  67.158  1.00  0.00    -0.313 A  
HETATM   27  C   UNL     1      -9.893   9.962  66.607  1.00  0.00    -0.265 A  
HETATM   28  C   UNL     1      -9.677   9.918  65.233  1.00  0.00    -0.383 A  
HETATM   29  C   UNL     1     -10.274  10.863  64.401  1.00  0.00    -0.423 A  
HETATM   30  C   UNL     1     -11.060  11.877  64.948  1.00  0.00    -0.363 A  
ENDBRANCH  24  25
ENDBRANCH  21  24
ENDBRANCH  20  21
ENDBRANCH  19  20
ENDBRANCH  18  19
ENDBRANCH  17  18
ENDBRANCH  16  17
ENDBRANCH  15  16
ENDBRANCH  12  15
ENDBRANCH   6   9
ENDBRANCH   5   6
ENDBRANCH   2   5
TORSDOF 12
ENDMDL
MODEL      180
REMARK 921   NORMALIZED FREE ENERGY PREDICTED BY IDOCK:   -4.03 KCAL/MOL
REMARK 922        TOTAL FREE ENERGY PREDICTED BY IDOCK:   -8.12 KCAL/MOL
REMARK 923 INTER-LIGAND FREE ENERGY PREDICTED BY IDOCK:   -7.71 KCAL/MOL
REMARK 924 INTRA-LIGAND FREE ENERGY PREDICTED BY IDOCK:   -0.41 KCAL/MOL
REMARK 927      BINDING AFFINITY PREDICTED BY RF-SCORE:    0.00 PKD
ROOT
HETATM    1  C   UNL     1      -8.282  19.735  66.099  1.00  0.00    -0.363 C  
HETATM    2  C   UNL     1      -9.537  19.086  66.697  1.00  0.00    -0.378 C  
HETATM    3  C   UNL     1      -9.732  19.560  68.143  1.00  0.00    -0.483 C  
HETATM    4  C   UNL     1     -10.743  19.629  65.883  1.00  0.00    -0.515 C  
ENDROOT
BRANCH   2   5
HETATM    5  C   UNL     1      -9.549  17.528  66.560  1.00  0.00    -0.295 C  
BRANCH   5   6
HETATM    6  C   UNL     1      -9.748  16.523  67.758  1.00  0.00    -0.235 C  
HETATM    7  C   UNL     1     -11.087  16.732  68.502  1.00  0.00    -0.260 C  
HETATM    8  C   UNL     1      -8.630  16.644  68.813  1.00  0.00    -0.261 C  
BRANCH   6   9
HETATM    9  C   UNL     1      -9.784  15.095  67.149  1.00  0.00    -0.230 A  
HETATM   10  C   UNL     1     -10.797  14.654  66.279  1.00  0.00    -0.321 A  
HETATM   11  C   UNL     1     -10.791  13.364  65.748  1.00  0.00    -0.283 A  
HETATM   12  C   UNL     1      -9.782  12.468  66.080  1.00  0.00    -0.254 A  
HETATM   13  C   UNL     1      -8.776  14.163  67.478  1.00  0.00    -0.208 A  
HETATM   14  C   UNL     1      -8.777  12.865  66.957  1.00  0.00    -0.195 A  
BRANCH  12  15
HETATM   15  O   UNL     1      -9.910  11.229  65.515  1.00  0.00    -0.210 OA 
BRANCH  15  16
HETATM   16  C   UNL     1     -10.898  10.381  66.083  1.00  0.00     0.081 C  
BRANCH  16  17
HETATM   17  C   UNL     1     -10.207   9.462  67.095  1.00  0.00    -0.254 C  
BRANCH  17  18
HETATM   18  O   UNL     1     -10.841   9.370  68.376  1.00  0.00    -0.194 OA 
BRANCH  18  19
HETATM   19  C   UNL     1      -9.993   9.367  69.520  1.00  0.00    -0.191 C  
BRANCH  19  20
HETATM   20  C   UNL     1     -10.798   9.246  70.822  1.00  0.00    -0.284 C  
BRANCH  20  21
HETATM   21  N   UNL     1     -10.834   7.846  71.450  1.00  0.00    -0.224 N  
HETATM   22  C   UNL     1     -11.100   8.041  72.948  1.00  0.00    -0.331 C  
HETATM   23  C   UNL     1     -11.986   7.034  70.869  1.00  0.00    -0.364 C  
BRANCH  21  24
HETATM   24  C   UNL     1      -9.472   7.129  71.247  1.00  0.00    -0.163 C  
BRANCH  24  25
HETATM   25  C   UNL     1      -9.561   5.673  70.874  1.00  0.00    -0.212 A  
HETATM   26  C   UNL     1      -9.552   4.690  71.876  1.00  0.00    -0.210 A  
HETATM   27  C   UNL     1      -9.480   3.341  71.538  1.00  0.00    -0.217 A  
HETATM   28  C   UNL     1      -9.437   2.959  70.200  1.00  0.00    -0.198 A  
HETATM   29  C   UNL     1      -9.507   3.922  69.195  1.00  0.00    -0.246 A  
HETATM   30  C   UNL     1      -9.583   5.273  69.529  1.00  0.00    -0.213 A  
ENDBRANCH  24  25
ENDBRANCH  21  24
ENDBRANCH  20  21
ENDBRANCH  19  20
ENDBRANCH  18  19
ENDBRANCH  17  18
ENDBRANCH  16  17
ENDBRANCH  15  16
ENDBRANCH  12  15
ENDBRANCH   6   9
ENDBRANCH   5   6
ENDBRANCH   2   5
TORSDOF 12
ENDMDL
MODEL      181
REMARK 921   NORMALIZED FREE ENERGY PREDICTED BY IDOCK:   -4.00 KCAL/MOL
REMARK 922        TOTAL FREE ENERGY PREDICTED BY IDOCK:   -8.07 KCAL/MOL
REMARK 923 INTER-LIGAND FREE ENERGY PREDICTED BY IDOCK:   -6.46 KCAL/MOL
REMARK 924 INTRA-LIGAND FREE ENERGY PREDICTED BY IDOCK:   -1.60 KCAL/MOL
REMARK 927      BINDING AFFINITY PREDICTED BY RF-SCORE:    0.00 PKD
ROOT
HETATM    1  C   UNL     1     -11.049   6.457  67.163  1.00  0.00    -0.422 C  
HETATM    2  C   UNL     1     -10.215   6.595  68.443  1.00  0.00    -0.188 C  
HETATM    3  C   UNL     1     -11.135   6.576  69.671  1.00  0.00    -0.435 C  
HETATM    4  C   UNL     1      -9.328   5.323  68.530  1.00  0.00    -0.152 C  
ENDROOT
BRANCH   2   5
HETATM    5  C   UNL     1      -9.255   7.829  68.420  1.00  0.00    -0.137 C  
BRANCH   5   6
HETATM    6  C   UNL     1      -8.937   8.697  67.143  1.00  0.00    -0.148 C  
HETATM    7  C   UNL     1     -10.204   9.303  66.498  1.00  0.00    -0.316 C  
HETATM    8  C   UNL     1      -8.227   7.880  66.044  1.00  0.00    -0.122 C  
BRANCH   6   9
HETATM    9  C   UNL     1      -8.052   9.884  67.611  1.00  0.00    -0.110 A  
HETATM   10  C   UNL     1      -7.342  10.711  66.723  1.00  0.00    -0.120 A  
HETATM   11  C   UNL     1      -6.561  11.773  67.183  1.00  0.00    -0.143 A  
HETATM   12  C   UNL     1      -6.451  12.031  68.544  1.00  0.00    -0.058 A  
HETATM   13  C   UNL     1      -7.916  10.161  68.988  1.00  0.00    -0.115 A  
HETATM   14  C   UNL     1      -7.122  11.216  69.450  1.00  0.00    -0.110 A  
BRANCH  12  15
HETATM   15  O   UNL     1      -5.632  13.080  68.862  1.00  0.00    -0.070 OA 
BRANCH  15  16
HETATM   16  C   UNL     1      -6.034  14.354  68.379  1.00  0.00    -0.104 C  
BRANCH  16  17
HETATM   17  C   UNL     1      -7.082  14.916  69.343  1.00  0.00    -0.175 C  
BRANCH  17  18
HETATM   18  O   UNL     1      -6.917  16.295  69.697  1.00  0.00    -0.207 OA 
BRANCH  18  19
HETATM   19  C   UNL     1      -7.790  17.233  69.076  1.00  0.00    -0.144 C  
BRANCH  19  20
HETATM   20  C   UNL     1      -8.898  16.533  68.278  1.00  0.00    -0.210 C  
BRANCH  20  21
HETATM   21  N   UNL     1      -8.960  16.884  66.784  1.00  0.00    -0.227 N  
HETATM   22  C   UNL     1     -10.159  17.823  66.600  1.00  0.00    -0.350 C  
HETATM   23  C   UNL     1      -7.703  17.637  66.364  1.00  0.00    -0.290 C  
BRANCH  21  24
HETATM   24  C   UNL     1      -9.165  15.599  65.937  1.00  0.00    -0.295 C  
BRANCH  24  25
HETATM   25  C   UNL     1     -10.089  14.574  66.537  1.00  0.00    -0.280 A  
HETATM   26  C   UNL     1     -11.464  14.619  66.256  1.00  0.00    -0.351 A  
HETATM   27  C   UNL     1     -12.348  13.774  66.923  1.00  0.00    -0.328 A  
HETATM   28  C   UNL     1     -11.867  12.864  67.860  1.00  0.00    -0.388 A  
HETATM   29  C   UNL     1     -10.499  12.768  68.105  1.00  0.00    -0.244 A  
HETATM   30  C   UNL     1      -9.610  13.609  67.437  1.00  0.00    -0.226 A  
ENDBRANCH  24  25
ENDBRANCH  21  24
ENDBRANCH  20  21
ENDBRANCH  19  20
ENDBRANCH  18  19
ENDBRANCH  17  18
ENDBRANCH  16  17
ENDBRANCH  15  16
ENDBRANCH  12  15
ENDBRANCH   6   9
ENDBRANCH   5   6
ENDBRANCH   2   5
TORSDOF 12
ENDMDL
MODEL      182
REMARK 921   NORMALIZED FREE ENERGY PREDICTED BY IDOCK:   -4.00 KCAL/MOL
REMARK 922        TOTAL FREE ENERGY PREDICTED BY IDOCK:   -8.07 KCAL/MOL
REMARK 923 INTER-LIGAND FREE ENERGY PREDICTED BY IDOCK:   -7.12 KCAL/MOL
REMARK 924 INTRA-LIGAND FREE ENERGY PREDICTED BY IDOCK:   -0.94 KCAL/MOL
REMARK 927      BINDING AFFINITY PREDICTED BY RF-SCORE:    0.00 PKD
ROOT
HETATM    1  C   UNL     1     -12.104  12.024  63.524  1.00  0.00    -0.628 C  
HETATM    2  C   UNL     1     -10.687  11.917  64.105  1.00  0.00    -0.402 C  
HETATM    3  C   UNL     1     -10.586  10.683  65.011  1.00  0.00    -0.187 C  
HETATM    4  C   UNL     1      -9.736  11.667  62.903  1.00  0.00    -0.233 C  
ENDROOT
BRANCH   2   5
HETATM    5  C   UNL     1     -10.212  13.230  64.809  1.00  0.00    -0.323 C  
BRANCH   5   6
HETATM    6  C   UNL     1     -10.551  13.624  66.297  1.00  0.00    -0.289 C  
HETATM    7  C   UNL     1     -11.906  13.056  66.775  1.00  0.00    -0.451 C  
HETATM    8  C   UNL     1     -10.615  15.152  66.496  1.00  0.00    -0.304 C  
BRANCH   6   9
HETATM    9  C   UNL     1      -9.450  12.994  67.194  1.00  0.00    -0.230 A  
HETATM   10  C   UNL     1      -9.596  11.748  67.829  1.00  0.00    -0.184 A  
HETATM   11  C   UNL     1      -8.580  11.212  68.623  1.00  0.00    -0.151 A  
HETATM   12  C   UNL     1      -7.395  11.911  68.821  1.00  0.00    -0.105 A  
HETATM   13  C   UNL     1      -8.242  13.687  67.418  1.00  0.00    -0.187 A  
HETATM   14  C   UNL     1      -7.229  13.157  68.226  1.00  0.00    -0.107 A  
BRANCH  12  15
HETATM   15  O   UNL     1      -6.496  11.289  69.643  1.00  0.00    -0.104 OA 
BRANCH  15  16
HETATM   16  C   UNL     1      -6.496   9.868  69.608  1.00  0.00    -0.052 C  
BRANCH  16  17
HETATM   17  C   UNL     1      -6.541   9.360  71.051  1.00  0.00    -0.081 C  
BRANCH  17  18
HETATM   18  O   UNL     1      -7.850   9.230  71.617  1.00  0.00    -0.329 OA 
BRANCH  18  19
HETATM   19  C   UNL     1      -8.464   7.947  71.544  1.00  0.00    -0.114 C  
BRANCH  19  20
HETATM   20  C   UNL     1      -9.787   7.995  70.767  1.00  0.00    -0.183 C  
BRANCH  20  21
HETATM   21  N   UNL     1     -10.878   7.032  71.257  1.00  0.00    -0.232 N  
HETATM   22  C   UNL     1     -10.172   5.952  72.087  1.00  0.00    -0.195 C  
HETATM   23  C   UNL     1     -11.859   7.761  72.167  1.00  0.00    -0.324 C  
BRANCH  21  24
HETATM   24  C   UNL     1     -11.600   6.376  70.049  1.00  0.00    -0.377 C  
BRANCH  24  25
HETATM   25  C   UNL     1     -10.766   6.228  68.805  1.00  0.00    -0.352 A  
HETATM   26  C   UNL     1     -10.820   7.210  67.803  1.00  0.00    -0.248 A  
HETATM   27  C   UNL     1     -10.173   7.010  66.585  1.00  0.00    -0.218 A  
HETATM   28  C   UNL     1      -9.450   5.841  66.364  1.00  0.00    -0.172 A  
HETATM   29  C   UNL     1      -9.339   4.886  67.372  1.00  0.00    -0.145 A  
HETATM   30  C   UNL     1      -9.982   5.083  68.594  1.00  0.00    -0.215 A  
ENDBRANCH  24  25
ENDBRANCH  21  24
ENDBRANCH  20  21
ENDBRANCH  19  20
ENDBRANCH  18  19
ENDBRANCH  17  18
ENDBRANCH  16  17
ENDBRANCH  15  16
ENDBRANCH  12  15
ENDBRANCH   6   9
ENDBRANCH   5   6
ENDBRANCH   2   5
TORSDOF 12
ENDMDL
MODEL      183
REMARK 921   NORMALIZED FREE ENERGY PREDICTED BY IDOCK:   -4.00 KCAL/MOL
REMARK 922        TOTAL FREE ENERGY PREDICTED BY IDOCK:   -8.07 KCAL/MOL
REMARK 923 INTER-LIGAND FREE ENERGY PREDICTED BY IDOCK:   -8.04 KCAL/MOL
REMARK 924 INTRA-LIGAND FREE ENERGY PREDICTED BY IDOCK:   -0.03 KCAL/MOL
REMARK 927      BINDING AFFINITY PREDICTED BY RF-SCORE:    0.00 PKD
ROOT
HETATM    1  C   UNL     1     -11.479   2.188  73.481  1.00  0.00    -0.305 C  
HETATM    2  C   UNL     1     -10.274   3.113  73.264  1.00  0.00    -0.219 C  
HETATM    3  C   UNL     1      -9.244   2.899  74.382  1.00  0.00    -0.100 C  
HETATM    4  C   UNL     1      -9.599   2.655  71.943  1.00  0.00    -0.212 C  
ENDROOT
BRANCH   2   5
HETATM    5  C   UNL     1     -10.675   4.613  73.085  1.00  0.00    -0.309 C  
BRANCH   5   6
HETATM    6  C   UNL     1      -9.663   5.823  73.113  1.00  0.00    -0.162 C  
HETATM    7  C   UNL     1      -8.186   5.371  73.068  1.00  0.00    -0.112 C  
HETATM    8  C   UNL     1      -9.825   6.689  74.379  1.00  0.00    -0.349 C  
BRANCH   6   9
HETATM    9  C   UNL     1      -9.924   6.660  71.831  1.00  0.00    -0.189 A  
HETATM   10  C   UNL     1     -11.199   7.126  71.462  1.00  0.00    -0.273 A  
HETATM   11  C   UNL     1     -11.391   7.880  70.304  1.00  0.00    -0.158 A  
HETATM   12  C   UNL     1     -10.321   8.180  69.470  1.00  0.00    -0.222 A  
HETATM   13  C   UNL     1      -8.856   6.969  70.963  1.00  0.00    -0.146 A  
HETATM   14  C   UNL     1      -9.051   7.714  69.794  1.00  0.00    -0.147 A  
BRANCH  12  15
HETATM   15  O   UNL     1     -10.650   8.901  68.355  1.00  0.00    -0.206 OA 
BRANCH  15  16
HETATM   16  C   UNL     1     -10.418  10.301  68.424  1.00  0.00    -0.200 C  
BRANCH  16  17
HETATM   17  C   UNL     1     -11.767  10.993  68.636  1.00  0.00    -0.296 C  
BRANCH  17  18
HETATM   18  O   UNL     1     -11.957  12.208  67.901  1.00  0.00    -0.489 OA 
BRANCH  18  19
HETATM   19  C   UNL     1     -10.796  12.978  67.608  1.00  0.00    -0.239 C  
BRANCH  19  20
HETATM   20  C   UNL     1     -10.416  13.898  68.776  1.00  0.00    -0.221 C  
BRANCH  20  21
HETATM   21  N   UNL     1      -9.747  15.223  68.384  1.00  0.00    -0.209 N  
HETATM   22  C   UNL     1      -8.598  15.448  69.376  1.00  0.00    -0.249 C  
HETATM   23  C   UNL     1      -9.149  15.122  66.986  1.00  0.00    -0.230 C  
BRANCH  21  24
HETATM   24  C   UNL     1     -10.764  16.392  68.486  1.00  0.00    -0.320 C  
BRANCH  24  25
HETATM   25  C   UNL     1     -10.287  17.709  67.936  1.00  0.00    -0.371 A  
HETATM   26  C   UNL     1      -9.422  18.514  68.694  1.00  0.00    -0.373 A  
HETATM   27  C   UNL     1      -9.097  19.798  68.263  1.00  0.00    -0.365 A  
HETATM   28  C   UNL     1      -9.614  20.282  67.064  1.00  0.00    -0.572 A  
HETATM   29  C   UNL     1     -10.425  19.471  66.273  1.00  0.00    -0.609 A  
HETATM   30  C   UNL     1     -10.750  18.184  66.699  1.00  0.00    -0.189 A  
ENDBRANCH  24  25
ENDBRANCH  21  24
ENDBRANCH  20  21
ENDBRANCH  19  20
ENDBRANCH  18  19
ENDBRANCH  17  18
ENDBRANCH  16  17
ENDBRANCH  15  16
ENDBRANCH  12  15
ENDBRANCH   6   9
ENDBRANCH   5   6
ENDBRANCH   2   5
TORSDOF 12
ENDMDL
MODEL      184
REMARK 921   NORMALIZED FREE ENERGY PREDICTED BY IDOCK:   -3.98 KCAL/MOL
REMARK 922        TOTAL FREE ENERGY PREDICTED BY IDOCK:   -8.05 KCAL/MOL
REMARK 923 INTER-LIGAND FREE ENERGY PREDICTED BY IDOCK:   -7.87 KCAL/MOL
REMARK 924 INTRA-LIGAND FREE ENERGY PREDICTED BY IDOCK:   -0.18 KCAL/MOL
REMARK 927      BINDING AFFINITY PREDICTED BY RF-SCORE:    0.00 PKD
ROOT
HETATM    1  C   UNL     1     -11.710   6.832  71.011  1.00  0.00    -0.406 C  
HETATM    2  C   UNL     1     -10.783   5.897  71.800  1.00  0.00    -0.299 C  
HETATM    3  C   UNL     1      -9.664   6.711  72.464  1.00  0.00    -0.166 C  
HETATM    4  C   UNL     1     -11.637   5.294  72.947  1.00  0.00    -0.292 C  
ENDROOT
BRANCH   2   5
HETATM    5  C   UNL     1     -10.243   4.703  70.946  1.00  0.00    -0.213 C  
BRANCH   5   6
HETATM    6  C   UNL     1      -8.996   4.779  69.984  1.00  0.00    -0.139 C  
HETATM    7  C   UNL     1      -8.787   3.482  69.170  1.00  0.00    -0.159 C  
HETATM    8  C   UNL     1      -7.683   5.040  70.750  1.00  0.00    -0.078 C  
BRANCH   6   9
HETATM    9  C   UNL     1      -9.279   5.917  68.965  1.00  0.00    -0.132 A  
HETATM   10  C   UNL     1      -8.556   7.122  68.937  1.00  0.00    -0.129 A  
HETATM   11  C   UNL     1      -8.838   8.119  68.002  1.00  0.00    -0.131 A  
HETATM   12  C   UNL     1      -9.860   7.950  67.076  1.00  0.00    -0.225 A  
HETATM   13  C   UNL     1     -10.318   5.774  68.021  1.00  0.00    -0.258 A  
HETATM   14  C   UNL     1     -10.611   6.779  67.092  1.00  0.00    -0.401 A  
BRANCH  12  15
HETATM   15  O   UNL     1     -10.051   9.013  66.236  1.00  0.00    -0.295 OA 
BRANCH  15  16
HETATM   16  C   UNL     1     -10.607  10.181  66.822  1.00  0.00    -0.169 C  
BRANCH  16  17
HETATM   17  C   UNL     1     -10.761  11.235  65.722  1.00  0.00    -0.223 C  
BRANCH  17  18
HETATM   18  O   UNL     1     -12.087  11.749  65.543  1.00  0.00    -0.316 OA 
BRANCH  18  19
HETATM   19  C   UNL     1     -12.222  12.941  64.776  1.00  0.00    -0.445 C  
BRANCH  19  20
HETATM   20  C   UNL     1     -12.429  14.170  65.671  1.00  0.00    -0.469 C  
BRANCH  20  21
HETATM   21  N   UNL     1     -11.220  15.108  65.799  1.00  0.00    -0.321 N  
HETATM   22  C   UNL     1     -10.000  14.326  65.293  1.00  0.00    -0.279 C  
HETATM   23  C   UNL     1     -11.400  16.329  64.904  1.00  0.00    -0.159 C  
BRANCH  21  24
HETATM   24  C   UNL     1     -11.005  15.513  67.282  1.00  0.00    -0.303 C  
BRANCH  24  25
HETATM   25  C   UNL     1     -10.117  16.708  67.499  1.00  0.00    -0.273 A  
HETATM   26  C   UNL     1      -8.764  16.527  67.825  1.00  0.00    -0.197 A  
HETATM   27  C   UNL     1      -7.972  17.617  68.177  1.00  0.00    -0.256 A  
HETATM   28  C   UNL     1      -8.516  18.899  68.188  1.00  0.00    -0.342 A  
HETATM   29  C   UNL     1      -9.841  19.100  67.810  1.00  0.00    -0.412 A  
HETATM   30  C   UNL     1     -10.637  18.011  67.452  1.00  0.00    -0.378 A  
ENDBRANCH  24  25
ENDBRANCH  21  24
ENDBRANCH  20  21
ENDBRANCH  19  20
ENDBRANCH  18  19
ENDBRANCH  17  18
ENDBRANCH  16  17
ENDBRANCH  15  16
ENDBRANCH  12  15
ENDBRANCH   6   9
ENDBRANCH   5   6
ENDBRANCH   2   5
TORSDOF 12
ENDMDL
MODEL      185
REMARK 921   NORMALIZED FREE ENERGY PREDICTED BY IDOCK:   -3.98 KCAL/MOL
REMARK 922        TOTAL FREE ENERGY PREDICTED BY IDOCK:   -8.04 KCAL/MOL
REMARK 923 INTER-LIGAND FREE ENERGY PREDICTED BY IDOCK:   -7.47 KCAL/MOL
REMARK 924 INTRA-LIGAND FREE ENERGY PREDICTED BY IDOCK:   -0.57 KCAL/MOL
REMARK 927      BINDING AFFINITY PREDICTED BY RF-SCORE:    0.00 PKD
ROOT
HETATM    1  C   UNL     1     -11.030   6.865  67.285  1.00  0.00    -0.406 C  
HETATM    2  C   UNL     1     -10.317   6.442  68.576  1.00  0.00    -0.227 C  
HETATM    3  C   UNL     1     -11.351   6.152  69.672  1.00  0.00    -0.442 C  
HETATM    4  C   UNL     1      -9.607   5.096  68.266  1.00  0.00    -0.178 C  
ENDROOT
BRANCH   2   5
HETATM    5  C   UNL     1      -9.215   7.454  69.030  1.00  0.00    -0.146 C  
BRANCH   5   6
HETATM    6  C   UNL     1      -9.498   8.815  69.774  1.00  0.00    -0.168 C  
HETATM    7  C   UNL     1      -9.295   8.718  71.302  1.00  0.00    -0.319 C  
HETATM    8  C   UNL     1     -10.939   9.316  69.547  1.00  0.00    -0.169 C  
BRANCH   6   9
HETATM    9  C   UNL     1      -8.464   9.845  69.241  1.00  0.00    -0.158 A  
HETATM   10  C   UNL     1      -7.371  10.301  70.000  1.00  0.00    -0.157 A  
HETATM   11  C   UNL     1      -6.460  11.223  69.483  1.00  0.00    -0.119 A  
HETATM   12  C   UNL     1      -6.619  11.731  68.200  1.00  0.00    -0.056 A  
HETATM   13  C   UNL     1      -8.608  10.382  67.945  1.00  0.00    -0.118 A  
HETATM   14  C   UNL     1      -7.703  11.318  67.431  1.00  0.00    -0.128 A  
BRANCH  12  15
HETATM   15  O   UNL     1      -5.674  12.647  67.827  1.00  0.00    -0.095 OA 
BRANCH  15  16
HETATM   16  C   UNL     1      -5.445  13.714  68.736  1.00  0.00    -0.073 C  
BRANCH  16  17
HETATM   17  C   UNL     1      -6.238  14.930  68.248  1.00  0.00    -0.123 C  
BRANCH  17  18
HETATM   18  O   UNL     1      -7.159  15.484  69.195  1.00  0.00    -0.138 OA 
BRANCH  18  19
HETATM   19  C   UNL     1      -8.529  15.121  69.056  1.00  0.00    -0.214 C  
BRANCH  19  20
HETATM   20  C   UNL     1      -8.838  14.602  67.645  1.00  0.00    -0.182 C  
BRANCH  20  21
HETATM   21  N   UNL     1      -9.605  15.574  66.736  1.00  0.00    -0.226 N  
HETATM   22  C   UNL     1      -8.560  16.493  66.091  1.00  0.00    -0.299 C  
HETATM   23  C   UNL     1     -10.312  14.810  65.621  1.00  0.00    -0.349 C  
BRANCH  21  24
HETATM   24  C   UNL     1     -10.604  16.419  67.571  1.00  0.00    -0.309 C  
BRANCH  24  25
HETATM   25  C   UNL     1     -10.380  17.906  67.527  1.00  0.00    -0.383 A  
HETATM   26  C   UNL     1     -10.660  18.624  66.353  1.00  0.00    -0.399 A  
HETATM   27  C   UNL     1     -10.316  19.969  66.250  1.00  0.00    -0.570 A  
HETATM   28  C   UNL     1      -9.708  20.616  67.323  1.00  0.00    -0.562 A  
HETATM   29  C   UNL     1      -9.479  19.932  68.514  1.00  0.00    -0.335 A  
HETATM   30  C   UNL     1      -9.827  18.586  68.623  1.00  0.00    -0.419 A  
ENDBRANCH  24  25
ENDBRANCH  21  24
ENDBRANCH  20  21
ENDBRANCH  19  20
ENDBRANCH  18  19
ENDBRANCH  17  18
ENDBRANCH  16  17
ENDBRANCH  15  16
ENDBRANCH  12  15
ENDBRANCH   6   9
ENDBRANCH   5   6
ENDBRANCH   2   5
TORSDOF 12
ENDMDL
MODEL      186
REMARK 921   NORMALIZED FREE ENERGY PREDICTED BY IDOCK:   -3.98 KCAL/MOL
REMARK 922        TOTAL FREE ENERGY PREDICTED BY IDOCK:   -8.04 KCAL/MOL
REMARK 923 INTER-LIGAND FREE ENERGY PREDICTED BY IDOCK:   -6.44 KCAL/MOL
REMARK 924 INTRA-LIGAND FREE ENERGY PREDICTED BY IDOCK:   -1.60 KCAL/MOL
REMARK 927      BINDING AFFINITY PREDICTED BY RF-SCORE:    0.00 PKD
ROOT
HETATM    1  C   UNL     1      -8.544   3.165  71.823  1.00  0.00    -0.100 C  
HETATM    2  C   UNL     1      -8.659   4.674  71.575  1.00  0.00    -0.125 C  
HETATM    3  C   UNL     1      -9.202   5.370  72.831  1.00  0.00    -0.139 C  
HETATM    4  C   UNL     1      -7.213   5.198  71.365  1.00  0.00    -0.069 C  
ENDROOT
BRANCH   2   5
HETATM    5  C   UNL     1      -9.472   5.025  70.286  1.00  0.00    -0.237 C  
BRANCH   5   6
HETATM    6  C   UNL     1     -10.088   6.441  69.970  1.00  0.00    -0.208 C  
HETATM    7  C   UNL     1     -10.927   7.005  71.138  1.00  0.00    -0.275 C  
HETATM    8  C   UNL     1     -11.010   6.414  68.733  1.00  0.00    -0.404 C  
BRANCH   6   9
HETATM    9  C   UNL     1      -8.897   7.414  69.753  1.00  0.00    -0.141 A  
HETATM   10  C   UNL     1      -8.609   8.484  70.619  1.00  0.00    -0.163 A  
HETATM   11  C   UNL     1      -7.525   9.333  70.392  1.00  0.00    -0.124 A  
HETATM   12  C   UNL     1      -6.705   9.152  69.285  1.00  0.00    -0.049 A  
HETATM   13  C   UNL     1      -8.055   7.257  68.631  1.00  0.00    -0.125 A  
HETATM   14  C   UNL     1      -6.976   8.117  68.396  1.00  0.00    -0.073 A  
BRANCH  12  15
HETATM   15  O   UNL     1      -5.697  10.070  69.165  1.00  0.00    -0.035 OA 
BRANCH  15  16
HETATM   16  C   UNL     1      -6.012  11.398  69.557  1.00  0.00    -0.086 C  
BRANCH  16  17
HETATM   17  C   UNL     1      -6.496  12.155  68.317  1.00  0.00    -0.055 C  
BRANCH  17  18
HETATM   18  O   UNL     1      -7.838  12.652  68.384  1.00  0.00    -0.136 OA 
BRANCH  18  19
HETATM   19  C   UNL     1      -8.204  13.659  67.447  1.00  0.00    -0.179 C  
BRANCH  19  20
HETATM   20  C   UNL     1      -9.351  13.197  66.537  1.00  0.00    -0.216 C  
BRANCH  20  21
HETATM   21  N   UNL     1     -10.567  14.134  66.477  1.00  0.00    -0.280 N  
HETATM   22  C   UNL     1     -10.279  15.293  67.440  1.00  0.00    -0.243 C  
HETATM   23  C   UNL     1     -10.721  14.712  65.076  1.00  0.00    -0.430 C  
BRANCH  21  24
HETATM   24  C   UNL     1     -11.848  13.383  66.929  1.00  0.00    -0.403 C  
BRANCH  24  25
HETATM   25  C   UNL     1     -11.666  12.441  68.089  1.00  0.00    -0.408 A  
HETATM   26  C   UNL     1     -11.288  11.109  67.859  1.00  0.00    -0.378 A  
HETATM   27  C   UNL     1     -11.265  10.192  68.907  1.00  0.00    -0.220 A  
HETATM   28  C   UNL     1     -11.599  10.599  70.196  1.00  0.00    -0.414 A  
HETATM   29  C   UNL     1     -11.918  11.931  70.448  1.00  0.00    -0.400 A  
HETATM   30  C   UNL     1     -11.938  12.854  69.402  1.00  0.00    -0.327 A  
ENDBRANCH  24  25
ENDBRANCH  21  24
ENDBRANCH  20  21
ENDBRANCH  19  20
ENDBRANCH  18  19
ENDBRANCH  17  18
ENDBRANCH  16  17
ENDBRANCH  15  16
ENDBRANCH  12  15
ENDBRANCH   6   9
ENDBRANCH   5   6
ENDBRANCH   2   5
TORSDOF 12
ENDMDL
MODEL      187
REMARK 921   NORMALIZED FREE ENERGY PREDICTED BY IDOCK:   -3.95 KCAL/MOL
REMARK 922        TOTAL FREE ENERGY PREDICTED BY IDOCK:   -8.00 KCAL/MOL
REMARK 923 INTER-LIGAND FREE ENERGY PREDICTED BY IDOCK:   -6.19 KCAL/MOL
REMARK 924 INTRA-LIGAND FREE ENERGY PREDICTED BY IDOCK:   -1.81 KCAL/MOL
REMARK 927      BINDING AFFINITY PREDICTED BY RF-SCORE:    0.00 PKD
ROOT
HETATM    1  C   UNL     1      -7.677   4.871  70.321  1.00  0.00    -0.062 C  
HETATM    2  C   UNL     1      -7.829   6.341  69.910  1.00  0.00    -0.110 C  
HETATM    3  C   UNL     1      -8.290   7.175  71.113  1.00  0.00    -0.113 C  
HETATM    4  C   UNL     1      -6.408   6.844  69.538  1.00  0.00    -0.039 C  
ENDROOT
BRANCH   2   5
HETATM    5  C   UNL     1      -8.735   6.537  68.651  1.00  0.00    -0.123 C  
BRANCH   5   6
HETATM    6  C   UNL     1      -9.679   7.777  68.407  1.00  0.00    -0.167 C  
HETATM    7  C   UNL     1     -10.433   8.217  69.682  1.00  0.00    -0.221 C  
HETATM    8  C   UNL     1     -10.749   7.494  67.333  1.00  0.00    -0.331 C  
BRANCH   6   9
HETATM    9  C   UNL     1      -8.767   8.961  67.984  1.00  0.00    -0.133 A  
HETATM   10  C   UNL     1      -8.442  10.027  68.842  1.00  0.00    -0.132 A  
HETATM   11  C   UNL     1      -7.615  11.071  68.426  1.00  0.00    -0.108 A  
HETATM   12  C   UNL     1      -7.100  11.093  67.135  1.00  0.00    -0.113 A  
HETATM   13  C   UNL     1      -8.240   9.012  66.676  1.00  0.00    -0.118 A  
HETATM   14  C   UNL     1      -7.422  10.066  66.254  1.00  0.00    -0.106 A  
BRANCH  12  15
HETATM   15  O   UNL     1      -6.329  12.185  66.846  1.00  0.00    -0.135 OA 
BRANCH  15  16
HETATM   16  C   UNL     1      -6.095  13.086  67.920  1.00  0.00    -0.131 C  
BRANCH  16  17
HETATM   17  C   UNL     1      -6.789  14.409  67.586  1.00  0.00    -0.182 C  
BRANCH  17  18
HETATM   18  O   UNL     1      -6.627  15.451  68.557  1.00  0.00    -0.103 OA 
BRANCH  18  19
HETATM   19  C   UNL     1      -7.813  16.040  69.080  1.00  0.00    -0.222 C  
BRANCH  19  20
HETATM   20  C   UNL     1      -9.070  15.295  68.610  1.00  0.00    -0.193 C  
BRANCH  20  21
HETATM   21  N   UNL     1     -10.151  16.168  67.955  1.00  0.00    -0.238 N  
HETATM   22  C   UNL     1     -10.184  17.488  68.736  1.00  0.00    -0.373 C  
HETATM   23  C   UNL     1      -9.774  16.484  66.512  1.00  0.00    -0.272 C  
BRANCH  21  24
HETATM   24  C   UNL     1     -11.534  15.470  68.044  1.00  0.00    -0.308 C  
BRANCH  24  25
HETATM   25  C   UNL     1     -11.492  13.970  68.149  1.00  0.00    -0.341 A  
HETATM   26  C   UNL     1     -11.320  13.190  66.995  1.00  0.00    -0.349 A  
HETATM   27  C   UNL     1     -11.431  11.802  67.060  1.00  0.00    -0.368 A  
HETATM   28  C   UNL     1     -11.694  11.181  68.277  1.00  0.00    -0.323 A  
HETATM   29  C   UNL     1     -11.808  11.939  69.440  1.00  0.00    -0.389 A  
HETATM   30  C   UNL     1     -11.693  13.327  69.381  1.00  0.00    -0.383 A  
ENDBRANCH  24  25
ENDBRANCH  21  24
ENDBRANCH  20  21
ENDBRANCH  19  20
ENDBRANCH  18  19
ENDBRANCH  17  18
ENDBRANCH  16  17
ENDBRANCH  15  16
ENDBRANCH  12  15
ENDBRANCH   6   9
ENDBRANCH   5   6
ENDBRANCH   2   5
TORSDOF 12
ENDMDL
MODEL      188
REMARK 921   NORMALIZED FREE ENERGY PREDICTED BY IDOCK:   -3.95 KCAL/MOL
REMARK 922        TOTAL FREE ENERGY PREDICTED BY IDOCK:   -8.00 KCAL/MOL
REMARK 923 INTER-LIGAND FREE ENERGY PREDICTED BY IDOCK:   -6.38 KCAL/MOL
REMARK 924 INTRA-LIGAND FREE ENERGY PREDICTED BY IDOCK:   -1.61 KCAL/MOL
REMARK 927      BINDING AFFINITY PREDICTED BY RF-SCORE:    0.00 PKD
ROOT
HETATM    1  C   UNL     1     -11.953  11.281  68.351  1.00  0.00    -0.255 C  
HETATM    2  C   UNL     1     -10.548  10.665  68.323  1.00  0.00    -0.227 C  
HETATM    3  C   UNL     1     -10.476   9.482  69.299  1.00  0.00    -0.226 C  
HETATM    4  C   UNL     1     -10.351  10.080  66.898  1.00  0.00    -0.297 C  
ENDROOT
BRANCH   2   5
HETATM    5  C   UNL     1      -9.412  11.715  68.555  1.00  0.00    -0.175 C  
BRANCH   5   6
HETATM    6  C   UNL     1      -7.874  11.432  68.359  1.00  0.00    -0.135 C  
HETATM    7  C   UNL     1      -7.535  10.903  66.947  1.00  0.00    -0.128 C  
HETATM    8  C   UNL     1      -7.339  10.391  69.364  1.00  0.00    -0.123 C  
BRANCH   6   9
HETATM    9  C   UNL     1      -7.139  12.791  68.525  1.00  0.00    -0.101 A  
HETATM   10  C   UNL     1      -6.299  13.337  67.539  1.00  0.00    -0.130 A  
HETATM   11  C   UNL     1      -5.661  14.564  67.724  1.00  0.00    -0.055 A  
HETATM   12  C   UNL     1      -5.828  15.276  68.905  1.00  0.00    -0.097 A  
HETATM   13  C   UNL     1      -7.286  13.529  69.719  1.00  0.00     0.492 A  
HETATM   14  C   UNL     1      -6.634  14.753  69.911  1.00  0.00    -0.175 A  
BRANCH  12  15
HETATM   15  O   UNL     1      -5.125  16.448  68.970  1.00  0.00    -0.108 OA 
BRANCH  15  16
HETATM   16  C   UNL     1      -5.380  17.388  67.936  1.00  0.00    -0.125 C  
BRANCH  16  17
HETATM   17  C   UNL     1      -6.723  18.062  68.230  1.00  0.00    -0.207 C  
BRANCH  17  18
HETATM   18  O   UNL     1      -7.519  18.376  67.081  1.00  0.00    -0.213 OA 
BRANCH  18  19
HETATM   19  C   UNL     1      -8.105  17.283  66.381  1.00  0.00    -0.293 C  
BRANCH  19  20
HETATM   20  C   UNL     1      -8.933  16.390  67.314  1.00  0.00    -0.195 C  
BRANCH  20  21
HETATM   21  N   UNL     1     -10.120  15.668  66.660  1.00  0.00    -0.264 N  
HETATM   22  C   UNL     1     -11.253  15.655  67.693  1.00  0.00    -0.274 C  
HETATM   23  C   UNL     1     -10.603  16.443  65.439  1.00  0.00    -0.320 C  
BRANCH  21  24
HETATM   24  C   UNL     1      -9.728  14.211  66.292  1.00  0.00    -0.297 C  
BRANCH  24  25
HETATM   25  C   UNL     1     -10.660  13.517  65.335  1.00  0.00    -0.313 A  
HETATM   26  C   UNL     1     -12.029  13.428  65.630  1.00  0.00    -0.439 A  
HETATM   27  C   UNL     1     -12.873  12.659  64.832  1.00  0.00    -0.312 A  
HETATM   28  C   UNL     1     -12.364  11.990  63.722  1.00  0.00    -0.602 A  
HETATM   29  C   UNL     1     -11.019  12.119  63.385  1.00  0.00    -0.480 A  
HETATM   30  C   UNL     1     -10.171  12.891  64.179  1.00  0.00    -0.311 A  
ENDBRANCH  24  25
ENDBRANCH  21  24
ENDBRANCH  20  21
ENDBRANCH  19  20
ENDBRANCH  18  19
ENDBRANCH  17  18
ENDBRANCH  16  17
ENDBRANCH  15  16
ENDBRANCH  12  15
ENDBRANCH   6   9
ENDBRANCH   5   6
ENDBRANCH   2   5
TORSDOF 12
ENDMDL
MODEL      189
REMARK 921   NORMALIZED FREE ENERGY PREDICTED BY IDOCK:   -3.95 KCAL/MOL
REMARK 922        TOTAL FREE ENERGY PREDICTED BY IDOCK:   -7.99 KCAL/MOL
REMARK 923 INTER-LIGAND FREE ENERGY PREDICTED BY IDOCK:   -7.73 KCAL/MOL
REMARK 924 INTRA-LIGAND FREE ENERGY PREDICTED BY IDOCK:   -0.27 KCAL/MOL
REMARK 927      BINDING AFFINITY PREDICTED BY RF-SCORE:    0.00 PKD
ROOT
HETATM    1  C   UNL     1      -9.671   4.368  67.050  1.00  0.00    -0.232 C  
HETATM    2  C   UNL     1      -8.768   5.434  66.416  1.00  0.00    -0.121 C  
HETATM    3  C   UNL     1      -7.318   5.231  66.874  1.00  0.00    -0.086 C  
HETATM    4  C   UNL     1      -8.792   5.177  64.885  1.00  0.00    -0.118 C  
ENDROOT
BRANCH   2   5
HETATM    5  C   UNL     1      -9.282   6.893  66.650  1.00  0.00    -0.185 C  
BRANCH   5   6
HETATM    6  C   UNL     1      -8.506   8.197  66.222  1.00  0.00    -0.136 C  
HETATM    7  C   UNL     1      -7.794   8.052  64.858  1.00  0.00    -0.129 C  
HETATM    8  C   UNL     1      -7.426   8.597  67.248  1.00  0.00    -0.089 C  
BRANCH   6   9
HETATM    9  C   UNL     1      -9.566   9.322  66.066  1.00  0.00    -0.338 A  
HETATM   10  C   UNL     1      -9.818   9.978  64.847  1.00  0.00    -0.352 A  
HETATM   11  C   UNL     1     -10.783  10.981  64.746  1.00  0.00    -0.304 A  
HETATM   12  C   UNL     1     -11.515  11.372  65.861  1.00  0.00     0.102 A  
HETATM   13  C   UNL     1     -10.316   9.743  67.184  1.00  0.00    -0.311 A  
HETATM   14  C   UNL     1     -11.274  10.759  67.086  1.00  0.00    -0.222 A  
BRANCH  12  15
HETATM   15  O   UNL     1     -12.407  12.383  65.632  1.00  0.00    -0.639 OA 
BRANCH  15  16
HETATM   16  C   UNL     1     -12.273  13.068  64.394  1.00  0.00    -0.406 C  
BRANCH  16  17
HETATM   17  C   UNL     1     -12.214  14.569  64.688  1.00  0.00    -0.460 C  
BRANCH  17  18
HETATM   18  O   UNL     1     -11.299  14.959  65.719  1.00  0.00    -0.341 OA 
BRANCH  18  19
HETATM   19  C   UNL     1     -11.857  15.310  66.982  1.00  0.00     0.090 C  
BRANCH  19  20
HETATM   20  C   UNL     1     -10.995  14.797  68.144  1.00  0.00    -0.268 C  
BRANCH  20  21
HETATM   21  N   UNL     1     -10.333  15.882  69.005  1.00  0.00    -0.218 N  
HETATM   22  C   UNL     1      -8.911  16.071  68.460  1.00  0.00    -0.200 C  
HETATM   23  C   UNL     1     -11.075  17.205  68.854  1.00  0.00     0.070 C  
BRANCH  21  24
HETATM   24  C   UNL     1     -10.270  15.429  70.488  1.00  0.00     0.117 C  
BRANCH  24  25
HETATM   25  C   UNL     1     -11.573  15.500  71.238  1.00  0.00    -0.462 A  
HETATM   26  C   UNL     1     -11.621  16.093  72.509  1.00  0.00    -0.355 A  
HETATM   27  C   UNL     1     -12.783  16.029  73.274  1.00  0.00    -0.644 A  
HETATM   28  C   UNL     1     -13.914  15.392  72.770  1.00  0.00    -0.519 A  
HETATM   29  C   UNL     1     -13.899  14.851  71.486  1.00  0.00    -0.550 A  
HETATM   30  C   UNL     1     -12.738  14.917  70.716  1.00  0.00    -0.421 A  
ENDBRANCH  24  25
ENDBRANCH  21  24
ENDBRANCH  20  21
ENDBRANCH  19  20
ENDBRANCH  18  19
ENDBRANCH  17  18
ENDBRANCH  16  17
ENDBRANCH  15  16
ENDBRANCH  12  15
ENDBRANCH   6   9
ENDBRANCH   5   6
ENDBRANCH   2   5
TORSDOF 12
ENDMDL
MODEL      190
REMARK 921   NORMALIZED FREE ENERGY PREDICTED BY IDOCK:   -3.95 KCAL/MOL
REMARK 922        TOTAL FREE ENERGY PREDICTED BY IDOCK:   -7.99 KCAL/MOL
REMARK 923 INTER-LIGAND FREE ENERGY PREDICTED BY IDOCK:   -7.68 KCAL/MOL
REMARK 924 INTRA-LIGAND FREE ENERGY PREDICTED BY IDOCK:   -0.31 KCAL/MOL
REMARK 927      BINDING AFFINITY PREDICTED BY RF-SCORE:    0.00 PKD
ROOT
HETATM    1  C   UNL     1     -11.407   6.032  69.958  1.00  0.00    -0.354 C  
HETATM    2  C   UNL     1     -10.584   6.613  71.116  1.00  0.00    -0.263 C  
HETATM    3  C   UNL     1     -10.853   8.119  71.244  1.00  0.00    -0.278 C  
HETATM    4  C   UNL     1     -11.122   5.952  72.414  1.00  0.00    -0.328 C  
ENDROOT
BRANCH   2   5
HETATM    5  C   UNL     1      -9.061   6.273  71.018  1.00  0.00    -0.156 C  
BRANCH   5   6
HETATM    6  C   UNL     1      -7.894   7.314  71.215  1.00  0.00    -0.096 C  
HETATM    7  C   UNL     1      -6.501   6.649  71.285  1.00  0.00    -0.049 C  
HETATM    8  C   UNL     1      -8.059   8.138  72.509  1.00  0.00    -0.204 C  
BRANCH   6   9
HETATM    9  C   UNL     1      -7.896   8.238  69.966  1.00  0.00    -0.104 A  
HETATM   10  C   UNL     1      -7.516   9.591  70.009  1.00  0.00    -0.126 A  
HETATM   11  C   UNL     1      -7.527  10.387  68.862  1.00  0.00    -0.099 A  
HETATM   12  C   UNL     1      -7.931   9.861  67.641  1.00  0.00    -0.109 A  
HETATM   13  C   UNL     1      -8.312   7.731  68.717  1.00  0.00    -0.128 A  
HETATM   14  C   UNL     1      -8.336   8.532  67.570  1.00  0.00    -0.128 A  
BRANCH  12  15
HETATM   15  O   UNL     1      -7.923  10.754  66.605  1.00  0.00    -0.127 OA 
BRANCH  15  16
HETATM   16  C   UNL     1      -7.839  12.127  66.962  1.00  0.00    -0.123 C  
BRANCH  16  17
HETATM   17  C   UNL     1      -9.104  12.825  66.456  1.00  0.00    -0.147 C  
BRANCH  17  18
HETATM   18  O   UNL     1     -10.337  12.167  66.769  1.00  0.00    -0.211 OA 
BRANCH  18  19
HETATM   19  C   UNL     1     -11.519  12.960  66.745  1.00  0.00    -0.340 C  
BRANCH  19  20
HETATM   20  C   UNL     1     -11.249  14.396  67.216  1.00  0.00    -0.323 C  
BRANCH  20  21
HETATM   21  N   UNL     1     -11.113  14.579  68.735  1.00  0.00    -0.240 N  
HETATM   22  C   UNL     1     -11.386  13.210  69.371  1.00  0.00    -0.213 C  
HETATM   23  C   UNL     1      -9.690  14.990  69.094  1.00  0.00    -0.212 C  
BRANCH  21  24
HETATM   24  C   UNL     1     -12.152  15.612  69.248  1.00  0.00    -0.241 C  
BRANCH  24  25
HETATM   25  C   UNL     1     -12.463  15.535  70.718  1.00  0.00    -0.491 A  
HETATM   26  C   UNL     1     -11.586  16.109  71.652  1.00  0.00    -0.503 A  
HETATM   27  C   UNL     1     -11.783  15.913  73.017  1.00  0.00    -0.426 A  
HETATM   28  C   UNL     1     -12.866  15.161  73.463  1.00  0.00    -0.657 A  
HETATM   29  C   UNL     1     -13.777  14.636  72.550  1.00  0.00    -0.572 A  
HETATM   30  C   UNL     1     -13.586  14.834  71.183  1.00  0.00    -0.432 A  
ENDBRANCH  24  25
ENDBRANCH  21  24
ENDBRANCH  20  21
ENDBRANCH  19  20
ENDBRANCH  18  19
ENDBRANCH  17  18
ENDBRANCH  16  17
ENDBRANCH  15  16
ENDBRANCH  12  15
ENDBRANCH   6   9
ENDBRANCH   5   6
ENDBRANCH   2   5
TORSDOF 12
ENDMDL
MODEL      191
REMARK 921   NORMALIZED FREE ENERGY PREDICTED BY IDOCK:   -3.95 KCAL/MOL
REMARK 922        TOTAL FREE ENERGY PREDICTED BY IDOCK:   -7.99 KCAL/MOL
REMARK 923 INTER-LIGAND FREE ENERGY PREDICTED BY IDOCK:   -8.21 KCAL/MOL
REMARK 924 INTRA-LIGAND FREE ENERGY PREDICTED BY IDOCK:    0.23 KCAL/MOL
REMARK 927      BINDING AFFINITY PREDICTED BY RF-SCORE:    0.00 PKD
ROOT
HETATM    1  C   UNL     1     -11.788   7.959  72.433  1.00  0.00    -0.402 C  
HETATM    2  C   UNL     1     -10.818   6.771  72.374  1.00  0.00    -0.270 C  
HETATM    3  C   UNL     1      -9.958   6.736  73.645  1.00  0.00    -0.293 C  
HETATM    4  C   UNL     1     -11.691   5.488  72.391  1.00  0.00    -0.182 C  
ENDROOT
BRANCH   2   5
HETATM    5  C   UNL     1      -9.968   6.737  71.062  1.00  0.00    -0.196 C  
BRANCH   5   6
HETATM    6  C   UNL     1      -8.973   7.873  70.607  1.00  0.00    -0.148 C  
HETATM    7  C   UNL     1      -7.667   7.317  69.996  1.00  0.00    -0.096 C  
HETATM    8  C   UNL     1      -8.562   8.792  71.775  1.00  0.00    -0.198 C  
BRANCH   6   9
HETATM    9  C   UNL     1      -9.690   8.681  69.491  1.00  0.00    -0.179 A  
HETATM   10  C   UNL     1      -9.825   8.218  68.171  1.00  0.00    -0.198 A  
HETATM   11  C   UNL     1     -10.482   8.973  67.197  1.00  0.00    -0.333 A  
HETATM   12  C   UNL     1     -11.011  10.219  67.508  1.00  0.00    -0.280 A  
HETATM   13  C   UNL     1     -10.228   9.954  69.779  1.00  0.00    -0.278 A  
HETATM   14  C   UNL     1     -10.874  10.717  68.800  1.00  0.00    -0.269 A  
BRANCH  12  15
HETATM   15  O   UNL     1     -11.602  10.866  66.458  1.00  0.00    -0.118 OA 
BRANCH  15  16
HETATM   16  C   UNL     1     -11.799  12.265  66.615  1.00  0.00    -0.289 C  
BRANCH  16  17
HETATM   17  C   UNL     1     -10.835  12.987  65.670  1.00  0.00    -0.273 C  
BRANCH  17  18
HETATM   18  O   UNL     1     -10.009  13.986  66.280  1.00  0.00    -0.288 OA 
BRANCH  18  19
HETATM   19  C   UNL     1      -9.262  13.598  67.428  1.00  0.00    -0.222 C  
BRANCH  19  20
HETATM   20  C   UNL     1      -9.146  14.742  68.444  1.00  0.00    -0.188 C  
BRANCH  20  21
HETATM   21  N   UNL     1     -10.217  15.837  68.331  1.00  0.00    -0.220 N  
HETATM   22  C   UNL     1     -10.055  16.742  69.560  1.00  0.00    -0.107 C  
HETATM   23  C   UNL     1      -9.979  16.685  67.087  1.00  0.00    -0.268 C  
BRANCH  21  24
HETATM   24  C   UNL     1     -11.635  15.206  68.329  1.00  0.00    -0.339 C  
BRANCH  24  25
HETATM   25  C   UNL     1     -12.134  14.741  69.670  1.00  0.00    -0.346 A  
HETATM   26  C   UNL     1     -12.121  13.374  69.989  1.00  0.00    -0.404 A  
HETATM   27  C   UNL     1     -12.718  12.918  71.162  1.00  0.00    -0.366 A  
HETATM   28  C   UNL     1     -13.316  13.821  72.036  1.00  0.00    -0.536 A  
HETATM   29  C   UNL     1     -13.284  15.186  71.761  1.00  0.00    -0.484 A  
HETATM   30  C   UNL     1     -12.683  15.648  70.590  1.00  0.00    -0.443 A  
ENDBRANCH  24  25
ENDBRANCH  21  24
ENDBRANCH  20  21
ENDBRANCH  19  20
ENDBRANCH  18  19
ENDBRANCH  17  18
ENDBRANCH  16  17
ENDBRANCH  15  16
ENDBRANCH  12  15
ENDBRANCH   6   9
ENDBRANCH   5   6
ENDBRANCH   2   5
TORSDOF 12
ENDMDL
MODEL      192
REMARK 921   NORMALIZED FREE ENERGY PREDICTED BY IDOCK:   -3.94 KCAL/MOL
REMARK 922        TOTAL FREE ENERGY PREDICTED BY IDOCK:   -7.97 KCAL/MOL
REMARK 923 INTER-LIGAND FREE ENERGY PREDICTED BY IDOCK:   -7.57 KCAL/MOL
REMARK 924 INTRA-LIGAND FREE ENERGY PREDICTED BY IDOCK:   -0.39 KCAL/MOL
REMARK 927      BINDING AFFINITY PREDICTED BY RF-SCORE:    0.00 PKD
ROOT
HETATM    1  C   UNL     1      -8.978  19.728  66.391  1.00  0.00    -0.440 C  
HETATM    2  C   UNL     1      -7.930  18.626  66.597  1.00  0.00    -0.280 C  
HETATM    3  C   UNL     1      -6.646  18.977  65.832  1.00  0.00    -0.269 C  
HETATM    4  C   UNL     1      -7.567  18.641  68.107  1.00  0.00    -0.292 C  
ENDROOT
BRANCH   2   5
HETATM    5  C   UNL     1      -8.467  17.196  66.262  1.00  0.00    -0.279 C  
BRANCH   5   6
HETATM    6  C   UNL     1      -9.926  16.689  66.577  1.00  0.00    -0.296 C  
HETATM    7  C   UNL     1     -10.945  17.076  65.482  1.00  0.00     0.025 C  
HETATM    8  C   UNL     1     -10.466  17.252  67.907  1.00  0.00    -0.382 C  
BRANCH   6   9
HETATM    9  C   UNL     1      -9.866  15.137  66.615  1.00  0.00    -0.265 A  
HETATM   10  C   UNL     1     -10.908  14.315  66.149  1.00  0.00    -0.310 A  
HETATM   11  C   UNL     1     -10.813  12.923  66.196  1.00  0.00    -0.300 A  
HETATM   12  C   UNL     1      -9.684  12.309  66.724  1.00  0.00    -0.213 A  
HETATM   13  C   UNL     1      -8.735  14.489  67.155  1.00  0.00    -0.237 A  
HETATM   14  C   UNL     1      -8.646  13.094  67.215  1.00  0.00    -0.210 A  
BRANCH  12  15
HETATM   15  O   UNL     1      -9.732  10.942  66.737  1.00  0.00    -0.183 OA 
BRANCH  15  16
HETATM   16  C   UNL     1      -8.852  10.294  67.645  1.00  0.00    -0.121 C  
BRANCH  16  17
HETATM   17  C   UNL     1      -9.677   9.317  68.486  1.00  0.00    -0.150 C  
BRANCH  17  18
HETATM   18  O   UNL     1      -9.138   9.010  69.778  1.00  0.00    -0.146 OA 
BRANCH  18  19
HETATM   19  C   UNL     1      -9.932   9.352  70.909  1.00  0.00    -0.283 C  
BRANCH  19  20
HETATM   20  C   UNL     1     -11.388   8.896  70.740  1.00  0.00    -0.278 C  
BRANCH  20  21
HETATM   21  N   UNL     1     -11.690   7.462  71.197  1.00  0.00    -0.285 N  
HETATM   22  C   UNL     1     -13.207   7.376  71.406  1.00  0.00    -0.339 C  
HETATM   23  C   UNL     1     -11.307   6.467  70.107  1.00  0.00    -0.420 C  
BRANCH  21  24
HETATM   24  C   UNL     1     -10.958   7.156  72.531  1.00  0.00    -0.273 C  
BRANCH  24  25
HETATM   25  C   UNL     1     -10.449   5.748  72.677  1.00  0.00    -0.243 A  
HETATM   26  C   UNL     1     -11.267   4.760  73.247  1.00  0.00    -0.421 A  
HETATM   27  C   UNL     1     -10.755   3.495  73.526  1.00  0.00    -0.307 A  
HETATM   28  C   UNL     1      -9.430   3.197  73.220  1.00  0.00    -0.123 A  
HETATM   29  C   UNL     1      -8.625   4.148  72.598  1.00  0.00    -0.106 A  
HETATM   30  C   UNL     1      -9.134   5.415  72.314  1.00  0.00    -0.151 A  
ENDBRANCH  24  25
ENDBRANCH  21  24
ENDBRANCH  20  21
ENDBRANCH  19  20
ENDBRANCH  18  19
ENDBRANCH  17  18
ENDBRANCH  16  17
ENDBRANCH  15  16
ENDBRANCH  12  15
ENDBRANCH   6   9
ENDBRANCH   5   6
ENDBRANCH   2   5
TORSDOF 12
ENDMDL
MODEL      193
REMARK 921   NORMALIZED FREE ENERGY PREDICTED BY IDOCK:   -3.94 KCAL/MOL
REMARK 922        TOTAL FREE ENERGY PREDICTED BY IDOCK:   -7.97 KCAL/MOL
REMARK 923 INTER-LIGAND FREE ENERGY PREDICTED BY IDOCK:   -7.58 KCAL/MOL
REMARK 924 INTRA-LIGAND FREE ENERGY PREDICTED BY IDOCK:   -0.38 KCAL/MOL
REMARK 927      BINDING AFFINITY PREDICTED BY RF-SCORE:    0.00 PKD
ROOT
HETATM    1  C   UNL     1      -9.694   2.753  72.109  1.00  0.00    -0.223 C  
HETATM    2  C   UNL     1      -8.512   3.329  72.900  1.00  0.00    -0.081 C  
HETATM    3  C   UNL     1      -8.027   2.304  73.935  1.00  0.00    -0.054 C  
HETATM    4  C   UNL     1      -7.354   3.519  71.884  1.00  0.00    -0.051 C  
ENDROOT
BRANCH   2   5
HETATM    5  C   UNL     1      -8.816   4.729  73.526  1.00  0.00    -0.105 C  
BRANCH   5   6
HETATM    6  C   UNL     1     -10.034   5.647  73.126  1.00  0.00    -0.190 C  
HETATM    7  C   UNL     1     -10.107   6.946  73.960  1.00  0.00    -0.383 C  
HETATM    8  C   UNL     1     -11.388   4.929  73.303  1.00  0.00    -0.408 C  
BRANCH   6   9
HETATM    9  C   UNL     1      -9.818   6.066  71.646  1.00  0.00    -0.196 A  
HETATM   10  C   UNL     1      -8.742   6.867  71.223  1.00  0.00    -0.134 A  
HETATM   11  C   UNL     1      -8.579   7.218  69.882  1.00  0.00    -0.141 A  
HETATM   12  C   UNL     1      -9.493   6.794  68.925  1.00  0.00    -0.128 A  
HETATM   13  C   UNL     1     -10.736   5.656  70.657  1.00  0.00    -0.333 A  
HETATM   14  C   UNL     1     -10.581   6.020  69.314  1.00  0.00    -0.366 A  
BRANCH  12  15
HETATM   15  O   UNL     1      -9.233   7.231  67.655  1.00  0.00    -0.127 OA 
BRANCH  15  16
HETATM   16  C   UNL     1     -10.341   7.754  66.935  1.00  0.00    -0.326 C  
BRANCH  16  17
HETATM   17  C   UNL     1      -9.852   8.955  66.122  1.00  0.00    -0.256 C  
BRANCH  17  18
HETATM   18  O   UNL     1     -10.551  10.183  66.357  1.00  0.00    -0.177 OA 
BRANCH  18  19
HETATM   19  C   UNL     1     -10.196  11.298  65.544  1.00  0.00    -0.260 C  
BRANCH  19  20
HETATM   20  C   UNL     1     -10.135  12.597  66.359  1.00  0.00    -0.253 C  
BRANCH  20  21
HETATM   21  N   UNL     1     -11.220  13.634  66.034  1.00  0.00    -0.294 N  
HETATM   22  C   UNL     1     -12.364  12.875  65.349  1.00  0.00    -0.485 C  
HETATM   23  C   UNL     1     -11.766  14.250  67.317  1.00  0.00    -0.395 C  
BRANCH  21  24
HETATM   24  C   UNL     1     -10.660  14.717  65.074  1.00  0.00    -0.429 C  
BRANCH  24  25
HETATM   25  C   UNL     1     -10.115  15.950  65.744  1.00  0.00    -0.389 A  
HETATM   26  C   UNL     1     -10.910  17.103  65.845  1.00  0.00    -0.017 A  
HETATM   27  C   UNL     1     -10.366  18.293  66.324  1.00  0.00    -0.422 A  
HETATM   28  C   UNL     1      -9.034  18.339  66.726  1.00  0.00    -0.289 A  
HETATM   29  C   UNL     1      -8.252  17.187  66.687  1.00  0.00    -0.291 A  
HETATM   30  C   UNL     1      -8.793  15.992  66.212  1.00  0.00    -0.379 A  
ENDBRANCH  24  25
ENDBRANCH  21  24
ENDBRANCH  20  21
ENDBRANCH  19  20
ENDBRANCH  18  19
ENDBRANCH  17  18
ENDBRANCH  16  17
ENDBRANCH  15  16
ENDBRANCH  12  15
ENDBRANCH   6   9
ENDBRANCH   5   6
ENDBRANCH   2   5
TORSDOF 12
ENDMDL
MODEL      194
REMARK 921   NORMALIZED FREE ENERGY PREDICTED BY IDOCK:   -3.93 KCAL/MOL
REMARK 922        TOTAL FREE ENERGY PREDICTED BY IDOCK:   -7.96 KCAL/MOL
REMARK 923 INTER-LIGAND FREE ENERGY PREDICTED BY IDOCK:   -6.02 KCAL/MOL
REMARK 924 INTRA-LIGAND FREE ENERGY PREDICTED BY IDOCK:   -1.94 KCAL/MOL
REMARK 927      BINDING AFFINITY PREDICTED BY RF-SCORE:    0.00 PKD
ROOT
HETATM    1  C   UNL     1      -7.390   7.999  72.687  1.00  0.00    -0.130 C  
HETATM    2  C   UNL     1      -8.610   7.083  72.849  1.00  0.00    -0.132 C  
HETATM    3  C   UNL     1      -8.179   5.614  72.733  1.00  0.00    -0.112 C  
HETATM    4  C   UNL     1      -9.122   7.284  74.301  1.00  0.00    -0.245 C  
ENDROOT
BRANCH   2   5
HETATM    5  C   UNL     1      -9.786   7.450  71.886  1.00  0.00    -0.187 C  
BRANCH   5   6
HETATM    6  C   UNL     1     -10.998   6.500  71.547  1.00  0.00    -0.298 C  
HETATM    7  C   UNL     1     -12.344   7.253  71.451  1.00  0.00    -0.403 C  
HETATM    8  C   UNL     1     -11.184   5.390  72.602  1.00  0.00    -0.333 C  
BRANCH   6   9
HETATM    9  C   UNL     1     -10.716   5.891  70.145  1.00  0.00    -0.389 A  
HETATM   10  C   UNL     1     -10.012   4.689  69.956  1.00  0.00    -0.302 A  
HETATM   11  C   UNL     1      -9.784   4.171  68.680  1.00  0.00    -0.157 A  
HETATM   12  C   UNL     1     -10.237   4.846  67.553  1.00  0.00    -0.096 A  
HETATM   13  C   UNL     1     -11.158   6.561  68.985  1.00  0.00    -0.375 A  
HETATM   14  C   UNL     1     -10.917   6.051  67.705  1.00  0.00    -0.334 A  
BRANCH  12  15
HETATM   15  O   UNL     1      -9.923   4.247  66.364  1.00  0.00    -0.221 OA 
BRANCH  15  16
HETATM   16  C   UNL     1      -9.160   5.027  65.454  1.00  0.00    -0.154 C  
BRANCH  16  17
HETATM   17  C   UNL     1      -7.690   4.941  65.874  1.00  0.00    -0.091 C  
BRANCH  17  18
HETATM   18  O   UNL     1      -7.147   6.130  66.460  1.00  0.00    -0.065 OA 
BRANCH  18  19
HETATM   19  C   UNL     1      -7.699   7.372  66.037  1.00  0.00    -0.095 C  
BRANCH  19  20
HETATM   20  C   UNL     1      -7.990   8.298  67.226  1.00  0.00    -0.105 C  
BRANCH  20  21
HETATM   21  N   UNL     1      -6.848   9.245  67.622  1.00  0.00    -0.075 N  
HETATM   22  C   UNL     1      -6.181   8.638  68.862  1.00  0.00    -0.044 C  
HETATM   23  C   UNL     1      -5.806   9.312  66.512  1.00  0.00    -0.058 C  
BRANCH  21  24
HETATM   24  C   UNL     1      -7.409  10.652  67.964  1.00  0.00    -0.088 C  
BRANCH  24  25
HETATM   25  C   UNL     1      -8.877  10.697  68.291  1.00  0.00    -0.139 A  
HETATM   26  C   UNL     1      -9.323  10.326  69.570  1.00  0.00    -0.200 A  
HETATM   27  C   UNL     1     -10.685  10.217  69.837  1.00  0.00    -0.344 A  
HETATM   28  C   UNL     1     -11.615  10.496  68.839  1.00  0.00    -0.266 A  
HETATM   29  C   UNL     1     -11.188  10.922  67.584  1.00  0.00    -0.379 A  
HETATM   30  C   UNL     1      -9.825  11.037  67.313  1.00  0.00    -0.204 A  
ENDBRANCH  24  25
ENDBRANCH  21  24
ENDBRANCH  20  21
ENDBRANCH  19  20
ENDBRANCH  18  19
ENDBRANCH  17  18
ENDBRANCH  16  17
ENDBRANCH  15  16
ENDBRANCH  12  15
ENDBRANCH   6   9
ENDBRANCH   5   6
ENDBRANCH   2   5
TORSDOF 12
ENDMDL
MODEL      195
REMARK 921   NORMALIZED FREE ENERGY PREDICTED BY IDOCK:   -3.93 KCAL/MOL
REMARK 922        TOTAL FREE ENERGY PREDICTED BY IDOCK:   -7.95 KCAL/MOL
REMARK 923 INTER-LIGAND FREE ENERGY PREDICTED BY IDOCK:   -7.19 KCAL/MOL
REMARK 924 INTRA-LIGAND FREE ENERGY PREDICTED BY IDOCK:   -0.76 KCAL/MOL
REMARK 927      BINDING AFFINITY PREDICTED BY RF-SCORE:    0.00 PKD
ROOT
HETATM    1  C   UNL     1     -11.169  16.290  68.623  1.00  0.00    -0.354 C  
HETATM    2  C   UNL     1     -10.267  15.111  68.234  1.00  0.00    -0.223 C  
HETATM    3  C   UNL     1      -8.921  15.220  68.963  1.00  0.00    -0.225 C  
HETATM    4  C   UNL     1     -10.962  13.830  68.769  1.00  0.00    -0.289 C  
ENDROOT
BRANCH   2   5
HETATM    5  C   UNL     1     -10.110  14.943  66.687  1.00  0.00    -0.264 C  
BRANCH   5   6
HETATM    6  C   UNL     1     -11.158  14.228  65.750  1.00  0.00    -0.310 C  
HETATM    7  C   UNL     1     -11.549  15.084  64.525  1.00  0.00    -0.346 C  
HETATM    8  C   UNL     1     -12.467  13.888  66.492  1.00  0.00    -0.364 C  
BRANCH   6   9
HETATM    9  C   UNL     1     -10.476  12.942  65.209  1.00  0.00    -0.312 A  
HETATM   10  C   UNL     1      -9.607  12.149  65.980  1.00  0.00    -0.242 A  
HETATM   11  C   UNL     1      -9.018  10.996  65.458  1.00  0.00    -0.208 A  
HETATM   12  C   UNL     1      -9.265  10.607  64.147  1.00  0.00    -0.236 A  
HETATM   13  C   UNL     1     -10.704  12.531  63.879  1.00  0.00    -0.473 A  
HETATM   14  C   UNL     1     -10.102  11.383  63.351  1.00  0.00    -0.444 A  
BRANCH  12  15
HETATM   15  O   UNL     1      -8.604   9.477  63.752  1.00  0.00    -0.185 OA 
BRANCH  15  16
HETATM   16  C   UNL     1      -8.460   8.461  64.735  1.00  0.00    -0.101 C  
BRANCH  16  17
HETATM   17  C   UNL     1      -7.093   7.802  64.538  1.00  0.00    -0.065 C  
BRANCH  17  18
HETATM   18  O   UNL     1      -6.732   6.827  65.523  1.00  0.00    -0.049 OA 
BRANCH  18  19
HETATM   19  C   UNL     1      -7.668   5.785  65.778  1.00  0.00    -0.095 C  
BRANCH  19  20
HETATM   20  C   UNL     1      -8.280   5.902  67.181  1.00  0.00    -0.105 C  
BRANCH  20  21
HETATM   21  N   UNL     1      -9.540   5.059  67.426  1.00  0.00    -0.137 N  
HETATM   22  C   UNL     1      -9.746   4.199  66.173  1.00  0.00    -0.205 C  
HETATM   23  C   UNL     1      -9.329   4.123  68.611  1.00  0.00    -0.157 C  
BRANCH  21  24
HETATM   24  C   UNL     1     -10.771   5.981  67.639  1.00  0.00    -0.296 C  
BRANCH  24  25
HETATM   25  C   UNL     1     -10.525   7.196  68.492  1.00  0.00    -0.229 A  
HETATM   26  C   UNL     1     -10.498   7.078  69.891  1.00  0.00    -0.234 A  
HETATM   27  C   UNL     1     -10.424   8.214  70.692  1.00  0.00    -0.224 A  
HETATM   28  C   UNL     1     -10.355   9.476  70.107  1.00  0.00    -0.300 A  
HETATM   29  C   UNL     1     -10.320   9.603  68.721  1.00  0.00    -0.233 A  
HETATM   30  C   UNL     1     -10.390   8.468  67.914  1.00  0.00    -0.281 A  
ENDBRANCH  24  25
ENDBRANCH  21  24
ENDBRANCH  20  21
ENDBRANCH  19  20
ENDBRANCH  18  19
ENDBRANCH  17  18
ENDBRANCH  16  17
ENDBRANCH  15  16
ENDBRANCH  12  15
ENDBRANCH   6   9
ENDBRANCH   5   6
ENDBRANCH   2   5
TORSDOF 12
ENDMDL
MODEL      196
REMARK 921   NORMALIZED FREE ENERGY PREDICTED BY IDOCK:   -3.92 KCAL/MOL
REMARK 922        TOTAL FREE ENERGY PREDICTED BY IDOCK:   -7.94 KCAL/MOL
REMARK 923 INTER-LIGAND FREE ENERGY PREDICTED BY IDOCK:   -6.47 KCAL/MOL
REMARK 924 INTRA-LIGAND FREE ENERGY PREDICTED BY IDOCK:   -1.47 KCAL/MOL
REMARK 927      BINDING AFFINITY PREDICTED BY RF-SCORE:    0.00 PKD
ROOT
HETATM    1  C   UNL     1     -10.292   8.307  67.444  1.00  0.00    -0.350 C  
HETATM    2  C   UNL     1      -9.183   8.836  66.524  1.00  0.00    -0.228 C  
HETATM    3  C   UNL     1      -8.456   7.662  65.855  1.00  0.00    -0.150 C  
HETATM    4  C   UNL     1      -9.891   9.626  65.391  1.00  0.00    -0.322 C  
ENDROOT
BRANCH   2   5
HETATM    5  C   UNL     1      -8.210   9.826  67.243  1.00  0.00    -0.117 C  
BRANCH   5   6
HETATM    6  C   UNL     1      -8.590  10.714  68.489  1.00  0.00    -0.137 C  
HETATM    7  C   UNL     1      -8.314  10.010  69.836  1.00  0.00    -0.169 C  
HETATM    8  C   UNL     1     -10.082  11.109  68.491  1.00  0.00    -0.208 C  
BRANCH   6   9
HETATM    9  C   UNL     1      -7.684  11.975  68.439  1.00  0.00    -0.138 A  
HETATM   10  C   UNL     1      -8.096  13.238  68.899  1.00  0.00     0.171 A  
HETATM   11  C   UNL     1      -7.249  14.346  68.842  1.00  0.00    -0.125 A  
HETATM   12  C   UNL     1      -5.971  14.231  68.309  1.00  0.00    -0.120 A  
HETATM   13  C   UNL     1      -6.385  11.887  67.895  1.00  0.00    -0.064 A  
HETATM   14  C   UNL     1      -5.541  13.001  67.824  1.00  0.00    -0.126 A  
BRANCH  12  15
HETATM   15  O   UNL     1      -5.255  15.397  68.286  1.00  0.00    -0.095 OA 
BRANCH  15  16
HETATM   16  C   UNL     1      -5.670  16.366  67.333  1.00  0.00    -0.153 C  
BRANCH  16  17
HETATM   17  C   UNL     1      -5.910  17.685  68.073  1.00  0.00    -0.154 C  
BRANCH  17  18
HETATM   18  O   UNL     1      -6.824  18.588  67.441  1.00  0.00    -0.200 OA 
BRANCH  18  19
HETATM   19  C   UNL     1      -7.991  18.947  68.173  1.00  0.00    -0.300 C  
BRANCH  19  20
HETATM   20  C   UNL     1      -8.944  17.756  68.341  1.00  0.00    -0.281 C  
BRANCH  20  21
HETATM   21  N   UNL     1     -10.193  17.776  67.448  1.00  0.00    -0.339 N  
HETATM   22  C   UNL     1     -11.151  16.714  68.004  1.00  0.00    -0.255 C  
HETATM   23  C   UNL     1     -10.888  19.130  67.539  1.00  0.00    -0.414 C  
BRANCH  21  24
HETATM   24  C   UNL     1      -9.814  17.427  65.984  1.00  0.00    -0.183 C  
BRANCH  24  25
HETATM   25  C   UNL     1     -10.194  16.042  65.535  1.00  0.00    -0.389 A  
HETATM   26  C   UNL     1     -11.321  15.853  64.719  1.00  0.00    -0.314 A  
HETATM   27  C   UNL     1     -11.769  14.567  64.424  1.00  0.00    -0.381 A  
HETATM   28  C   UNL     1     -11.088  13.460  64.922  1.00  0.00    -0.348 A  
HETATM   29  C   UNL     1      -9.934  13.633  65.683  1.00  0.00    -0.261 A  
HETATM   30  C   UNL     1      -9.479  14.918  65.978  1.00  0.00    -0.316 A  
ENDBRANCH  24  25
ENDBRANCH  21  24
ENDBRANCH  20  21
ENDBRANCH  19  20
ENDBRANCH  18  19
ENDBRANCH  17  18
ENDBRANCH  16  17
ENDBRANCH  15  16
ENDBRANCH  12  15
ENDBRANCH   6   9
ENDBRANCH   5   6
ENDBRANCH   2   5
TORSDOF 12
ENDMDL
MODEL      197
REMARK 921   NORMALIZED FREE ENERGY PREDICTED BY IDOCK:   -3.92 KCAL/MOL
REMARK 922        TOTAL FREE ENERGY PREDICTED BY IDOCK:   -7.94 KCAL/MOL
REMARK 923 INTER-LIGAND FREE ENERGY PREDICTED BY IDOCK:   -7.14 KCAL/MOL
REMARK 924 INTRA-LIGAND FREE ENERGY PREDICTED BY IDOCK:   -0.80 KCAL/MOL
REMARK 927      BINDING AFFINITY PREDICTED BY RF-SCORE:    0.00 PKD
ROOT
HETATM    1  C   UNL     1     -11.081  15.520  64.761  1.00  0.00    -0.421 C  
HETATM    2  C   UNL     1     -11.239  14.100  65.318  1.00  0.00    -0.326 C  
HETATM    3  C   UNL     1     -12.720  13.810  65.597  1.00  0.00    -0.523 C  
HETATM    4  C   UNL     1     -10.802  13.131  64.186  1.00  0.00    -0.407 C  
ENDROOT
BRANCH   2   5
HETATM    5  C   UNL     1     -10.320  13.818  66.551  1.00  0.00    -0.286 C  
BRANCH   5   6
HETATM    6  C   UNL     1     -10.580  14.363  68.008  1.00  0.00    -0.241 C  
HETATM    7  C   UNL     1     -11.549  15.566  68.035  1.00  0.00    -0.276 C  
HETATM    8  C   UNL     1      -9.280  14.824  68.699  1.00  0.00    -0.194 C  
BRANCH   6   9
HETATM    9  C   UNL     1     -11.256  13.215  68.807  1.00  0.00    -0.323 A  
HETATM   10  C   UNL     1     -11.250  11.875  68.382  1.00  0.00    -0.312 A  
HETATM   11  C   UNL     1     -11.865  10.871  69.131  1.00  0.00    -0.389 A  
HETATM   12  C   UNL     1     -12.518  11.175  70.319  1.00  0.00    -0.274 A  
HETATM   13  C   UNL     1     -11.934  13.500  70.011  1.00  0.00    -0.410 A  
HETATM   14  C   UNL     1     -12.563  12.495  70.755  1.00  0.00    -0.299 A  
BRANCH  12  15
HETATM   15  O   UNL     1     -13.102  10.105  70.940  1.00  0.00    -0.381 OA 
BRANCH  15  16
HETATM   16  C   UNL     1     -12.471   9.651  72.129  1.00  0.00    -0.273 C  
BRANCH  16  17
HETATM   17  C   UNL     1     -11.651   8.406  71.783  1.00  0.00    -0.308 C  
BRANCH  17  18
HETATM   18  O   UNL     1     -11.909   7.254  72.594  1.00  0.00    -0.214 OA 
BRANCH  18  19
HETATM   19  C   UNL     1     -10.793   6.438  72.936  1.00  0.00    -0.256 C  
BRANCH  19  20
HETATM   20  C   UNL     1      -9.500   7.259  73.037  1.00  0.00    -0.168 C  
BRANCH  20  21
HETATM   21  N   UNL     1      -8.200   6.444  73.079  1.00  0.00    -0.116 N  
HETATM   22  C   UNL     1      -7.728   6.440  74.538  1.00  0.00    -0.102 C  
HETATM   23  C   UNL     1      -8.466   5.001  72.666  1.00  0.00    -0.116 C  
BRANCH  21  24
HETATM   24  C   UNL     1      -7.120   7.105  72.180  1.00  0.00    -0.068 C  
BRANCH  24  25
HETATM   25  C   UNL     1      -7.168   6.716  70.727  1.00  0.00    -0.070 A  
HETATM   26  C   UNL     1      -6.075   6.059  70.140  1.00  0.00    -0.026 A  
HETATM   27  C   UNL     1      -6.045   5.832  68.766  1.00  0.00    -0.025 A  
HETATM   28  C   UNL     1      -7.112   6.238  67.969  1.00  0.00    -0.082 A  
HETATM   29  C   UNL     1      -8.229   6.838  68.547  1.00  0.00    -0.120 A  
HETATM   30  C   UNL     1      -8.265   7.063  69.923  1.00  0.00    -0.130 A  
ENDBRANCH  24  25
ENDBRANCH  21  24
ENDBRANCH  20  21
ENDBRANCH  19  20
ENDBRANCH  18  19
ENDBRANCH  17  18
ENDBRANCH  16  17
ENDBRANCH  15  16
ENDBRANCH  12  15
ENDBRANCH   6   9
ENDBRANCH   5   6
ENDBRANCH   2   5
TORSDOF 12
ENDMDL
MODEL      198
REMARK 921   NORMALIZED FREE ENERGY PREDICTED BY IDOCK:   -3.92 KCAL/MOL
REMARK 922        TOTAL FREE ENERGY PREDICTED BY IDOCK:   -7.94 KCAL/MOL
REMARK 923 INTER-LIGAND FREE ENERGY PREDICTED BY IDOCK:   -7.31 KCAL/MOL
REMARK 924 INTRA-LIGAND FREE ENERGY PREDICTED BY IDOCK:   -0.63 KCAL/MOL
REMARK 927      BINDING AFFINITY PREDICTED BY RF-SCORE:    0.00 PKD
ROOT
HETATM    1  C   UNL     1      -9.095   1.555  64.555  1.00  0.00    -0.116 C  
HETATM    2  C   UNL     1      -9.602   2.670  63.631  1.00  0.00    -0.113 C  
HETATM    3  C   UNL     1      -8.698   2.774  62.395  1.00  0.00    -0.074 C  
HETATM    4  C   UNL     1     -10.999   2.221  63.126  1.00  0.00    -0.245 C  
ENDROOT
BRANCH   2   5
HETATM    5  C   UNL     1      -9.790   4.037  64.365  1.00  0.00    -0.183 C  
BRANCH   5   6
HETATM    6  C   UNL     1      -8.620   4.894  64.984  1.00  0.00    -0.147 C  
HETATM    7  C   UNL     1      -8.045   5.930  63.992  1.00  0.00    -0.102 C  
HETATM    8  C   UNL     1      -7.437   4.018  65.446  1.00  0.00    -0.081 C  
BRANCH   6   9
HETATM    9  C   UNL     1      -9.222   5.688  66.176  1.00  0.00    -0.169 A  
HETATM   10  C   UNL     1     -10.515   5.460  66.677  1.00  0.00    -0.356 A  
HETATM   11  C   UNL     1     -11.018   6.192  67.754  1.00  0.00    -0.400 A  
HETATM   12  C   UNL     1     -10.252   7.183  68.353  1.00  0.00    -0.174 A  
HETATM   13  C   UNL     1      -8.467   6.706  66.796  1.00  0.00    -0.117 A  
HETATM   14  C   UNL     1      -8.976   7.450  67.866  1.00  0.00    -0.131 A  
BRANCH  12  15
HETATM   15  O   UNL     1     -10.873   7.844  69.378  1.00  0.00    -0.205 OA 
BRANCH  15  16
HETATM   16  C   UNL     1     -10.086   8.801  70.073  1.00  0.00    -0.190 C  
BRANCH  16  17
HETATM   17  C   UNL     1     -10.777  10.161  69.948  1.00  0.00    -0.295 C  
BRANCH  17  18
HETATM   18  O   UNL     1     -10.285  11.008  68.902  1.00  0.00    -0.195 OA 
BRANCH  18  19
HETATM   19  C   UNL     1     -10.904  12.281  68.753  1.00  0.00    -0.229 C  
BRANCH  19  20
HETATM   20  C   UNL     1      -9.878  13.376  68.430  1.00  0.00    -0.216 C  
BRANCH  20  21
HETATM   21  N   UNL     1     -10.428  14.596  67.677  1.00  0.00    -0.242 N  
HETATM   22  C   UNL     1     -11.957  14.472  67.691  1.00  0.00    -0.320 C  
HETATM   23  C   UNL     1     -10.053  15.882  68.405  1.00  0.00    -0.223 C  
BRANCH  21  24
HETATM   24  C   UNL     1      -9.916  14.601  66.211  1.00  0.00    -0.290 C  
BRANCH  24  25
HETATM   25  C   UNL     1     -10.639  13.671  65.275  1.00  0.00    -0.354 A  
HETATM   26  C   UNL     1     -10.169  12.362  65.085  1.00  0.00    -0.305 A  
HETATM   27  C   UNL     1     -10.736  11.545  64.110  1.00  0.00    -0.428 A  
HETATM   28  C   UNL     1     -11.789  12.017  63.331  1.00  0.00    -0.542 A  
HETATM   29  C   UNL     1     -12.304  13.293  63.550  1.00  0.00    -0.442 A  
HETATM   30  C   UNL     1     -11.742  14.113  64.528  1.00  0.00    -0.426 A  
ENDBRANCH  24  25
ENDBRANCH  21  24
ENDBRANCH  20  21
ENDBRANCH  19  20
ENDBRANCH  18  19
ENDBRANCH  17  18
ENDBRANCH  16  17
ENDBRANCH  15  16
ENDBRANCH  12  15
ENDBRANCH   6   9
ENDBRANCH   5   6
ENDBRANCH   2   5
TORSDOF 12
ENDMDL
MODEL      199
REMARK 921   NORMALIZED FREE ENERGY PREDICTED BY IDOCK:   -3.90 KCAL/MOL
REMARK 922        TOTAL FREE ENERGY PREDICTED BY IDOCK:   -7.90 KCAL/MOL
REMARK 923 INTER-LIGAND FREE ENERGY PREDICTED BY IDOCK:   -7.43 KCAL/MOL
REMARK 924 INTRA-LIGAND FREE ENERGY PREDICTED BY IDOCK:   -0.47 KCAL/MOL
REMARK 927      BINDING AFFINITY PREDICTED BY RF-SCORE:    0.00 PKD
ROOT
HETATM    1  C   UNL     1     -13.604   8.347  71.798  1.00  0.00    -0.405 C  
HETATM    2  C   UNL     1     -12.111   8.058  71.597  1.00  0.00    -0.339 C  
HETATM    3  C   UNL     1     -11.434   9.256  70.917  1.00  0.00    -0.367 C  
HETATM    4  C   UNL     1     -11.489   7.941  73.015  1.00  0.00    -0.230 C  
ENDROOT
BRANCH   2   5
HETATM    5  C   UNL     1     -11.840   6.707  70.858  1.00  0.00    -0.434 C  
BRANCH   5   6
HETATM    6  C   UNL     1     -10.417   6.054  70.673  1.00  0.00    -0.305 C  
HETATM    7  C   UNL     1     -10.448   4.511  70.764  1.00  0.00     0.089 C  
HETATM    8  C   UNL     1      -9.408   6.542  71.732  1.00  0.00    -0.149 C  
BRANCH   6   9
HETATM    9  C   UNL     1      -9.936   6.416  69.241  1.00  0.00    -0.178 A  
HETATM   10  C   UNL     1      -8.593   6.690  68.927  1.00  0.00    -0.126 A  
HETATM   11  C   UNL     1      -8.200   7.007  67.625  1.00  0.00    -0.117 A  
HETATM   12  C   UNL     1      -9.137   7.076  66.601  1.00  0.00    -0.152 A  
HETATM   13  C   UNL     1     -10.869   6.501  68.185  1.00  0.00    -0.370 A  
HETATM   14  C   UNL     1     -10.477   6.833  66.883  1.00  0.00    -0.350 A  
BRANCH  12  15
HETATM   15  O   UNL     1      -8.624   7.424  65.381  1.00  0.00    -0.127 OA 
BRANCH  15  16
HETATM   16  C   UNL     1      -8.162   8.762  65.256  1.00  0.00    -0.144 C  
BRANCH  16  17
HETATM   17  C   UNL     1      -9.369   9.652  64.952  1.00  0.00    -0.242 C  
BRANCH  17  18
HETATM   18  O   UNL     1      -9.062  11.012  64.619  1.00  0.00    -0.189 OA 
BRANCH  18  19
HETATM   19  C   UNL     1     -10.135  11.823  64.152  1.00  0.00    -0.310 C  
BRANCH  19  20
HETATM   20  C   UNL     1     -11.223  11.996  65.221  1.00  0.00    -0.322 C  
BRANCH  20  21
HETATM   21  N   UNL     1     -11.484  13.440  65.672  1.00  0.00    -0.311 N  
HETATM   22  C   UNL     1     -10.371  14.301  65.061  1.00  0.00    -0.421 C  
HETATM   23  C   UNL     1     -12.817  13.935  65.123  1.00  0.00    -0.342 C  
BRANCH  21  24
HETATM   24  C   UNL     1     -11.433  13.539  67.221  1.00  0.00    -0.339 C  
BRANCH  24  25
HETATM   25  C   UNL     1     -10.192  14.178  67.783  1.00  0.00    -0.242 A  
HETATM   26  C   UNL     1      -9.012  13.429  67.909  1.00  0.00    -0.201 A  
HETATM   27  C   UNL     1      -7.905  13.962  68.567  1.00  0.00    -0.139 A  
HETATM   28  C   UNL     1      -7.959  15.252  69.086  1.00  0.00    -0.214 A  
HETATM   29  C   UNL     1      -9.103  16.028  68.915  1.00  0.00    -0.235 A  
HETATM   30  C   UNL     1     -10.212  15.500  68.254  1.00  0.00    -0.222 A  
ENDBRANCH  24  25
ENDBRANCH  21  24
ENDBRANCH  20  21
ENDBRANCH  19  20
ENDBRANCH  18  19
ENDBRANCH  17  18
ENDBRANCH  16  17
ENDBRANCH  15  16
ENDBRANCH  12  15
ENDBRANCH   6   9
ENDBRANCH   5   6
ENDBRANCH   2   5
TORSDOF 12
ENDMDL
MODEL      200
REMARK 921   NORMALIZED FREE ENERGY PREDICTED BY IDOCK:   -3.90 KCAL/MOL
REMARK 922        TOTAL FREE ENERGY PREDICTED BY IDOCK:   -7.90 KCAL/MOL
REMARK 923 INTER-LIGAND FREE ENERGY PREDICTED BY IDOCK:   -7.60 KCAL/MOL
REMARK 924 INTRA-LIGAND FREE ENERGY PREDICTED BY IDOCK:   -0.30 KCAL/MOL
REMARK 927      BINDING AFFINITY PREDICTED BY RF-SCORE:    0.00 PKD
ROOT
HETATM    1  C   UNL     1     -11.259   7.556  72.949  1.00  0.00    -0.396 C  
HETATM    2  C   UNL     1     -10.355   7.835  71.741  1.00  0.00    -0.243 C  
HETATM    3  C   UNL     1     -10.617   9.250  71.207  1.00  0.00    -0.417 C  
HETATM    4  C   UNL     1      -8.895   7.821  72.271  1.00  0.00    -0.180 C  
ENDROOT
BRANCH   2   5
HETATM    5  C   UNL     1     -10.456   6.737  70.631  1.00  0.00    -0.243 C  
BRANCH   5   6
HETATM    6  C   UNL     1      -9.327   6.419  69.578  1.00  0.00    -0.146 C  
HETATM    7  C   UNL     1      -9.615   5.142  68.756  1.00  0.00    -0.198 C  
HETATM    8  C   UNL     1      -7.949   6.219  70.242  1.00  0.00    -0.112 C  
BRANCH   6   9
HETATM    9  C   UNL     1      -9.294   7.607  68.578  1.00  0.00    -0.147 A  
HETATM   10  C   UNL     1      -8.213   8.501  68.481  1.00  0.00    -0.123 A  
HETATM   11  C   UNL     1      -8.219   9.554  67.565  1.00  0.00    -0.121 A  
HETATM   12  C   UNL     1      -9.309   9.756  66.728  1.00  0.00    -0.152 A  
HETATM   13  C   UNL     1     -10.392   7.839  67.724  1.00  0.00    -0.284 A  
HETATM   14  C   UNL     1     -10.405   8.903  66.815  1.00  0.00    -0.317 A  
BRANCH  12  15
HETATM   15  O   UNL     1      -9.200  10.839  65.899  1.00  0.00    -0.176 OA 
BRANCH  15  16
HETATM   16  C   UNL     1      -8.717  12.036  66.494  1.00  0.00    -0.138 C  
BRANCH  16  17
HETATM   17  C   UNL     1      -9.872  13.039  66.540  1.00  0.00    -0.263 C  
BRANCH  17  18
HETATM   18  O   UNL     1      -9.563  14.307  67.133  1.00  0.00    -0.231 OA 
BRANCH  18  19
HETATM   19  C   UNL     1      -9.381  15.409  66.250  1.00  0.00    -0.316 C  
BRANCH  19  20
HETATM   20  C   UNL     1     -10.410  16.518  66.508  1.00  0.00    -0.305 C  
BRANCH  20  21
HETATM   21  N   UNL     1     -10.049  17.510  67.623  1.00  0.00    -0.314 N  
HETATM   22  C   UNL     1     -10.558  18.885  67.172  1.00  0.00    -0.458 C  
HETATM   23  C   UNL     1     -10.769  17.141  68.915  1.00  0.00    -0.257 C  
BRANCH  21  24
HETATM   24  C   UNL     1      -8.510  17.559  67.822  1.00  0.00    -0.225 C  
BRANCH  24  25
HETATM   25  C   UNL     1      -7.822  18.754  67.218  1.00  0.00    -0.243 A  
HETATM   26  C   UNL     1      -7.426  18.731  65.872  1.00  0.00    -0.233 A  
HETATM   27  C   UNL     1      -6.656  19.765  65.346  1.00  0.00    -0.314 A  
HETATM   28  C   UNL     1      -6.292  20.841  66.150  1.00  0.00    -0.296 A  
HETATM   29  C   UNL     1      -6.728  20.906  67.472  1.00  0.00    -0.422 A  
HETATM   30  C   UNL     1      -7.503  19.874  68.001  1.00  0.00    -0.332 A  
ENDBRANCH  24  25
ENDBRANCH  21  24
ENDBRANCH  20  21
ENDBRANCH  19  20
ENDBRANCH  18  19
ENDBRANCH  17  18
ENDBRANCH  16  17
ENDBRANCH  15  16
ENDBRANCH  12  15
ENDBRANCH   6   9
ENDBRANCH   5   6
ENDBRANCH   2   5
TORSDOF 12
ENDMDL
MODEL      201
REMARK 921   NORMALIZED FREE ENERGY PREDICTED BY IDOCK:   -3.89 KCAL/MOL
REMARK 922        TOTAL FREE ENERGY PREDICTED BY IDOCK:   -7.88 KCAL/MOL
REMARK 923 INTER-LIGAND FREE ENERGY PREDICTED BY IDOCK:   -6.42 KCAL/MOL
REMARK 924 INTRA-LIGAND FREE ENERGY PREDICTED BY IDOCK:   -1.46 KCAL/MOL
REMARK 927      BINDING AFFINITY PREDICTED BY RF-SCORE:    0.00 PKD
ROOT
HETATM    1  C   UNL     1     -11.913  14.660  67.029  1.00  0.00    -0.301 C  
HETATM    2  C   UNL     1     -11.335  13.580  67.954  1.00  0.00    -0.320 C  
HETATM    3  C   UNL     1      -9.930  13.987  68.417  1.00  0.00    -0.236 C  
HETATM    4  C   UNL     1     -12.233  13.559  69.220  1.00  0.00    -0.257 C  
ENDROOT
BRANCH   2   5
HETATM    5  C   UNL     1     -11.379  12.148  67.328  1.00  0.00    -0.398 C  
BRANCH   5   6
HETATM    6  C   UNL     1     -10.808  11.770  65.908  1.00  0.00    -0.339 C  
HETATM    7  C   UNL     1      -9.619  12.660  65.483  1.00  0.00    -0.026 C  
HETATM    8  C   UNL     1     -11.873  11.891  64.799  1.00  0.00    -0.259 C  
BRANCH   6   9
HETATM    9  C   UNL     1     -10.275  10.314  66.008  1.00  0.00    -0.298 A  
HETATM   10  C   UNL     1      -9.186   9.841  65.254  1.00  0.00    -0.294 A  
HETATM   11  C   UNL     1      -8.733   8.526  65.377  1.00  0.00    -0.194 A  
HETATM   12  C   UNL     1      -9.362   7.640  66.243  1.00  0.00    -0.131 A  
HETATM   13  C   UNL     1     -10.902   9.393  66.873  1.00  0.00    -0.055 A  
HETATM   14  C   UNL     1     -10.457   8.071  66.985  1.00  0.00    -0.410 A  
BRANCH  12  15
HETATM   15  O   UNL     1      -8.838   6.376  66.246  1.00  0.00    -0.137 OA 
BRANCH  15  16
HETATM   16  C   UNL     1      -8.384   5.891  67.502  1.00  0.00    -0.105 C  
BRANCH  16  17
HETATM   17  C   UNL     1      -9.503   5.044  68.114  1.00  0.00    -0.132 C  
BRANCH  17  18
HETATM   18  O   UNL     1      -9.185   4.414  69.361  1.00  0.00    -0.109 OA 
BRANCH  18  19
HETATM   19  C   UNL     1     -10.125   4.562  70.420  1.00  0.00    -0.159 C  
BRANCH  19  20
HETATM   20  C   UNL     1     -10.194   6.013  70.918  1.00  0.00    -0.206 C  
BRANCH  20  21
HETATM   21  N   UNL     1      -9.828   6.224  72.394  1.00  0.00    -0.164 N  
HETATM   22  C   UNL     1     -11.021   5.727  73.220  1.00  0.00    -0.253 C  
HETATM   23  C   UNL     1      -8.614   5.381  72.765  1.00  0.00    -0.119 C  
BRANCH  21  24
HETATM   24  C   UNL     1      -9.584   7.731  72.679  1.00  0.00    -0.202 C  
BRANCH  24  25
HETATM   25  C   UNL     1      -9.164   8.550  71.488  1.00  0.00    -0.288 A  
HETATM   26  C   UNL     1      -7.801   8.724  71.202  1.00  0.00    -0.161 A  
HETATM   27  C   UNL     1      -7.398   9.601  70.198  1.00  0.00    -0.141 A  
HETATM   28  C   UNL     1      -8.350  10.296  69.457  1.00  0.00    -0.162 A  
HETATM   29  C   UNL     1      -9.707  10.087  69.690  1.00  0.00    -0.255 A  
HETATM   30  C   UNL     1     -10.115   9.207  70.692  1.00  0.00    -0.307 A  
ENDBRANCH  24  25
ENDBRANCH  21  24
ENDBRANCH  20  21
ENDBRANCH  19  20
ENDBRANCH  18  19
ENDBRANCH  17  18
ENDBRANCH  16  17
ENDBRANCH  15  16
ENDBRANCH  12  15
ENDBRANCH   6   9
ENDBRANCH   5   6
ENDBRANCH   2   5
TORSDOF 12
ENDMDL
MODEL      202
REMARK 921   NORMALIZED FREE ENERGY PREDICTED BY IDOCK:   -3.87 KCAL/MOL
REMARK 922        TOTAL FREE ENERGY PREDICTED BY IDOCK:   -7.85 KCAL/MOL
REMARK 923 INTER-LIGAND FREE ENERGY PREDICTED BY IDOCK:   -6.35 KCAL/MOL
REMARK 924 INTRA-LIGAND FREE ENERGY PREDICTED BY IDOCK:   -1.50 KCAL/MOL
REMARK 927      BINDING AFFINITY PREDICTED BY RF-SCORE:    0.00 PKD
ROOT
HETATM    1  C   UNL     1      -8.569  10.243  64.361  1.00  0.00    -0.195 C  
HETATM    2  C   UNL     1      -7.640  10.059  65.569  1.00  0.00    -0.136 C  
HETATM    3  C   UNL     1      -7.620   8.584  65.992  1.00  0.00    -0.089 C  
HETATM    4  C   UNL     1      -6.208  10.401  65.078  1.00  0.00    -0.105 C  
ENDROOT
BRANCH   2   5
HETATM    5  C   UNL     1      -7.970  11.028  66.751  1.00  0.00    -0.152 C  
BRANCH   5   6
HETATM    6  C   UNL     1      -7.200  11.060  68.126  1.00  0.00    -0.083 C  
HETATM    7  C   UNL     1      -5.876  10.264  68.093  1.00  0.00    -0.041 C  
HETATM    8  C   UNL     1      -8.041  10.476  69.280  1.00  0.00    -0.152 C  
BRANCH   6   9
HETATM    9  C   UNL     1      -6.833  12.544  68.404  1.00  0.00    -0.085 A  
HETATM   10  C   UNL     1      -7.010  13.570  67.459  1.00  0.00    -0.157 A  
HETATM   11  C   UNL     1      -6.673  14.893  67.749  1.00  0.00    -0.191 A  
HETATM   12  C   UNL     1      -6.134  15.230  68.985  1.00  0.00    -0.099 A  
HETATM   13  C   UNL     1      -6.276  12.910  69.647  1.00  0.00    -0.114 A  
HETATM   14  C   UNL     1      -5.924  14.235  69.933  1.00  0.00    -0.132 A  
BRANCH  12  15
HETATM   15  O   UNL     1      -5.821  16.554  69.129  1.00  0.00    -0.136 OA 
BRANCH  15  16
HETATM   16  C   UNL     1      -6.303  17.425  68.115  1.00  0.00    -0.167 C  
BRANCH  16  17
HETATM   17  C   UNL     1      -7.258  18.427  68.767  1.00  0.00    -0.284 C  
BRANCH  17  18
HETATM   18  O   UNL     1      -8.445  18.722  68.021  1.00  0.00    -0.278 OA 
BRANCH  18  19
HETATM   19  C   UNL     1      -9.394  17.672  67.870  1.00  0.00    -0.268 C  
BRANCH  19  20
HETATM   20  C   UNL     1     -10.281  17.527  69.114  1.00  0.00    -0.256 C  
BRANCH  20  21
HETATM   21  N   UNL     1     -10.867  16.127  69.350  1.00  0.00    -0.295 N  
HETATM   22  C   UNL     1      -9.688  15.145  69.325  1.00  0.00    -0.225 C  
HETATM   23  C   UNL     1     -11.516  16.049  70.727  1.00  0.00    -0.414 C  
BRANCH  21  24
HETATM   24  C   UNL     1     -11.873  15.767  68.223  1.00  0.00    -0.105 C  
BRANCH  24  25
HETATM   25  C   UNL     1     -11.455  14.634  67.326  1.00  0.00    -0.386 A  
HETATM   26  C   UNL     1     -10.571  14.871  66.261  1.00  0.00    -0.309 A  
HETATM   27  C   UNL     1     -10.298  13.866  65.336  1.00  0.00    -0.364 A  
HETATM   28  C   UNL     1     -10.886  12.612  65.475  1.00  0.00    -0.310 A  
HETATM   29  C   UNL     1     -11.717  12.346  66.560  1.00  0.00    -0.443 A  
HETATM   30  C   UNL     1     -11.991  13.347  67.491  1.00  0.00    -0.381 A  
ENDBRANCH  24  25
ENDBRANCH  21  24
ENDBRANCH  20  21
ENDBRANCH  19  20
ENDBRANCH  18  19
ENDBRANCH  17  18
ENDBRANCH  16  17
ENDBRANCH  15  16
ENDBRANCH  12  15
ENDBRANCH   6   9
ENDBRANCH   5   6
ENDBRANCH   2   5
TORSDOF 12
ENDMDL
MODEL      203
REMARK 921   NORMALIZED FREE ENERGY PREDICTED BY IDOCK:   -3.86 KCAL/MOL
REMARK 922        TOTAL FREE ENERGY PREDICTED BY IDOCK:   -7.84 KCAL/MOL
REMARK 923 INTER-LIGAND FREE ENERGY PREDICTED BY IDOCK:   -6.30 KCAL/MOL
REMARK 924 INTRA-LIGAND FREE ENERGY PREDICTED BY IDOCK:   -1.54 KCAL/MOL
REMARK 927      BINDING AFFINITY PREDICTED BY RF-SCORE:    0.00 PKD
ROOT
HETATM    1  C   UNL     1     -10.802  14.417  64.971  1.00  0.00    -0.420 C  
HETATM    2  C   UNL     1     -10.814  12.896  65.176  1.00  0.00    -0.320 C  
HETATM    3  C   UNL     1     -12.031  12.492  66.019  1.00  0.00    -0.456 C  
HETATM    4  C   UNL     1     -11.014  12.264  63.772  1.00  0.00    -0.495 C  
ENDROOT
BRANCH   2   5
HETATM    5  C   UNL     1      -9.467  12.342  65.746  1.00  0.00    -0.094 C  
BRANCH   5   6
HETATM    6  C   UNL     1      -9.051  10.822  65.747  1.00  0.00    -0.208 C  
HETATM    7  C   UNL     1      -7.519  10.618  65.779  1.00  0.00    -0.114 C  
HETATM    8  C   UNL     1      -9.573  10.072  64.504  1.00  0.00    -0.346 C  
BRANCH   6   9
HETATM    9  C   UNL     1      -9.620  10.198  67.051  1.00  0.00    -0.209 A  
HETATM   10  C   UNL     1      -9.529  10.823  68.307  1.00  0.00    -0.164 A  
HETATM   11  C   UNL     1     -10.059  10.232  69.455  1.00  0.00    -0.260 A  
HETATM   12  C   UNL     1     -10.682   8.991  69.388  1.00  0.00    -0.191 A  
HETATM   13  C   UNL     1     -10.249   8.935  67.011  1.00  0.00    -0.345 A  
HETATM   14  C   UNL     1     -10.768   8.336  68.164  1.00  0.00    -0.093 A  
BRANCH  12  15
HETATM   15  O   UNL     1     -11.131   8.512  70.588  1.00  0.00    -0.247 OA 
BRANCH  15  16
HETATM   16  C   UNL     1     -10.497   9.035  71.747  1.00  0.00    -0.348 C  
BRANCH  16  17
HETATM   17  C   UNL     1     -10.049   7.856  72.614  1.00  0.00    -0.279 C  
BRANCH  17  18
HETATM   18  O   UNL     1     -11.096   6.980  73.049  1.00  0.00    -0.288 OA 
BRANCH  18  19
HETATM   19  C   UNL     1     -10.824   5.583  73.026  1.00  0.00    -0.274 C  
BRANCH  19  20
HETATM   20  C   UNL     1      -9.326   5.300  72.852  1.00  0.00    -0.137 C  
BRANCH  20  21
HETATM   21  N   UNL     1      -8.915   4.725  71.488  1.00  0.00    -0.131 N  
HETATM   22  C   UNL     1      -7.383   4.643  71.487  1.00  0.00    -0.068 C  
HETATM   23  C   UNL     1      -9.462   3.311  71.323  1.00  0.00    -0.152 C  
BRANCH  21  24
HETATM   24  C   UNL     1      -9.392   5.659  70.344  1.00  0.00    -0.160 C  
BRANCH  24  25
HETATM   25  C   UNL     1      -8.311   6.142  69.415  1.00  0.00    -0.116 A  
HETATM   26  C   UNL     1      -7.695   7.383  69.640  1.00  0.00    -0.107 A  
HETATM   27  C   UNL     1      -6.805   7.908  68.706  1.00  0.00    -0.062 A  
HETATM   28  C   UNL     1      -6.505   7.191  67.551  1.00  0.00    -0.054 A  
HETATM   29  C   UNL     1      -7.062   5.931  67.344  1.00  0.00    -0.074 A  
HETATM   30  C   UNL     1      -7.951   5.401  68.279  1.00  0.00    -0.088 A  
ENDBRANCH  24  25
ENDBRANCH  21  24
ENDBRANCH  20  21
ENDBRANCH  19  20
ENDBRANCH  18  19
ENDBRANCH  17  18
ENDBRANCH  16  17
ENDBRANCH  15  16
ENDBRANCH  12  15
ENDBRANCH   6   9
ENDBRANCH   5   6
ENDBRANCH   2   5
TORSDOF 12
ENDMDL
MODEL      204
REMARK 921   NORMALIZED FREE ENERGY PREDICTED BY IDOCK:   -3.86 KCAL/MOL
REMARK 922        TOTAL FREE ENERGY PREDICTED BY IDOCK:   -7.84 KCAL/MOL
REMARK 923 INTER-LIGAND FREE ENERGY PREDICTED BY IDOCK:   -7.71 KCAL/MOL
REMARK 924 INTRA-LIGAND FREE ENERGY PREDICTED BY IDOCK:   -0.13 KCAL/MOL
REMARK 927      BINDING AFFINITY PREDICTED BY RF-SCORE:    0.00 PKD
ROOT
HETATM    1  C   UNL     1      -9.085  15.122  69.080  1.00  0.00    -0.215 C  
HETATM    2  C   UNL     1     -10.340  14.843  68.242  1.00  0.00    -0.232 C  
HETATM    3  C   UNL     1     -11.293  13.924  69.018  1.00  0.00    -0.324 C  
HETATM    4  C   UNL     1     -11.069  16.204  68.075  1.00  0.00    -0.317 C  
ENDROOT
BRANCH   2   5
HETATM    5  C   UNL     1     -10.015  14.312  66.807  1.00  0.00    -0.266 C  
BRANCH   5   6
HETATM    6  C   UNL     1     -10.956  13.369  65.965  1.00  0.00    -0.281 C  
HETATM    7  C   UNL     1     -10.786  13.557  64.440  1.00  0.00    -0.402 C  
HETATM    8  C   UNL     1     -12.448  13.603  66.277  1.00  0.00    -0.420 C  
BRANCH   6   9
HETATM    9  C   UNL     1     -10.543  11.908  66.293  1.00  0.00    -0.289 A  
HETATM   10  C   UNL     1      -9.560  11.206  65.572  1.00  0.00    -0.263 A  
HETATM   11  C   UNL     1      -9.213   9.895  65.902  1.00  0.00    -0.223 A  
HETATM   12  C   UNL     1      -9.847   9.238  66.950  1.00  0.00    -0.214 A  
HETATM   13  C   UNL     1     -11.178  11.216  67.346  1.00  0.00    -0.363 A  
HETATM   14  C   UNL     1     -10.840   9.897  67.668  1.00  0.00    -0.318 A  
BRANCH  12  15
HETATM   15  O   UNL     1      -9.434   7.949  67.149  1.00  0.00    -0.144 OA 
BRANCH  15  16
HETATM   16  C   UNL     1     -10.238   6.937  66.559  1.00  0.00    -0.057 C  
BRANCH  16  17
HETATM   17  C   UNL     1     -11.135   6.349  67.652  1.00  0.00    -0.289 C  
BRANCH  17  18
HETATM   18  O   UNL     1     -10.478   5.488  68.589  1.00  0.00    -0.195 OA 
BRANCH  18  19
HETATM   19  C   UNL     1     -10.881   5.585  69.952  1.00  0.00    -0.228 C  
BRANCH  19  20
HETATM   20  C   UNL     1     -10.045   6.619  70.718  1.00  0.00    -0.184 C  
BRANCH  20  21
HETATM   21  N   UNL     1     -10.817   7.473  71.734  1.00  0.00    -0.225 N  
HETATM   22  C   UNL     1     -10.532   8.939  71.386  1.00  0.00    -0.305 C  
HETATM   23  C   UNL     1     -12.317   7.238  71.592  1.00  0.00    -0.352 C  
BRANCH  21  24
HETATM   24  C   UNL     1     -10.326   7.171  73.175  1.00  0.00    -0.295 C  
BRANCH  24  25
HETATM   25  C   UNL     1     -10.131   5.713  73.495  1.00  0.00    -0.205 A  
HETATM   26  C   UNL     1      -8.854   5.231  73.822  1.00  0.00    -0.118 A  
HETATM   27  C   UNL     1      -8.633   3.864  73.970  1.00  0.00    -0.093 A  
HETATM   28  C   UNL     1      -9.687   2.967  73.813  1.00  0.00    -0.138 A  
HETATM   29  C   UNL     1     -10.971   3.437  73.547  1.00  0.00    -0.328 A  
HETATM   30  C   UNL     1     -11.197   4.805  73.403  1.00  0.00    -0.425 A  
ENDBRANCH  24  25
ENDBRANCH  21  24
ENDBRANCH  20  21
ENDBRANCH  19  20
ENDBRANCH  18  19
ENDBRANCH  17  18
ENDBRANCH  16  17
ENDBRANCH  15  16
ENDBRANCH  12  15
ENDBRANCH   6   9
ENDBRANCH   5   6
ENDBRANCH   2   5
TORSDOF 12
ENDMDL
MODEL      205
REMARK 921   NORMALIZED FREE ENERGY PREDICTED BY IDOCK:   -3.86 KCAL/MOL
REMARK 922        TOTAL FREE ENERGY PREDICTED BY IDOCK:   -7.83 KCAL/MOL
REMARK 923 INTER-LIGAND FREE ENERGY PREDICTED BY IDOCK:   -7.66 KCAL/MOL
REMARK 924 INTRA-LIGAND FREE ENERGY PREDICTED BY IDOCK:   -0.17 KCAL/MOL
REMARK 927      BINDING AFFINITY PREDICTED BY RF-SCORE:    0.00 PKD
ROOT
HETATM    1  C   UNL     1      -9.092   2.193  74.045  1.00  0.00    -0.075 C  
HETATM    2  C   UNL     1      -9.439   2.967  72.767  1.00  0.00    -0.152 C  
HETATM    3  C   UNL     1      -9.777   1.986  71.636  1.00  0.00    -0.215 C  
HETATM    4  C   UNL     1     -10.738   3.761  73.072  1.00  0.00    -0.236 C  
ENDROOT
BRANCH   2   5
HETATM    5  C   UNL     1      -8.344   4.008  72.362  1.00  0.00    -0.099 C  
BRANCH   5   6
HETATM    6  C   UNL     1      -8.151   5.418  73.040  1.00  0.00    -0.105 C  
HETATM    7  C   UNL     1      -6.683   5.899  73.019  1.00  0.00    -0.074 C  
HETATM    8  C   UNL     1      -8.600   5.423  74.516  1.00  0.00    -0.111 C  
BRANCH   6   9
HETATM    9  C   UNL     1      -8.976   6.437  72.206  1.00  0.00    -0.139 A  
HETATM   10  C   UNL     1      -9.089   6.372  70.806  1.00  0.00    -0.151 A  
HETATM   11  C   UNL     1      -9.845   7.304  70.093  1.00  0.00    -0.179 A  
HETATM   12  C   UNL     1     -10.498   8.338  70.753  1.00  0.00    -0.196 A  
HETATM   13  C   UNL     1      -9.641   7.501  72.852  1.00  0.00    -0.247 A  
HETATM   14  C   UNL     1     -10.387   8.444  72.136  1.00  0.00    -0.397 A  
BRANCH  12  15
HETATM   15  O   UNL     1     -11.179   9.198  69.935  1.00  0.00    -0.206 OA 
BRANCH  15  16
HETATM   16  C   UNL     1     -11.364  10.517  70.430  1.00  0.00    -0.328 C  
BRANCH  16  17
HETATM   17  C   UNL     1     -12.860  10.721  70.685  1.00  0.00    -0.293 C  
BRANCH  17  18
HETATM   18  O   UNL     1     -13.198  11.243  71.975  1.00  0.00    -0.506 OA 
BRANCH  18  19
HETATM   19  C   UNL     1     -13.380  12.652  72.077  1.00  0.00    -0.454 C  
BRANCH  19  20
HETATM   20  C   UNL     1     -12.377  13.418  71.204  1.00  0.00    -0.259 C  
BRANCH  20  21
HETATM   21  N   UNL     1     -12.542  14.944  71.189  1.00  0.00    -0.309 N  
HETATM   22  C   UNL     1     -14.025  15.230  71.455  1.00  0.00    -0.532 C  
HETATM   23  C   UNL     1     -11.731  15.576  72.315  1.00  0.00    -0.482 C  
BRANCH  21  24
HETATM   24  C   UNL     1     -12.137  15.517  69.804  1.00  0.00    -0.349 C  
BRANCH  24  25
HETATM   25  C   UNL     1     -11.307  14.600  68.947  1.00  0.00    -0.305 A  
HETATM   26  C   UNL     1      -9.913  14.557  69.111  1.00  0.00    -0.114 A  
HETATM   27  C   UNL     1      -9.122  13.830  68.225  1.00  0.00    -0.195 A  
HETATM   28  C   UNL     1      -9.714  13.123  67.182  1.00  0.00    -0.235 A  
HETATM   29  C   UNL     1     -11.100  13.108  67.044  1.00  0.00    -0.305 A  
HETATM   30  C   UNL     1     -11.896  13.832  67.931  1.00  0.00    -0.413 A  
ENDBRANCH  24  25
ENDBRANCH  21  24
ENDBRANCH  20  21
ENDBRANCH  19  20
ENDBRANCH  18  19
ENDBRANCH  17  18
ENDBRANCH  16  17
ENDBRANCH  15  16
ENDBRANCH  12  15
ENDBRANCH   6   9
ENDBRANCH   5   6
ENDBRANCH   2   5
TORSDOF 12
ENDMDL
MODEL      206
REMARK 921   NORMALIZED FREE ENERGY PREDICTED BY IDOCK:   -3.85 KCAL/MOL
REMARK 922        TOTAL FREE ENERGY PREDICTED BY IDOCK:   -7.82 KCAL/MOL
REMARK 923 INTER-LIGAND FREE ENERGY PREDICTED BY IDOCK:   -6.44 KCAL/MOL
REMARK 924 INTRA-LIGAND FREE ENERGY PREDICTED BY IDOCK:   -1.38 KCAL/MOL
REMARK 927      BINDING AFFINITY PREDICTED BY RF-SCORE:    0.00 PKD
ROOT
HETATM    1  C   UNL     1      -7.603   3.994  69.438  1.00  0.00    -0.053 C  
HETATM    2  C   UNL     1      -7.806   5.505  69.266  1.00  0.00    -0.091 C  
HETATM    3  C   UNL     1      -8.105   6.150  70.627  1.00  0.00    -0.116 C  
HETATM    4  C   UNL     1      -6.444   6.081  68.791  1.00  0.00    -0.049 C  
ENDROOT
BRANCH   2   5
HETATM    5  C   UNL     1      -8.868   5.863  68.176  1.00  0.00    -0.110 C  
BRANCH   5   6
HETATM    6  C   UNL     1      -9.747   7.172  68.175  1.00  0.00    -0.147 C  
HETATM    7  C   UNL     1     -10.545   7.361  69.485  1.00  0.00    -0.244 C  
HETATM    8  C   UNL     1     -10.774   7.184  67.023  1.00  0.00    -0.420 C  
BRANCH   6   9
HETATM    9  C   UNL     1      -8.770   8.374  68.059  1.00  0.00    -0.139 A  
HETATM   10  C   UNL     1      -8.666   9.378  69.038  1.00  0.00    -0.136 A  
HETATM   11  C   UNL     1      -7.771  10.440  68.900  1.00  0.00    -0.111 A  
HETATM   12  C   UNL     1      -6.963  10.541  67.774  1.00  0.00    -0.078 A  
HETATM   13  C   UNL     1      -7.946   8.504  66.922  1.00  0.00    -0.095 A  
HETATM   14  C   UNL     1      -7.058   9.576  66.776  1.00  0.00    -0.086 A  
BRANCH  12  15
HETATM   15  O   UNL     1      -6.153  11.643  67.749  1.00  0.00    -0.045 OA 
BRANCH  15  16
HETATM   16  C   UNL     1      -6.501  12.695  68.638  1.00  0.00    -0.079 C  
BRANCH  16  17
HETATM   17  C   UNL     1      -7.084  13.842  67.808  1.00  0.00    -0.167 C  
BRANCH  17  18
HETATM   18  O   UNL     1      -7.462  15.008  68.549  1.00  0.00    -0.110 OA 
BRANCH  18  19
HETATM   19  C   UNL     1      -8.785  15.499  68.355  1.00  0.00    -0.174 C  
BRANCH  19  20
HETATM   20  C   UNL     1      -9.723  14.406  67.824  1.00  0.00    -0.221 C  
BRANCH  20  21
HETATM   21  N   UNL     1     -11.064  14.901  67.263  1.00  0.00    -0.327 N  
HETATM   22  C   UNL     1     -11.657  15.851  68.311  1.00  0.00    -0.272 C  
HETATM   23  C   UNL     1     -10.842  15.694  65.981  1.00  0.00    -0.275 C  
BRANCH  21  24
HETATM   24  C   UNL     1     -12.027  13.705  67.035  1.00  0.00    -0.406 C  
BRANCH  24  25
HETATM   25  C   UNL     1     -11.582  12.712  65.994  1.00  0.00    -0.443 A  
HETATM   26  C   UNL     1     -10.786  11.617  66.364  1.00  0.00    -0.316 A  
HETATM   27  C   UNL     1     -10.244  10.780  65.392  1.00  0.00    -0.341 A  
HETATM   28  C   UNL     1     -10.507  11.015  64.045  1.00  0.00    -0.433 A  
HETATM   29  C   UNL     1     -11.345  12.062  63.668  1.00  0.00    -0.536 A  
HETATM   30  C   UNL     1     -11.893  12.900  64.639  1.00  0.00    -0.422 A  
ENDBRANCH  24  25
ENDBRANCH  21  24
ENDBRANCH  20  21
ENDBRANCH  19  20
ENDBRANCH  18  19
ENDBRANCH  17  18
ENDBRANCH  16  17
ENDBRANCH  15  16
ENDBRANCH  12  15
ENDBRANCH   6   9
ENDBRANCH   5   6
ENDBRANCH   2   5
TORSDOF 12
ENDMDL
MODEL      207
REMARK 921   NORMALIZED FREE ENERGY PREDICTED BY IDOCK:   -3.85 KCAL/MOL
REMARK 922        TOTAL FREE ENERGY PREDICTED BY IDOCK:   -7.81 KCAL/MOL
REMARK 923 INTER-LIGAND FREE ENERGY PREDICTED BY IDOCK:   -7.78 KCAL/MOL
REMARK 924 INTRA-LIGAND FREE ENERGY PREDICTED BY IDOCK:   -0.03 KCAL/MOL
REMARK 927      BINDING AFFINITY PREDICTED BY RF-SCORE:    0.00 PKD
ROOT
HETATM    1  C   UNL     1     -12.828  14.350  73.162  1.00  0.00    -0.492 C  
HETATM    2  C   UNL     1     -12.899  14.963  71.757  1.00  0.00    -0.404 C  
HETATM    3  C   UNL     1     -14.335  15.412  71.455  1.00  0.00    -0.572 C  
HETATM    4  C   UNL     1     -12.029  16.248  71.793  1.00  0.00    -0.473 C  
ENDROOT
BRANCH   2   5
HETATM    5  C   UNL     1     -12.307  14.032  70.650  1.00  0.00    -0.446 C  
BRANCH   5   6
HETATM    6  C   UNL     1     -11.320  14.503  69.514  1.00  0.00    -0.313 C  
HETATM    7  C   UNL     1     -10.011  15.110  70.069  1.00  0.00    -0.052 C  
HETATM    8  C   UNL     1     -11.951  15.571  68.597  1.00  0.00    -0.231 C  
BRANCH   6   9
HETATM    9  C   UNL     1     -10.927  13.238  68.702  1.00  0.00    -0.294 A  
HETATM   10  C   UNL     1     -10.015  13.262  67.632  1.00  0.00    -0.229 A  
HETATM   11  C   UNL     1      -9.685  12.102  66.931  1.00  0.00    -0.213 A  
HETATM   12  C   UNL     1     -10.265  10.885  67.265  1.00  0.00    -0.205 A  
HETATM   13  C   UNL     1     -11.510  11.992  69.016  1.00  0.00    -0.357 A  
HETATM   14  C   UNL     1     -11.189  10.830  68.304  1.00  0.00    -0.358 A  
BRANCH  12  15
HETATM   15  O   UNL     1      -9.877   9.832  66.482  1.00  0.00    -0.196 OA 
BRANCH  15  16
HETATM   16  C   UNL     1      -9.165  10.164  65.298  1.00  0.00    -0.209 C  
BRANCH  16  17
HETATM   17  C   UNL     1      -8.077   9.107  65.088  1.00  0.00    -0.130 C  
BRANCH  17  18
HETATM   18  O   UNL     1      -8.550   7.777  64.843  1.00  0.00    -0.059 OA 
BRANCH  18  19
HETATM   19  C   UNL     1      -8.117   6.760  65.740  1.00  0.00    -0.123 C  
BRANCH  19  20
HETATM   20  C   UNL     1      -9.262   6.271  66.638  1.00  0.00    -0.146 C  
BRANCH  20  21
HETATM   21  N   UNL     1      -8.890   6.019  68.106  1.00  0.00    -0.112 N  
HETATM   22  C   UNL     1      -7.543   5.285  68.101  1.00  0.00    -0.080 C  
HETATM   23  C   UNL     1      -8.703   7.342  68.839  1.00  0.00    -0.132 C  
BRANCH  21  24
HETATM   24  C   UNL     1      -9.967   5.135  68.791  1.00  0.00    -0.166 C  
BRANCH  24  25
HETATM   25  C   UNL     1     -10.404   5.596  70.155  1.00  0.00    -0.341 A  
HETATM   26  C   UNL     1     -11.100   6.807  70.298  1.00  0.00    -0.360 A  
HETATM   27  C   UNL     1     -11.374   7.317  71.565  1.00  0.00    -0.280 A  
HETATM   28  C   UNL     1     -10.976   6.614  72.699  1.00  0.00    -0.288 A  
HETATM   29  C   UNL     1     -10.339   5.383  72.572  1.00  0.00    -0.251 A  
HETATM   30  C   UNL     1     -10.065   4.867  71.306  1.00  0.00    -0.269 A  
ENDBRANCH  24  25
ENDBRANCH  21  24
ENDBRANCH  20  21
ENDBRANCH  19  20
ENDBRANCH  18  19
ENDBRANCH  17  18
ENDBRANCH  16  17
ENDBRANCH  15  16
ENDBRANCH  12  15
ENDBRANCH   6   9
ENDBRANCH   5   6
ENDBRANCH   2   5
TORSDOF 12
ENDMDL
MODEL      208
REMARK 921   NORMALIZED FREE ENERGY PREDICTED BY IDOCK:   -3.85 KCAL/MOL
REMARK 922        TOTAL FREE ENERGY PREDICTED BY IDOCK:   -7.81 KCAL/MOL
REMARK 923 INTER-LIGAND FREE ENERGY PREDICTED BY IDOCK:   -7.20 KCAL/MOL
REMARK 924 INTRA-LIGAND FREE ENERGY PREDICTED BY IDOCK:   -0.62 KCAL/MOL
REMARK 927      BINDING AFFINITY PREDICTED BY RF-SCORE:    0.00 PKD
ROOT
HETATM    1  C   UNL     1     -11.188   8.546  71.233  1.00  0.00    -0.321 C  
HETATM    2  C   UNL     1     -11.517   7.050  71.156  1.00  0.00    -0.333 C  
HETATM    3  C   UNL     1     -12.941   6.800  71.674  1.00  0.00    -0.292 C  
HETATM    4  C   UNL     1     -11.520   6.676  69.649  1.00  0.00    -0.358 C  
ENDROOT
BRANCH   2   5
HETATM    5  C   UNL     1     -10.448   6.149  71.856  1.00  0.00    -0.254 C  
BRANCH   5   6
HETATM    6  C   UNL     1      -9.108   6.678  72.496  1.00  0.00    -0.140 C  
HETATM    7  C   UNL     1      -8.198   5.540  73.011  1.00  0.00    -0.119 C  
HETATM    8  C   UNL     1      -9.363   7.619  73.690  1.00  0.00    -0.344 C  
BRANCH   6   9
HETATM    9  C   UNL     1      -8.328   7.410  71.369  1.00  0.00    -0.112 A  
HETATM   10  C   UNL     1      -8.059   6.830  70.117  1.00  0.00    -0.128 A  
HETATM   11  C   UNL     1      -7.359   7.523  69.128  1.00  0.00    -0.086 A  
HETATM   12  C   UNL     1      -6.892   8.810  69.364  1.00  0.00    -0.049 A  
HETATM   13  C   UNL     1      -7.835   8.714  71.587  1.00  0.00    -0.153 A  
HETATM   14  C   UNL     1      -7.121   9.404  70.601  1.00  0.00    -0.127 A  
BRANCH  12  15
HETATM   15  O   UNL     1      -6.197   9.365  68.325  1.00  0.00    -0.052 OA 
BRANCH  15  16
HETATM   16  C   UNL     1      -6.465  10.734  68.053  1.00  0.00    -0.062 C  
BRANCH  16  17
HETATM   17  C   UNL     1      -7.782  10.813  67.277  1.00  0.00    -0.109 C  
BRANCH  17  18
HETATM   18  O   UNL     1      -8.794  11.639  67.865  1.00  0.00    -0.143 OA 
BRANCH  18  19
HETATM   19  C   UNL     1      -8.472  13.009  68.077  1.00  0.00    -0.181 C  
BRANCH  19  20
HETATM   20  C   UNL     1      -9.162  13.919  67.052  1.00  0.00    -0.250 C  
BRANCH  20  21
HETATM   21  N   UNL     1     -10.528  14.479  67.478  1.00  0.00    -0.252 N  
HETATM   22  C   UNL     1     -10.464  14.689  68.996  1.00  0.00    -0.246 C  
HETATM   23  C   UNL     1     -10.772  15.834  66.825  1.00  0.00    -0.293 C  
BRANCH  21  24
HETATM   24  C   UNL     1     -11.655  13.469  67.135  1.00  0.00    -0.357 C  
BRANCH  24  25
HETATM   25  C   UNL     1     -11.608  12.903  65.741  1.00  0.00    -0.411 A  
HETATM   26  C   UNL     1     -10.921  11.704  65.493  1.00  0.00    -0.327 A  
HETATM   27  C   UNL     1     -10.742  11.251  64.188  1.00  0.00    -0.436 A  
HETATM   28  C   UNL     1     -11.263  11.978  63.121  1.00  0.00    -0.261 A  
HETATM   29  C   UNL     1     -11.998  13.138  63.357  1.00  0.00    -0.552 A  
HETATM   30  C   UNL     1     -12.183  13.592  64.663  1.00  0.00    -0.448 A  
ENDBRANCH  24  25
ENDBRANCH  21  24
ENDBRANCH  20  21
ENDBRANCH  19  20
ENDBRANCH  18  19
ENDBRANCH  17  18
ENDBRANCH  16  17
ENDBRANCH  15  16
ENDBRANCH  12  15
ENDBRANCH   6   9
ENDBRANCH   5   6
ENDBRANCH   2   5
TORSDOF 12
ENDMDL
MODEL      209
REMARK 921   NORMALIZED FREE ENERGY PREDICTED BY IDOCK:   -3.85 KCAL/MOL
REMARK 922        TOTAL FREE ENERGY PREDICTED BY IDOCK:   -7.81 KCAL/MOL
REMARK 923 INTER-LIGAND FREE ENERGY PREDICTED BY IDOCK:   -7.72 KCAL/MOL
REMARK 924 INTRA-LIGAND FREE ENERGY PREDICTED BY IDOCK:   -0.09 KCAL/MOL
REMARK 927      BINDING AFFINITY PREDICTED BY RF-SCORE:    0.00 PKD
ROOT
HETATM    1  C   UNL     1      -6.897   8.741  72.186  1.00  0.00    -0.026 C  
HETATM    2  C   UNL     1      -7.781   7.733  72.933  1.00  0.00    -0.137 C  
HETATM    3  C   UNL     1      -7.279   6.306  72.674  1.00  0.00    -0.084 C  
HETATM    4  C   UNL     1      -7.580   8.010  74.447  1.00  0.00    -0.251 C  
ENDROOT
BRANCH   2   5
HETATM    5  C   UNL     1      -9.305   7.908  72.627  1.00  0.00    -0.275 C  
BRANCH   5   6
HETATM    6  C   UNL     1     -10.113   7.054  71.576  1.00  0.00    -0.197 C  
HETATM    7  C   UNL     1     -11.641   7.117  71.799  1.00  0.00    -0.314 C  
HETATM    8  C   UNL     1      -9.721   5.562  71.610  1.00  0.00    -0.203 C  
BRANCH   6   9
HETATM    9  C   UNL     1      -9.830   7.670  70.179  1.00  0.00    -0.184 A  
HETATM   10  C   UNL     1      -8.717   7.319  69.395  1.00  0.00    -0.137 A  
HETATM   11  C   UNL     1      -8.500   7.893  68.140  1.00  0.00    -0.124 A  
HETATM   12  C   UNL     1      -9.378   8.845  67.638  1.00  0.00    -0.136 A  
HETATM   13  C   UNL     1     -10.701   8.646  69.650  1.00  0.00    -0.204 A  
HETATM   14  C   UNL     1     -10.476   9.231  68.399  1.00  0.00    -0.246 A  
BRANCH  12  15
HETATM   15  O   UNL     1      -9.035   9.347  66.412  1.00  0.00    -0.142 OA 
BRANCH  15  16
HETATM   16  C   UNL     1     -10.064  10.023  65.703  1.00  0.00    -0.251 C  
BRANCH  16  17
HETATM   17  C   UNL     1      -9.966  11.515  66.033  1.00  0.00    -0.224 C  
BRANCH  17  18
HETATM   18  O   UNL     1     -11.011  12.031  66.866  1.00  0.00    -0.253 OA 
BRANCH  18  19
HETATM   19  C   UNL     1     -11.597  13.269  66.477  1.00  0.00    -0.350 C  
BRANCH  19  20
HETATM   20  C   UNL     1     -12.061  14.083  67.692  1.00  0.00    -0.309 C  
BRANCH  20  21
HETATM   21  N   UNL     1     -11.021  15.050  68.278  1.00  0.00    -0.261 N  
HETATM   22  C   UNL     1     -10.121  14.222  69.204  1.00  0.00    -0.055 C  
HETATM   23  C   UNL     1     -10.151  15.627  67.168  1.00  0.00    -0.256 C  
BRANCH  21  24
HETATM   24  C   UNL     1     -11.724  16.169  69.092  1.00  0.00    -0.238 C  
BRANCH  24  25
HETATM   25  C   UNL     1     -12.191  15.768  70.465  1.00  0.00    -0.399 A  
HETATM   26  C   UNL     1     -13.352  14.994  70.613  1.00  0.00    -0.279 A  
HETATM   27  C   UNL     1     -13.877  14.746  71.880  1.00  0.00    -0.541 A  
HETATM   28  C   UNL     1     -13.238  15.250  73.009  1.00  0.00    -0.617 A  
HETATM   29  C   UNL     1     -12.052  15.968  72.880  1.00  0.00    -0.626 A  
HETATM   30  C   UNL     1     -11.521  16.215  71.615  1.00  0.00    -0.396 A  
ENDBRANCH  24  25
ENDBRANCH  21  24
ENDBRANCH  20  21
ENDBRANCH  19  20
ENDBRANCH  18  19
ENDBRANCH  17  18
ENDBRANCH  16  17
ENDBRANCH  15  16
ENDBRANCH  12  15
ENDBRANCH   6   9
ENDBRANCH   5   6
ENDBRANCH   2   5
TORSDOF 12
ENDMDL
MODEL      210
REMARK 921   NORMALIZED FREE ENERGY PREDICTED BY IDOCK:   -3.84 KCAL/MOL
REMARK 922        TOTAL FREE ENERGY PREDICTED BY IDOCK:   -7.80 KCAL/MOL
REMARK 923 INTER-LIGAND FREE ENERGY PREDICTED BY IDOCK:   -5.89 KCAL/MOL
REMARK 924 INTRA-LIGAND FREE ENERGY PREDICTED BY IDOCK:   -1.91 KCAL/MOL
REMARK 927      BINDING AFFINITY PREDICTED BY RF-SCORE:    0.00 PKD
ROOT
HETATM    1  C   UNL     1      -9.069   9.526  65.711  1.00  0.00    -0.243 C  
HETATM    2  C   UNL     1      -7.816  10.143  66.346  1.00  0.00    -0.114 C  
HETATM    3  C   UNL     1      -7.368   9.297  67.545  1.00  0.00    -0.087 C  
HETATM    4  C   UNL     1      -6.689  10.043  65.283  1.00  0.00    -0.117 C  
ENDROOT
BRANCH   2   5
HETATM    5  C   UNL     1      -7.988  11.657  66.699  1.00  0.00    -0.098 C  
BRANCH   5   6
HETATM    6  C   UNL     1      -7.581  12.310  68.075  1.00  0.00    -0.126 C  
HETATM    7  C   UNL     1      -6.070  12.190  68.373  1.00  0.00    -0.051 C  
HETATM    8  C   UNL     1      -8.322  11.670  69.267  1.00  0.00     0.404 C  
BRANCH   6   9
HETATM    9  C   UNL     1      -7.906  13.825  67.969  1.00  0.00    -0.152 A  
HETATM   10  C   UNL     1      -7.876  14.536  66.756  1.00  0.00     0.324 A  
HETATM   11  C   UNL     1      -8.180  15.897  66.702  1.00  0.00    -0.317 A  
HETATM   12  C   UNL     1      -8.507  16.595  67.859  1.00  0.00    -0.194 A  
HETATM   13  C   UNL     1      -8.232  14.558  69.130  1.00  0.00    -0.017 A  
HETATM   14  C   UNL     1      -8.523  15.926  69.079  1.00  0.00    -0.242 A  
BRANCH  12  15
HETATM   15  O   UNL     1      -8.754  17.927  67.672  1.00  0.00    -0.238 OA 
BRANCH  15  16
HETATM   16  C   UNL     1      -8.984  18.338  66.331  1.00  0.00    -0.243 C  
BRANCH  16  17
HETATM   17  C   UNL     1     -10.467  18.692  66.193  1.00  0.00    -0.430 C  
BRANCH  17  18
HETATM   18  O   UNL     1     -11.146  18.077  65.091  1.00  0.00    -0.543 OA 
BRANCH  18  19
HETATM   19  C   UNL     1     -10.723  16.770  64.716  1.00  0.00     0.138 C  
BRANCH  19  20
HETATM   20  C   UNL     1     -11.912  15.811  64.567  1.00  0.00    -0.060 C  
BRANCH  20  21
HETATM   21  N   UNL     1     -11.800  14.491  65.344  1.00  0.00    -0.356 N  
HETATM   22  C   UNL     1     -13.127  13.748  65.147  1.00  0.00    -0.083 C  
HETATM   23  C   UNL     1     -10.686  13.628  64.764  1.00  0.00    -0.410 C  
BRANCH  21  24
HETATM   24  C   UNL     1     -11.575  14.773  66.854  1.00  0.00    -0.327 C  
BRANCH  24  25
HETATM   25  C   UNL     1     -11.598  13.559  67.744  1.00  0.00    -0.374 A  
HETATM   26  C   UNL     1     -11.437  12.280  67.190  1.00  0.00    -0.419 A  
HETATM   27  C   UNL     1     -11.607  11.144  67.979  1.00  0.00    -0.337 A  
HETATM   28  C   UNL     1     -11.919  11.274  69.329  1.00  0.00    -0.411 A  
HETATM   29  C   UNL     1     -12.023  12.539  69.905  1.00  0.00    -0.371 A  
HETATM   30  C   UNL     1     -11.849  13.678  69.120  1.00  0.00    -0.394 A  
ENDBRANCH  24  25
ENDBRANCH  21  24
ENDBRANCH  20  21
ENDBRANCH  19  20
ENDBRANCH  18  19
ENDBRANCH  17  18
ENDBRANCH  16  17
ENDBRANCH  15  16
ENDBRANCH  12  15
ENDBRANCH   6   9
ENDBRANCH   5   6
ENDBRANCH   2   5
TORSDOF 12
ENDMDL
MODEL      211
REMARK 921   NORMALIZED FREE ENERGY PREDICTED BY IDOCK:   -3.84 KCAL/MOL
REMARK 922        TOTAL FREE ENERGY PREDICTED BY IDOCK:   -7.80 KCAL/MOL
REMARK 923 INTER-LIGAND FREE ENERGY PREDICTED BY IDOCK:   -6.91 KCAL/MOL
REMARK 924 INTRA-LIGAND FREE ENERGY PREDICTED BY IDOCK:   -0.88 KCAL/MOL
REMARK 927      BINDING AFFINITY PREDICTED BY RF-SCORE:    0.00 PKD
ROOT
HETATM    1  C   UNL     1     -11.007   6.453  67.257  1.00  0.00    -0.474 C  
HETATM    2  C   UNL     1     -10.074   6.600  68.466  1.00  0.00    -0.166 C  
HETATM    3  C   UNL     1     -10.812   6.191  69.748  1.00  0.00    -0.421 C  
HETATM    4  C   UNL     1      -8.928   5.572  68.265  1.00  0.00    -0.109 C  
ENDROOT
BRANCH   2   5
HETATM    5  C   UNL     1      -9.416   8.015  68.567  1.00  0.00    -0.143 C  
BRANCH   5   6
HETATM    6  C   UNL     1      -8.948   8.877  67.333  1.00  0.00    -0.143 C  
HETATM    7  C   UNL     1     -10.120   9.577  66.610  1.00  0.00    -0.321 C  
HETATM    8  C   UNL     1      -8.213   8.030  66.274  1.00  0.00    -0.116 C  
BRANCH   6   9
HETATM    9  C   UNL     1      -8.023   9.995  67.888  1.00  0.00    -0.105 A  
HETATM   10  C   UNL     1      -7.421  10.970  67.074  1.00  0.00    -0.127 A  
HETATM   11  C   UNL     1      -6.599  11.963  67.612  1.00  0.00    -0.099 A  
HETATM   12  C   UNL     1      -6.341  12.002  68.976  1.00  0.00    -0.085 A  
HETATM   13  C   UNL     1      -7.737  10.052  69.269  1.00  0.00    -0.117 A  
HETATM   14  C   UNL     1      -6.902  11.038  69.807  1.00  0.00    -0.116 A  
BRANCH  12  15
HETATM   15  O   UNL     1      -5.498  13.006  69.369  1.00  0.00    -0.075 OA 
BRANCH  15  16
HETATM   16  C   UNL     1      -5.589  14.221  68.636  1.00  0.00    -0.089 C  
BRANCH  16  17
HETATM   17  C   UNL     1      -6.367  15.228  69.486  1.00  0.00    -0.145 C  
BRANCH  17  18
HETATM   18  O   UNL     1      -7.069  16.239  68.753  1.00  0.00    -0.144 OA 
BRANCH  18  19
HETATM   19  C   UNL     1      -8.441  16.441  69.078  1.00  0.00    -0.225 C  
BRANCH  19  20
HETATM   20  C   UNL     1      -9.301  15.233  68.685  1.00  0.00    -0.201 C  
BRANCH  20  21
HETATM   21  N   UNL     1     -10.234  15.447  67.483  1.00  0.00    -0.241 N  
HETATM   22  C   UNL     1     -10.398  16.963  67.318  1.00  0.00    -0.309 C  
HETATM   23  C   UNL     1      -9.594  14.901  66.212  1.00  0.00    -0.307 C  
BRANCH  21  24
HETATM   24  C   UNL     1     -11.617  14.795  67.752  1.00  0.00    -0.357 C  
BRANCH  24  25
HETATM   25  C   UNL     1     -11.904  14.467  69.192  1.00  0.00    -0.354 A  
HETATM   26  C   UNL     1     -11.943  13.129  69.613  1.00  0.00    -0.370 A  
HETATM   27  C   UNL     1     -12.357  12.807  70.904  1.00  0.00    -0.356 A  
HETATM   28  C   UNL     1     -12.714  13.818  71.792  1.00  0.00    -0.373 A  
HETATM   29  C   UNL     1     -12.623  15.153  71.407  1.00  0.00    -0.424 A  
HETATM   30  C   UNL     1     -12.205  15.480  70.117  1.00  0.00    -0.404 A  
ENDBRANCH  24  25
ENDBRANCH  21  24
ENDBRANCH  20  21
ENDBRANCH  19  20
ENDBRANCH  18  19
ENDBRANCH  17  18
ENDBRANCH  16  17
ENDBRANCH  15  16
ENDBRANCH  12  15
ENDBRANCH   6   9
ENDBRANCH   5   6
ENDBRANCH   2   5
TORSDOF 12
ENDMDL
MODEL      212
REMARK 921   NORMALIZED FREE ENERGY PREDICTED BY IDOCK:   -3.83 KCAL/MOL
REMARK 922        TOTAL FREE ENERGY PREDICTED BY IDOCK:   -7.79 KCAL/MOL
REMARK 923 INTER-LIGAND FREE ENERGY PREDICTED BY IDOCK:   -7.18 KCAL/MOL
REMARK 924 INTRA-LIGAND FREE ENERGY PREDICTED BY IDOCK:   -0.61 KCAL/MOL
REMARK 927      BINDING AFFINITY PREDICTED BY RF-SCORE:    0.00 PKD
ROOT
HETATM    1  C   UNL     1      -9.319   3.812  68.012  1.00  0.00    -0.232 C  
HETATM    2  C   UNL     1      -8.243   4.904  68.070  1.00  0.00    -0.096 C  
HETATM    3  C   UNL     1      -7.067   4.433  68.937  1.00  0.00    -0.052 C  
HETATM    4  C   UNL     1      -7.696   5.061  66.625  1.00  0.00    -0.092 C  
ENDROOT
BRANCH   2   5
HETATM    5  C   UNL     1      -8.803   6.296  68.508  1.00  0.00    -0.114 C  
BRANCH   5   6
HETATM    6  C   UNL     1      -9.417   6.611  69.926  1.00  0.00    -0.159 C  
HETATM    7  C   UNL     1      -8.339   6.858  71.006  1.00  0.00    -0.126 C  
HETATM    8  C   UNL     1     -10.310   5.465  70.443  1.00  0.00    -0.353 C  
BRANCH   6   9
HETATM    9  C   UNL     1     -10.230   7.927  69.784  1.00  0.00    -0.212 A  
HETATM   10  C   UNL     1     -10.170   8.750  68.645  1.00  0.00    -0.214 A  
HETATM   11  C   UNL     1     -10.920   9.923  68.554  1.00  0.00    -0.226 A  
HETATM   12  C   UNL     1     -11.742  10.320  69.602  1.00  0.00    -0.160 A  
HETATM   13  C   UNL     1     -11.065   8.357  70.837  1.00  0.00    -0.289 A  
HETATM   14  C   UNL     1     -11.807   9.540  70.752  1.00  0.00    -0.350 A  
BRANCH  12  15
HETATM   15  O   UNL     1     -12.400  11.501  69.396  1.00  0.00    -0.231 OA 
BRANCH  15  16
HETATM   16  C   UNL     1     -12.179  12.517  70.365  1.00  0.00    -0.286 C  
BRANCH  16  17
HETATM   17  C   UNL     1     -12.276  13.872  69.660  1.00  0.00    -0.321 C  
BRANCH  17  18
HETATM   18  O   UNL     1     -12.629  13.820  68.272  1.00  0.00     0.110 OA 
BRANCH  18  19
HETATM   19  C   UNL     1     -11.699  14.371  67.346  1.00  0.00    -0.397 C  
BRANCH  19  20
HETATM   20  C   UNL     1     -10.840  15.469  67.989  1.00  0.00    -0.300 C  
BRANCH  20  21
HETATM   21  N   UNL     1      -9.362  15.481  67.574  1.00  0.00    -0.205 N  
HETATM   22  C   UNL     1      -8.797  14.095  67.909  1.00  0.00    -0.182 C  
HETATM   23  C   UNL     1      -9.236  15.690  66.069  1.00  0.00    -0.339 C  
BRANCH  21  24
HETATM   24  C   UNL     1      -8.588  16.569  68.367  1.00  0.00    -0.213 C  
BRANCH  24  25
HETATM   25  C   UNL     1      -8.757  17.976  67.860  1.00  0.00    -0.258 A  
HETATM   26  C   UNL     1      -7.711  18.602  67.164  1.00  0.00    -0.237 A  
HETATM   27  C   UNL     1      -7.798  19.950  66.825  1.00  0.00    -0.330 A  
HETATM   28  C   UNL     1      -8.935  20.680  67.158  1.00  0.00    -0.358 A  
HETATM   29  C   UNL     1     -10.005  20.056  67.795  1.00  0.00    -0.560 A  
HETATM   30  C   UNL     1      -9.925  18.706  68.133  1.00  0.00    -0.397 A  
ENDBRANCH  24  25
ENDBRANCH  21  24
ENDBRANCH  20  21
ENDBRANCH  19  20
ENDBRANCH  18  19
ENDBRANCH  17  18
ENDBRANCH  16  17
ENDBRANCH  15  16
ENDBRANCH  12  15
ENDBRANCH   6   9
ENDBRANCH   5   6
ENDBRANCH   2   5
TORSDOF 12
ENDMDL
MODEL      213
REMARK 921   NORMALIZED FREE ENERGY PREDICTED BY IDOCK:   -3.82 KCAL/MOL
REMARK 922        TOTAL FREE ENERGY PREDICTED BY IDOCK:   -7.77 KCAL/MOL
REMARK 923 INTER-LIGAND FREE ENERGY PREDICTED BY IDOCK:   -7.19 KCAL/MOL
REMARK 924 INTRA-LIGAND FREE ENERGY PREDICTED BY IDOCK:   -0.58 KCAL/MOL
REMARK 927      BINDING AFFINITY PREDICTED BY RF-SCORE:    0.00 PKD
ROOT
HETATM    1  C   UNL     1     -10.329  18.952  66.653  1.00  0.00    -0.479 C  
HETATM    2  C   UNL     1      -8.956  18.289  66.821  1.00  0.00    -0.289 C  
HETATM    3  C   UNL     1      -7.899  19.069  66.028  1.00  0.00    -0.226 C  
HETATM    4  C   UNL     1      -8.581  18.428  68.321  1.00  0.00    -0.321 C  
ENDROOT
BRANCH   2   5
HETATM    5  C   UNL     1      -8.966  16.762  66.484  1.00  0.00    -0.304 C  
BRANCH   5   6
HETATM    6  C   UNL     1     -10.213  15.812  66.658  1.00  0.00    -0.290 C  
HETATM    7  C   UNL     1     -11.034  15.656  65.358  1.00  0.00    -0.342 C  
HETATM    8  C   UNL     1     -11.186  16.319  67.741  1.00  0.00    -0.163 C  
BRANCH   6   9
HETATM    9  C   UNL     1      -9.662  14.405  67.021  1.00  0.00    -0.256 A  
HETATM   10  C   UNL     1     -10.251  13.210  66.572  1.00  0.00    -0.277 A  
HETATM   11  C   UNL     1      -9.722  11.964  66.917  1.00  0.00    -0.212 A  
HETATM   12  C   UNL     1      -8.601  11.874  67.732  1.00  0.00    -0.154 A  
HETATM   13  C   UNL     1      -8.530  14.286  67.854  1.00  0.00    -0.168 A  
HETATM   14  C   UNL     1      -8.009  13.037  68.211  1.00  0.00    -0.151 A  
BRANCH  12  15
HETATM   15  O   UNL     1      -8.203  10.596  68.016  1.00  0.00    -0.110 OA 
BRANCH  15  16
HETATM   16  C   UNL     1      -7.356  10.441  69.146  1.00  0.00    -0.102 C  
BRANCH  16  17
HETATM   17  C   UNL     1      -7.866   9.249  69.959  1.00  0.00    -0.116 C  
BRANCH  17  18
HETATM   18  O   UNL     1      -7.877   9.432  71.380  1.00  0.00    -0.325 OA 
BRANCH  18  19
HETATM   19  C   UNL     1      -8.384   8.360  72.168  1.00  0.00    -0.164 C  
BRANCH  19  20
HETATM   20  C   UNL     1      -9.017   7.266  71.297  1.00  0.00    -0.139 C  
BRANCH  20  21
HETATM   21  N   UNL     1     -10.386   6.753  71.769  1.00  0.00    -0.199 N  
HETATM   22  C   UNL     1     -10.148   5.375  72.399  1.00  0.00    -0.182 C  
HETATM   23  C   UNL     1     -10.953   7.672  72.846  1.00  0.00    -0.400 C  
BRANCH  21  24
HETATM   24  C   UNL     1     -11.356   6.620  70.565  1.00  0.00    -0.358 C  
BRANCH  24  25
HETATM   25  C   UNL     1     -10.695   6.520  69.216  1.00  0.00    -0.329 A  
HETATM   26  C   UNL     1     -10.631   7.647  68.381  1.00  0.00    -0.166 A  
HETATM   27  C   UNL     1     -10.161   7.530  67.075  1.00  0.00    -0.368 A  
HETATM   28  C   UNL     1      -9.732   6.295  66.597  1.00  0.00    -0.195 A  
HETATM   29  C   UNL     1      -9.735   5.181  67.434  1.00  0.00    -0.172 A  
HETATM   30  C   UNL     1     -10.201   5.295  68.744  1.00  0.00    -0.231 A  
ENDBRANCH  24  25
ENDBRANCH  21  24
ENDBRANCH  20  21
ENDBRANCH  19  20
ENDBRANCH  18  19
ENDBRANCH  17  18
ENDBRANCH  16  17
ENDBRANCH  15  16
ENDBRANCH  12  15
ENDBRANCH   6   9
ENDBRANCH   5   6
ENDBRANCH   2   5
TORSDOF 12
ENDMDL
MODEL      214
REMARK 921   NORMALIZED FREE ENERGY PREDICTED BY IDOCK:   -3.82 KCAL/MOL
REMARK 922        TOTAL FREE ENERGY PREDICTED BY IDOCK:   -7.77 KCAL/MOL
REMARK 923 INTER-LIGAND FREE ENERGY PREDICTED BY IDOCK:   -7.30 KCAL/MOL
REMARK 924 INTRA-LIGAND FREE ENERGY PREDICTED BY IDOCK:   -0.47 KCAL/MOL
REMARK 927      BINDING AFFINITY PREDICTED BY RF-SCORE:    0.00 PKD
ROOT
HETATM    1  C   UNL     1     -10.004  14.525  69.351  1.00  0.00     0.026 C  
HETATM    2  C   UNL     1     -11.474  14.124  69.165  1.00  0.00    -0.338 C  
HETATM    3  C   UNL     1     -12.004  13.472  70.449  1.00  0.00    -0.367 C  
HETATM    4  C   UNL     1     -12.269  15.444  68.974  1.00  0.00    -0.167 C  
ENDROOT
BRANCH   2   5
HETATM    5  C   UNL     1     -11.716  13.248  67.892  1.00  0.00    -0.395 C  
BRANCH   5   6
HETATM    6  C   UNL     1     -11.434  13.716  66.413  1.00  0.00    -0.358 C  
HETATM    7  C   UNL     1     -10.689  15.068  66.343  1.00  0.00    -0.322 C  
HETATM    8  C   UNL     1     -12.731  13.880  65.595  1.00  0.00    -0.534 C  
BRANCH   6   9
HETATM    9  C   UNL     1     -10.504  12.649  65.771  1.00  0.00    -0.299 A  
HETATM   10  C   UNL     1     -10.700  12.137  64.476  1.00  0.00    -0.353 A  
HETATM   11  C   UNL     1      -9.839  11.183  63.933  1.00  0.00    -0.354 A  
HETATM   12  C   UNL     1      -8.765  10.698  64.670  1.00  0.00    -0.152 A  
HETATM   13  C   UNL     1      -9.413  12.135  66.502  1.00  0.00    -0.235 A  
HETATM   14  C   UNL     1      -8.557  11.167  65.963  1.00  0.00    -0.154 A  
BRANCH  12  15
HETATM   15  O   UNL     1      -8.018   9.747  64.032  1.00  0.00    -0.131 OA 
BRANCH  15  16
HETATM   16  C   UNL     1      -8.586   8.446  63.966  1.00  0.00     0.113 C  
BRANCH  16  17
HETATM   17  C   UNL     1      -7.440   7.431  63.937  1.00  0.00    -0.100 C  
BRANCH  17  18
HETATM   18  O   UNL     1      -7.205   6.733  65.167  1.00  0.00    -0.068 OA 
BRANCH  18  19
HETATM   19  C   UNL     1      -8.348   6.277  65.882  1.00  0.00    -0.142 C  
BRANCH  19  20
HETATM   20  C   UNL     1      -8.209   6.525  67.391  1.00  0.00    -0.121 C  
BRANCH  20  21
HETATM   21  N   UNL     1      -9.479   7.015  68.101  1.00  0.00    -0.125 N  
HETATM   22  C   UNL     1      -9.023   7.727  69.380  1.00  0.00    -0.142 C  
HETATM   23  C   UNL     1     -10.213   8.031  67.233  1.00  0.00    -0.275 C  
BRANCH  21  24
HETATM   24  C   UNL     1     -10.390   5.813  68.466  1.00  0.00    -0.215 C  
BRANCH  24  25
HETATM   25  C   UNL     1     -10.838   5.758  69.902  1.00  0.00    -0.417 A  
HETATM   26  C   UNL     1     -11.873   6.595  70.347  1.00  0.00    -0.407 A  
HETATM   27  C   UNL     1     -12.191   6.663  71.701  1.00  0.00    -0.401 A  
HETATM   28  C   UNL     1     -11.495   5.883  72.620  1.00  0.00    -0.319 A  
HETATM   29  C   UNL     1     -10.506   5.004  72.185  1.00  0.00    -0.274 A  
HETATM   30  C   UNL     1     -10.187   4.930  70.829  1.00  0.00    -0.276 A  
ENDBRANCH  24  25
ENDBRANCH  21  24
ENDBRANCH  20  21
ENDBRANCH  19  20
ENDBRANCH  18  19
ENDBRANCH  17  18
ENDBRANCH  16  17
ENDBRANCH  15  16
ENDBRANCH  12  15
ENDBRANCH   6   9
ENDBRANCH   5   6
ENDBRANCH   2   5
TORSDOF 12
ENDMDL
MODEL      215
REMARK 921   NORMALIZED FREE ENERGY PREDICTED BY IDOCK:   -3.82 KCAL/MOL
REMARK 922        TOTAL FREE ENERGY PREDICTED BY IDOCK:   -7.77 KCAL/MOL
REMARK 923 INTER-LIGAND FREE ENERGY PREDICTED BY IDOCK:   -7.59 KCAL/MOL
REMARK 924 INTRA-LIGAND FREE ENERGY PREDICTED BY IDOCK:   -0.18 KCAL/MOL
REMARK 927      BINDING AFFINITY PREDICTED BY RF-SCORE:    0.00 PKD
ROOT
HETATM    1  C   UNL     1      -9.168  17.803  68.049  1.00  0.00    -0.273 C  
HETATM    2  C   UNL     1      -8.228  16.717  67.510  1.00  0.00    -0.180 C  
HETATM    3  C   UNL     1      -6.822  17.298  67.304  1.00  0.00    -0.195 C  
HETATM    4  C   UNL     1      -8.107  15.645  68.627  1.00  0.00    -0.158 C  
ENDROOT
BRANCH   2   5
HETATM    5  C   UNL     1      -8.783  16.000  66.237  1.00  0.00    -0.372 C  
BRANCH   5   6
HETATM    6  C   UNL     1     -10.264  15.486  66.069  1.00  0.00    -0.349 C  
HETATM    7  C   UNL     1     -10.982  16.109  64.851  1.00  0.00    -0.364 C  
HETATM    8  C   UNL     1     -11.133  15.797  67.305  1.00  0.00    -0.211 C  
BRANCH   6   9
HETATM    9  C   UNL     1     -10.186  13.955  65.818  1.00  0.00    -0.331 A  
HETATM   10  C   UNL     1     -10.658  13.343  64.644  1.00  0.00    -0.431 A  
HETATM   11  C   UNL     1     -10.565  11.963  64.453  1.00  0.00    -0.366 A  
HETATM   12  C   UNL     1     -10.012  11.150  65.436  1.00  0.00    -0.259 A  
HETATM   13  C   UNL     1      -9.638  13.107  66.804  1.00  0.00    -0.249 A  
HETATM   14  C   UNL     1      -9.557  11.722  66.619  1.00  0.00    -0.219 A  
BRANCH  12  15
HETATM   15  O   UNL     1     -10.007   9.816  65.136  1.00  0.00    -0.309 OA 
BRANCH  15  16
HETATM   16  C   UNL     1      -8.910   9.066  65.639  1.00  0.00    -0.185 C  
BRANCH  16  17
HETATM   17  C   UNL     1      -9.372   8.347  66.909  1.00  0.00    -0.174 C  
BRANCH  17  18
HETATM   18  O   UNL     1     -10.298   7.272  66.705  1.00  0.00    -0.269 OA 
BRANCH  18  19
HETATM   19  C   UNL     1      -9.749   5.979  66.471  1.00  0.00    -0.149 C  
BRANCH  19  20
HETATM   20  C   UNL     1      -8.351   5.836  67.088  1.00  0.00    -0.104 C  
BRANCH  20  21
HETATM   21  N   UNL     1      -8.304   5.175  68.473  1.00  0.00    -0.089 N  
HETATM   22  C   UNL     1      -7.323   4.000  68.368  1.00  0.00    -0.059 C  
HETATM   23  C   UNL     1      -7.759   6.153  69.508  1.00  0.00    -0.099 C  
BRANCH  21  24
HETATM   24  C   UNL     1      -9.710   4.651  68.868  1.00  0.00    -0.166 C  
BRANCH  24  25
HETATM   25  C   UNL     1     -10.259   5.194  70.161  1.00  0.00    -0.348 A  
HETATM   26  C   UNL     1      -9.945   4.565  71.375  1.00  0.00    -0.259 A  
HETATM   27  C   UNL     1     -10.566   4.964  72.557  1.00  0.00    -0.271 A  
HETATM   28  C   UNL     1     -11.490   6.006  72.540  1.00  0.00    -0.336 A  
HETATM   29  C   UNL     1     -11.765   6.678  71.352  1.00  0.00    -0.374 A  
HETATM   30  C   UNL     1     -11.143   6.284  70.168  1.00  0.00    -0.443 A  
ENDBRANCH  24  25
ENDBRANCH  21  24
ENDBRANCH  20  21
ENDBRANCH  19  20
ENDBRANCH  18  19
ENDBRANCH  17  18
ENDBRANCH  16  17
ENDBRANCH  15  16
ENDBRANCH  12  15
ENDBRANCH   6   9
ENDBRANCH   5   6
ENDBRANCH   2   5
TORSDOF 12
ENDMDL
MODEL      216
REMARK 921   NORMALIZED FREE ENERGY PREDICTED BY IDOCK:   -3.81 KCAL/MOL
REMARK 922        TOTAL FREE ENERGY PREDICTED BY IDOCK:   -7.76 KCAL/MOL
REMARK 923 INTER-LIGAND FREE ENERGY PREDICTED BY IDOCK:   -6.18 KCAL/MOL
REMARK 924 INTRA-LIGAND FREE ENERGY PREDICTED BY IDOCK:   -1.57 KCAL/MOL
REMARK 927      BINDING AFFINITY PREDICTED BY RF-SCORE:    0.00 PKD
ROOT
HETATM    1  C   UNL     1      -9.343   7.377  70.062  1.00  0.00    -0.151 C  
HETATM    2  C   UNL     1      -9.370   8.300  68.837  1.00  0.00    -0.147 C  
HETATM    3  C   UNL     1     -10.220   7.669  67.726  1.00  0.00    -0.259 C  
HETATM    4  C   UNL     1     -10.105   9.595  69.278  1.00  0.00    -0.201 C  
ENDROOT
BRANCH   2   5
HETATM    5  C   UNL     1      -7.944   8.718  68.350  1.00  0.00    -0.109 C  
BRANCH   5   6
HETATM    6  C   UNL     1      -6.799   9.261  69.288  1.00  0.00    -0.049 C  
HETATM    7  C   UNL     1      -5.465   8.501  69.109  1.00  0.00    -0.035 C  
HETATM    8  C   UNL     1      -7.170   9.161  70.782  1.00  0.00    -0.112 C  
BRANCH   6   9
HETATM    9  C   UNL     1      -6.541  10.737  68.879  1.00  0.00    -0.057 A  
HETATM   10  C   UNL     1      -6.493  11.168  67.541  1.00  0.00    -0.069 A  
HETATM   11  C   UNL     1      -6.264  12.505  67.214  1.00  0.00    -0.124 A  
HETATM   12  C   UNL     1      -6.060  13.451  68.211  1.00  0.00    -0.099 A  
HETATM   13  C   UNL     1      -6.322  11.715  69.872  1.00  0.00    -0.124 A  
HETATM   14  C   UNL     1      -6.078  13.054  69.544  1.00  0.00    -0.115 A  
BRANCH  12  15
HETATM   15  O   UNL     1      -5.818  14.718  67.755  1.00  0.00    -0.211 OA 
BRANCH  15  16
HETATM   16  C   UNL     1      -6.836  15.677  68.005  1.00  0.00    -0.132 C  
BRANCH  16  17
HETATM   17  C   UNL     1      -7.236  16.301  66.665  1.00  0.00    -0.125 C  
BRANCH  17  18
HETATM   18  O   UNL     1      -8.529  16.919  66.636  1.00  0.00    -0.207 OA 
BRANCH  18  19
HETATM   19  C   UNL     1      -9.621  16.117  66.200  1.00  0.00    -0.327 C  
BRANCH  19  20
HETATM   20  C   UNL     1     -10.561  15.760  67.359  1.00  0.00    -0.313 C  
BRANCH  20  21
HETATM   21  N   UNL     1     -10.860  14.263  67.531  1.00  0.00    -0.276 N  
HETATM   22  C   UNL     1     -11.058  14.023  69.033  1.00  0.00    -0.264 C  
HETATM   23  C   UNL     1     -12.158  13.897  66.821  1.00  0.00    -0.439 C  
BRANCH  21  24
HETATM   24  C   UNL     1      -9.668  13.413  67.016  1.00  0.00    -0.239 C  
BRANCH  24  25
HETATM   25  C   UNL     1      -9.989  12.480  65.879  1.00  0.00    -0.269 A  
HETATM   26  C   UNL     1      -9.939  11.091  66.076  1.00  0.00    -0.285 A  
HETATM   27  C   UNL     1     -10.084  10.221  64.997  1.00  0.00    -0.353 A  
HETATM   28  C   UNL     1     -10.299  10.727  63.718  1.00  0.00    -0.294 A  
HETATM   29  C   UNL     1     -10.410  12.101  63.519  1.00  0.00    -0.473 A  
HETATM   30  C   UNL     1     -10.271  12.976  64.596  1.00  0.00    -0.324 A  
ENDBRANCH  24  25
ENDBRANCH  21  24
ENDBRANCH  20  21
ENDBRANCH  19  20
ENDBRANCH  18  19
ENDBRANCH  17  18
ENDBRANCH  16  17
ENDBRANCH  15  16
ENDBRANCH  12  15
ENDBRANCH   6   9
ENDBRANCH   5   6
ENDBRANCH   2   5
TORSDOF 12
ENDMDL
MODEL      217
REMARK 921   NORMALIZED FREE ENERGY PREDICTED BY IDOCK:   -3.81 KCAL/MOL
REMARK 922        TOTAL FREE ENERGY PREDICTED BY IDOCK:   -7.75 KCAL/MOL
REMARK 923 INTER-LIGAND FREE ENERGY PREDICTED BY IDOCK:   -7.14 KCAL/MOL
REMARK 924 INTRA-LIGAND FREE ENERGY PREDICTED BY IDOCK:   -0.61 KCAL/MOL
REMARK 927      BINDING AFFINITY PREDICTED BY RF-SCORE:    0.00 PKD
ROOT
HETATM    1  C   UNL     1      -5.850   4.534  65.621  1.00  0.00    -0.022 C  
HETATM    2  C   UNL     1      -6.861   3.506  66.148  1.00  0.00    -0.053 C  
HETATM    3  C   UNL     1      -7.556   2.807  64.973  1.00  0.00    -0.073 C  
HETATM    4  C   UNL     1      -6.037   2.419  66.890  1.00  0.00    -0.024 C  
ENDROOT
BRANCH   2   5
HETATM    5  C   UNL     1      -7.869   4.109  67.180  1.00  0.00    -0.096 C  
BRANCH   5   6
HETATM    6  C   UNL     1      -9.027   5.118  66.821  1.00  0.00    -0.113 C  
HETATM    7  C   UNL     1     -10.198   4.444  66.072  1.00  0.00    -0.246 C  
HETATM    8  C   UNL     1      -8.536   6.276  65.929  1.00  0.00    -0.146 C  
BRANCH   6   9
HETATM    9  C   UNL     1      -9.593   5.653  68.165  1.00  0.00    -0.135 A  
HETATM   10  C   UNL     1      -8.815   5.788  69.328  1.00  0.00    -0.116 A  
HETATM   11  C   UNL     1      -9.360   6.279  70.516  1.00  0.00    -0.171 A  
HETATM   12  C   UNL     1     -10.701   6.636  70.583  1.00  0.00    -0.241 A  
HETATM   13  C   UNL     1     -10.953   6.014  68.262  1.00  0.00    -0.347 A  
HETATM   14  C   UNL     1     -11.504   6.493  69.456  1.00  0.00    -0.384 A  
BRANCH  12  15
HETATM   15  O   UNL     1     -11.114   7.074  71.811  1.00  0.00    -0.232 OA 
BRANCH  15  16
HETATM   16  C   UNL     1     -10.775   8.414  72.144  1.00  0.00    -0.337 C  
BRANCH  16  17
HETATM   17  C   UNL     1     -11.944   9.313  71.732  1.00  0.00    -0.385 C  
BRANCH  17  18
HETATM   18  O   UNL     1     -11.582  10.518  71.047  1.00  0.00    -0.330 OA 
BRANCH  18  19
HETATM   19  C   UNL     1     -11.109  10.387  69.711  1.00  0.00    -0.295 C  
BRANCH  19  20
HETATM   20  C   UNL     1     -12.001  11.142  68.717  1.00  0.00    -0.268 C  
BRANCH  20  21
HETATM   21  N   UNL     1     -11.265  12.070  67.739  1.00  0.00    -0.251 N  
HETATM   22  C   UNL     1      -9.896  12.371  68.363  1.00  0.00    -0.198 C  
HETATM   23  C   UNL     1     -11.031  11.361  66.410  1.00  0.00    -0.260 C  
BRANCH  21  24
HETATM   24  C   UNL     1     -12.057  13.391  67.549  1.00  0.00    -0.279 C  
BRANCH  24  25
HETATM   25  C   UNL     1     -11.875  14.412  68.640  1.00  0.00    -0.366 A  
HETATM   26  C   UNL     1     -11.168  15.597  68.381  1.00  0.00    -0.352 A  
HETATM   27  C   UNL     1     -10.862  16.476  69.417  1.00  0.00    -0.311 A  
HETATM   28  C   UNL     1     -11.275  16.192  70.716  1.00  0.00    -0.356 A  
HETATM   29  C   UNL     1     -12.028  15.050  70.977  1.00  0.00    -0.376 A  
HETATM   30  C   UNL     1     -12.340  14.169  69.941  1.00  0.00    -0.382 A  
ENDBRANCH  24  25
ENDBRANCH  21  24
ENDBRANCH  20  21
ENDBRANCH  19  20
ENDBRANCH  18  19
ENDBRANCH  17  18
ENDBRANCH  16  17
ENDBRANCH  15  16
ENDBRANCH  12  15
ENDBRANCH   6   9
ENDBRANCH   5   6
ENDBRANCH   2   5
TORSDOF 12
ENDMDL
MODEL      218
REMARK 921   NORMALIZED FREE ENERGY PREDICTED BY IDOCK:   -3.81 KCAL/MOL
REMARK 922        TOTAL FREE ENERGY PREDICTED BY IDOCK:   -7.75 KCAL/MOL
REMARK 923 INTER-LIGAND FREE ENERGY PREDICTED BY IDOCK:   -7.31 KCAL/MOL
REMARK 924 INTRA-LIGAND FREE ENERGY PREDICTED BY IDOCK:   -0.44 KCAL/MOL
REMARK 927      BINDING AFFINITY PREDICTED BY RF-SCORE:    0.00 PKD
ROOT
HETATM    1  C   UNL     1      -8.352   4.224  71.751  1.00  0.00    -0.103 C  
HETATM    2  C   UNL     1      -9.025   4.357  70.379  1.00  0.00    -0.145 C  
HETATM    3  C   UNL     1      -9.427   2.971  69.858  1.00  0.00    -0.189 C  
HETATM    4  C   UNL     1     -10.342   5.147  70.608  1.00  0.00    -0.305 C  
ENDROOT
BRANCH   2   5
HETATM    5  C   UNL     1      -8.169   5.168  69.351  1.00  0.00    -0.087 C  
BRANCH   5   6
HETATM    6  C   UNL     1      -7.624   6.628  69.592  1.00  0.00    -0.098 C  
HETATM    7  C   UNL     1      -6.262   6.880  68.907  1.00  0.00    -0.027 C  
HETATM    8  C   UNL     1      -7.433   6.941  71.090  1.00  0.00    -0.082 C  
BRANCH   6   9
HETATM    9  C   UNL     1      -8.646   7.605  68.947  1.00  0.00    -0.129 A  
HETATM   10  C   UNL     1      -9.168   7.428  67.653  1.00  0.00    -0.132 A  
HETATM   11  C   UNL     1     -10.089   8.325  67.111  1.00  0.00    -0.334 A  
HETATM   12  C   UNL     1     -10.505   9.435  67.837  1.00  0.00    -0.243 A  
HETATM   13  C   UNL     1      -9.077   8.743  69.659  1.00  0.00    -0.149 A  
HETATM   14  C   UNL     1      -9.990   9.651  69.111  1.00  0.00    -0.189 A  
BRANCH  12  15
HETATM   15  O   UNL     1     -11.387  10.249  67.180  1.00  0.00    -0.230 OA 
BRANCH  15  16
HETATM   16  C   UNL     1     -11.435  11.600  67.616  1.00  0.00    -0.303 C  
BRANCH  16  17
HETATM   17  C   UNL     1     -10.236  12.335  67.012  1.00  0.00    -0.215 C  
BRANCH  17  18
HETATM   18  O   UNL     1     -10.558  13.442  66.160  1.00  0.00    -0.285 OA 
BRANCH  18  19
HETATM   19  C   UNL     1     -10.087  14.725  66.559  1.00  0.00    -0.273 C  
BRANCH  19  20
HETATM   20  C   UNL     1      -9.702  14.752  68.045  1.00  0.00    -0.213 C  
BRANCH  20  21
HETATM   21  N   UNL     1     -10.575  15.644  68.939  1.00  0.00    -0.218 N  
HETATM   22  C   UNL     1      -9.974  17.054  68.876  1.00  0.00    -0.285 C  
HETATM   23  C   UNL     1     -11.997  15.714  68.392  1.00  0.00    -0.067 C  
BRANCH  21  24
HETATM   24  C   UNL     1     -10.552  15.128  70.403  1.00  0.00    -0.134 C  
BRANCH  24  25
HETATM   25  C   UNL     1     -11.898  14.798  70.989  1.00  0.00    -0.383 A  
HETATM   26  C   UNL     1     -12.681  15.812  71.564  1.00  0.00    -0.512 A  
HETATM   27  C   UNL     1     -13.855  15.496  72.243  1.00  0.00    -0.639 A  
HETATM   28  C   UNL     1     -14.270  14.170  72.338  1.00  0.00    -0.498 A  
HETATM   29  C   UNL     1     -13.534  13.161  71.721  1.00  0.00    -0.420 A  
HETATM   30  C   UNL     1     -12.360  13.474  71.036  1.00  0.00    -0.422 A  
ENDBRANCH  24  25
ENDBRANCH  21  24
ENDBRANCH  20  21
ENDBRANCH  19  20
ENDBRANCH  18  19
ENDBRANCH  17  18
ENDBRANCH  16  17
ENDBRANCH  15  16
ENDBRANCH  12  15
ENDBRANCH   6   9
ENDBRANCH   5   6
ENDBRANCH   2   5
TORSDOF 12
ENDMDL
MODEL      219
REMARK 921   NORMALIZED FREE ENERGY PREDICTED BY IDOCK:   -3.80 KCAL/MOL
REMARK 922        TOTAL FREE ENERGY PREDICTED BY IDOCK:   -7.74 KCAL/MOL
REMARK 923 INTER-LIGAND FREE ENERGY PREDICTED BY IDOCK:   -7.38 KCAL/MOL
REMARK 924 INTRA-LIGAND FREE ENERGY PREDICTED BY IDOCK:   -0.35 KCAL/MOL
REMARK 927      BINDING AFFINITY PREDICTED BY RF-SCORE:    0.00 PKD
ROOT
HETATM    1  C   UNL     1     -14.158  15.341  71.007  1.00  0.00    -0.320 C  
HETATM    2  C   UNL     1     -12.841  14.742  71.518  1.00  0.00    -0.406 C  
HETATM    3  C   UNL     1     -12.024  15.819  72.245  1.00  0.00    -0.592 C  
HETATM    4  C   UNL     1     -13.225  13.680  72.584  1.00  0.00    -0.533 C  
ENDROOT
BRANCH   2   5
HETATM    5  C   UNL     1     -12.026  14.008  70.404  1.00  0.00    -0.398 C  
BRANCH   5   6
HETATM    6  C   UNL     1     -11.134  14.729  69.322  1.00  0.00    -0.283 C  
HETATM    7  C   UNL     1      -9.790  15.234  69.892  1.00  0.00    -0.137 C  
HETATM    8  C   UNL     1     -11.842  15.951  68.702  1.00  0.00    -0.243 C  
BRANCH   6   9
HETATM    9  C   UNL     1     -10.799  13.671  68.234  1.00  0.00    -0.268 A  
HETATM   10  C   UNL     1      -9.963  13.936  67.135  1.00  0.00    -0.239 A  
HETATM   11  C   UNL     1      -9.682  12.956  66.181  1.00  0.00    -0.250 A  
HETATM   12  C   UNL     1     -10.239  11.688  66.287  1.00  0.00    -0.227 A  
HETATM   13  C   UNL     1     -11.360  12.379  68.313  1.00  0.00    -0.332 A  
HETATM   14  C   UNL     1     -11.090  11.401  67.349  1.00  0.00    -0.349 A  
BRANCH  12  15
HETATM   15  O   UNL     1      -9.907  10.832  65.272  1.00  0.00    -0.235 OA 
BRANCH  15  16
HETATM   16  C   UNL     1      -8.556  10.393  65.243  1.00  0.00    -0.176 C  
BRANCH  16  17
HETATM   17  C   UNL     1      -8.543   8.886  65.514  1.00  0.00    -0.168 C  
BRANCH  17  18
HETATM   18  O   UNL     1      -9.765   8.343  66.029  1.00  0.00    -0.195 OA 
BRANCH  18  19
HETATM   19  C   UNL     1      -9.795   8.015  67.414  1.00  0.00    -0.186 C  
BRANCH  19  20
HETATM   20  C   UNL     1      -8.404   8.122  68.053  1.00  0.00    -0.129 C  
BRANCH  20  21
HETATM   21  N   UNL     1      -8.388   8.373  69.568  1.00  0.00    -0.118 N  
HETATM   22  C   UNL     1      -7.532   9.625  69.798  1.00  0.00    -0.110 C  
HETATM   23  C   UNL     1      -9.797   8.667  70.071  1.00  0.00    -0.179 C  
BRANCH  21  24
HETATM   24  C   UNL     1      -7.759   7.163  70.309  1.00  0.00    -0.095 C  
BRANCH  24  25
HETATM   25  C   UNL     1      -8.695   6.403  71.209  1.00  0.00    -0.135 A  
HETATM   26  C   UNL     1      -9.011   5.065  70.924  1.00  0.00    -0.165 A  
HETATM   27  C   UNL     1      -9.990   4.401  71.659  1.00  0.00    -0.256 A  
HETATM   28  C   UNL     1     -10.648   5.057  72.696  1.00  0.00    -0.274 A  
HETATM   29  C   UNL     1     -10.302   6.365  73.027  1.00  0.00    -0.234 A  
HETATM   30  C   UNL     1      -9.319   7.032  72.297  1.00  0.00    -0.150 A  
ENDBRANCH  24  25
ENDBRANCH  21  24
ENDBRANCH  20  21
ENDBRANCH  19  20
ENDBRANCH  18  19
ENDBRANCH  17  18
ENDBRANCH  16  17
ENDBRANCH  15  16
ENDBRANCH  12  15
ENDBRANCH   6   9
ENDBRANCH   5   6
ENDBRANCH   2   5
TORSDOF 12
ENDMDL
MODEL      220
REMARK 921   NORMALIZED FREE ENERGY PREDICTED BY IDOCK:   -3.78 KCAL/MOL
REMARK 922        TOTAL FREE ENERGY PREDICTED BY IDOCK:   -7.71 KCAL/MOL
REMARK 923 INTER-LIGAND FREE ENERGY PREDICTED BY IDOCK:   -7.22 KCAL/MOL
REMARK 924 INTRA-LIGAND FREE ENERGY PREDICTED BY IDOCK:   -0.49 KCAL/MOL
REMARK 927      BINDING AFFINITY PREDICTED BY RF-SCORE:    0.00 PKD
ROOT
HETATM    1  C   UNL     1      -9.792   8.487  72.310  1.00  0.00    -0.383 C  
HETATM    2  C   UNL     1      -9.172   7.364  73.152  1.00  0.00    -0.222 C  
HETATM    3  C   UNL     1      -7.899   7.870  73.843  1.00  0.00    -0.230 C  
HETATM    4  C   UNL     1     -10.192   7.043  74.278  1.00  0.00    -0.147 C  
ENDROOT
BRANCH   2   5
HETATM    5  C   UNL     1      -8.943   6.045  72.344  1.00  0.00    -0.137 C  
BRANCH   5   6
HETATM    6  C   UNL     1      -9.996   5.397  71.365  1.00  0.00    -0.241 C  
HETATM    7  C   UNL     1     -11.453   5.775  71.715  1.00  0.00    -0.199 C  
HETATM    8  C   UNL     1      -9.924   3.856  71.366  1.00  0.00    -0.198 C  
BRANCH   6   9
HETATM    9  C   UNL     1      -9.706   5.965  69.949  1.00  0.00    -0.208 A  
HETATM   10  C   UNL     1     -10.684   6.062  68.943  1.00  0.00    -0.384 A  
HETATM   11  C   UNL     1     -10.384   6.584  67.684  1.00  0.00    -0.239 A  
HETATM   12  C   UNL     1      -9.096   7.010  67.384  1.00  0.00    -0.123 A  
HETATM   13  C   UNL     1      -8.404   6.396  69.616  1.00  0.00    -0.126 A  
HETATM   14  C   UNL     1      -8.100   6.906  68.349  1.00  0.00    -0.120 A  
BRANCH  12  15
HETATM   15  O   UNL     1      -8.930   7.472  66.107  1.00  0.00    -0.163 OA 
BRANCH  15  16
HETATM   16  C   UNL     1      -8.085   8.604  65.956  1.00  0.00    -0.109 C  
BRANCH  16  17
HETATM   17  C   UNL     1      -8.866   9.841  66.407  1.00  0.00    -0.146 C  
BRANCH  17  18
HETATM   18  O   UNL     1      -8.732  10.993  65.566  1.00  0.00    -0.187 OA 
BRANCH  18  19
HETATM   19  C   UNL     1      -9.916  11.735  65.289  1.00  0.00    -0.253 C  
BRANCH  19  20
HETATM   20  C   UNL     1      -9.850  13.149  65.883  1.00  0.00    -0.233 C  
BRANCH  20  21
HETATM   21  N   UNL     1     -10.911  13.471  66.945  1.00  0.00    -0.286 N  
HETATM   22  C   UNL     1     -11.609  14.761  66.495  1.00  0.00    -0.301 C  
HETATM   23  C   UNL     1     -11.958  12.364  67.001  1.00  0.00    -0.186 C  
BRANCH  21  24
HETATM   24  C   UNL     1     -10.241  13.692  68.328  1.00  0.00    -0.243 C  
BRANCH  24  25
HETATM   25  C   UNL     1     -11.187  13.969  69.464  1.00  0.00    -0.249 A  
HETATM   26  C   UNL     1     -11.798  12.905  70.145  1.00  0.00    -0.319 A  
HETATM   27  C   UNL     1     -12.788  13.150  71.094  1.00  0.00    -0.349 A  
HETATM   28  C   UNL     1     -13.164  14.458  71.386  1.00  0.00    -0.418 A  
HETATM   29  C   UNL     1     -12.524  15.526  70.760  1.00  0.00    -0.491 A  
HETATM   30  C   UNL     1     -11.529  15.285  69.813  1.00  0.00    -0.332 A  
ENDBRANCH  24  25
ENDBRANCH  21  24
ENDBRANCH  20  21
ENDBRANCH  19  20
ENDBRANCH  18  19
ENDBRANCH  17  18
ENDBRANCH  16  17
ENDBRANCH  15  16
ENDBRANCH  12  15
ENDBRANCH   6   9
ENDBRANCH   5   6
ENDBRANCH   2   5
TORSDOF 12
ENDMDL
MODEL      221
REMARK 921   NORMALIZED FREE ENERGY PREDICTED BY IDOCK:   -3.78 KCAL/MOL
REMARK 922        TOTAL FREE ENERGY PREDICTED BY IDOCK:   -7.71 KCAL/MOL
REMARK 923 INTER-LIGAND FREE ENERGY PREDICTED BY IDOCK:   -7.41 KCAL/MOL
REMARK 924 INTRA-LIGAND FREE ENERGY PREDICTED BY IDOCK:   -0.30 KCAL/MOL
REMARK 927      BINDING AFFINITY PREDICTED BY RF-SCORE:    0.00 PKD
ROOT
HETATM    1  C   UNL     1      -6.442  17.468  68.930  1.00  0.00    -0.213 C  
HETATM    2  C   UNL     1      -7.464  17.356  67.790  1.00  0.00    -0.195 C  
HETATM    3  C   UNL     1      -8.185  18.698  67.602  1.00  0.00    -0.274 C  
HETATM    4  C   UNL     1      -6.650  17.102  66.493  1.00  0.00    -0.277 C  
ENDROOT
BRANCH   2   5
HETATM    5  C   UNL     1      -8.449  16.155  67.964  1.00  0.00    -0.168 C  
BRANCH   5   6
HETATM    6  C   UNL     1      -9.901  16.089  67.352  1.00  0.00    -0.236 C  
HETATM    7  C   UNL     1      -9.901  16.090  65.807  1.00  0.00    -0.357 C  
HETATM    8  C   UNL     1     -10.778  17.277  67.798  1.00  0.00    -0.333 C  
BRANCH   6   9
HETATM    9  C   UNL     1     -10.522  14.739  67.807  1.00  0.00    -0.254 A  
HETATM   10  C   UNL     1     -11.082  14.541  69.081  1.00  0.00    -0.284 A  
HETATM   11  C   UNL     1     -11.636  13.315  69.451  1.00  0.00    -0.364 A  
HETATM   12  C   UNL     1     -11.633  12.243  68.566  1.00  0.00    -0.310 A  
HETATM   13  C   UNL     1     -10.523  13.634  66.931  1.00  0.00    -0.272 A  
HETATM   14  C   UNL     1     -11.065  12.399  67.306  1.00  0.00    -0.329 A  
BRANCH  12  15
HETATM   15  O   UNL     1     -12.180  11.091  69.062  1.00  0.00    -0.483 OA 
BRANCH  15  16
HETATM   16  C   UNL     1     -12.248  10.991  70.478  1.00  0.00    -0.381 C  
BRANCH  16  17
HETATM   17  C   UNL     1     -11.393   9.796  70.909  1.00  0.00    -0.365 C  
BRANCH  17  18
HETATM   18  O   UNL     1     -10.521   9.268  69.902  1.00  0.00    -0.205 OA 
BRANCH  18  19
HETATM   19  C   UNL     1      -9.775   8.103  70.237  1.00  0.00    -0.175 C  
BRANCH  19  20
HETATM   20  C   UNL     1      -9.284   7.364  68.984  1.00  0.00    -0.146 C  
BRANCH  20  21
HETATM   21  N   UNL     1     -10.227   6.279  68.444  1.00  0.00    -0.156 N  
HETATM   22  C   UNL     1     -11.268   6.013  69.539  1.00  0.00    -0.346 C  
HETATM   23  C   UNL     1     -10.962   6.783  67.208  1.00  0.00    -0.363 C  
BRANCH  21  24
HETATM   24  C   UNL     1      -9.435   4.977  68.146  1.00  0.00    -0.132 C  
BRANCH  24  25
HETATM   25  C   UNL     1      -9.054   4.773  66.704  1.00  0.00    -0.117 A  
HETATM   26  C   UNL     1      -7.944   5.447  66.170  1.00  0.00    -0.105 A  
HETATM   27  C   UNL     1      -7.673   5.386  64.805  1.00  0.00    -0.090 A  
HETATM   28  C   UNL     1      -8.492   4.637  63.965  1.00  0.00    -0.125 A  
HETATM   29  C   UNL     1      -9.561   3.915  64.492  1.00  0.00    -0.173 A  
HETATM   30  C   UNL     1      -9.834   3.970  65.858  1.00  0.00    -0.179 A  
ENDBRANCH  24  25
ENDBRANCH  21  24
ENDBRANCH  20  21
ENDBRANCH  19  20
ENDBRANCH  18  19
ENDBRANCH  17  18
ENDBRANCH  16  17
ENDBRANCH  15  16
ENDBRANCH  12  15
ENDBRANCH   6   9
ENDBRANCH   5   6
ENDBRANCH   2   5
TORSDOF 12
ENDMDL
MODEL      222
REMARK 921   NORMALIZED FREE ENERGY PREDICTED BY IDOCK:   -3.78 KCAL/MOL
REMARK 922        TOTAL FREE ENERGY PREDICTED BY IDOCK:   -7.70 KCAL/MOL
REMARK 923 INTER-LIGAND FREE ENERGY PREDICTED BY IDOCK:   -7.93 KCAL/MOL
REMARK 924 INTRA-LIGAND FREE ENERGY PREDICTED BY IDOCK:    0.22 KCAL/MOL
REMARK 927      BINDING AFFINITY PREDICTED BY RF-SCORE:    0.00 PKD
ROOT
HETATM    1  C   UNL     1      -9.789   5.493  68.802  1.00  0.00    -0.206 C  
HETATM    2  C   UNL     1      -8.545   6.376  68.961  1.00  0.00    -0.124 C  
HETATM    3  C   UNL     1      -8.395   6.809  70.426  1.00  0.00    -0.130 C  
HETATM    4  C   UNL     1      -7.322   5.477  68.635  1.00  0.00    -0.075 C  
ENDROOT
BRANCH   2   5
HETATM    5  C   UNL     1      -8.514   7.580  67.964  1.00  0.00    -0.123 C  
BRANCH   5   6
HETATM    6  C   UNL     1      -7.743   7.588  66.589  1.00  0.00    -0.101 C  
HETATM    7  C   UNL     1      -7.769   6.216  65.878  1.00  0.00    -0.093 C  
HETATM    8  C   UNL     1      -6.259   7.975  66.754  1.00  0.00    -0.054 C  
BRANCH   6   9
HETATM    9  C   UNL     1      -8.479   8.596  65.663  1.00  0.00    -0.171 A  
HETATM   10  C   UNL     1      -9.637   9.292  66.052  1.00  0.00    -0.338 A  
HETATM   11  C   UNL     1     -10.267  10.194  65.192  1.00  0.00    -0.233 A  
HETATM   12  C   UNL     1      -9.770  10.416  63.914  1.00  0.00    -0.305 A  
HETATM   13  C   UNL     1      -8.000   8.832  64.358  1.00  0.00    -0.144 A  
HETATM   14  C   UNL     1      -8.639   9.725  63.491  1.00  0.00    -0.204 A  
BRANCH  12  15
HETATM   15  O   UNL     1     -10.496  11.301  63.165  1.00  0.00    -0.333 OA 
BRANCH  15  16
HETATM   16  C   UNL     1     -10.738  12.570  63.756  1.00  0.00    -0.445 C  
BRANCH  16  17
HETATM   17  C   UNL     1     -12.208  12.621  64.181  1.00  0.00    -0.450 C  
BRANCH  17  18
HETATM   18  O   UNL     1     -12.441  12.586  65.595  1.00  0.00    -0.648 OA 
BRANCH  18  19
HETATM   19  C   UNL     1     -12.399  13.828  66.289  1.00  0.00    -0.433 C  
BRANCH  19  20
HETATM   20  C   UNL     1     -10.973  14.181  66.734  1.00  0.00    -0.300 C  
BRANCH  20  21
HETATM   21  N   UNL     1     -10.683  14.000  68.231  1.00  0.00    -0.247 N  
HETATM   22  C   UNL     1      -9.618  12.902  68.345  1.00  0.00    -0.176 C  
HETATM   23  C   UNL     1     -10.102  15.282  68.817  1.00  0.00    -0.219 C  
BRANCH  21  24
HETATM   24  C   UNL     1     -11.970  13.562  68.981  1.00  0.00    -0.335 C  
BRANCH  24  25
HETATM   25  C   UNL     1     -11.933  12.177  69.566  1.00  0.00    -0.338 A  
HETATM   26  C   UNL     1     -12.435  11.946  70.857  1.00  0.00    -0.397 A  
HETATM   27  C   UNL     1     -12.268  10.705  71.467  1.00  0.00    -0.345 A  
HETATM   28  C   UNL     1     -11.618   9.678  70.789  1.00  0.00    -0.395 A  
HETATM   29  C   UNL     1     -11.167   9.875  69.485  1.00  0.00    -0.220 A  
HETATM   30  C   UNL     1     -11.336  11.115  68.869  1.00  0.00    -0.344 A  
ENDBRANCH  24  25
ENDBRANCH  21  24
ENDBRANCH  20  21
ENDBRANCH  19  20
ENDBRANCH  18  19
ENDBRANCH  17  18
ENDBRANCH  16  17
ENDBRANCH  15  16
ENDBRANCH  12  15
ENDBRANCH   6   9
ENDBRANCH   5   6
ENDBRANCH   2   5
TORSDOF 12
ENDMDL
MODEL      223
REMARK 921   NORMALIZED FREE ENERGY PREDICTED BY IDOCK:   -3.77 KCAL/MOL
REMARK 922        TOTAL FREE ENERGY PREDICTED BY IDOCK:   -7.68 KCAL/MOL
REMARK 923 INTER-LIGAND FREE ENERGY PREDICTED BY IDOCK:   -6.53 KCAL/MOL
REMARK 924 INTRA-LIGAND FREE ENERGY PREDICTED BY IDOCK:   -1.15 KCAL/MOL
REMARK 927      BINDING AFFINITY PREDICTED BY RF-SCORE:    0.00 PKD
ROOT
HETATM    1  C   UNL     1     -10.732   6.188  67.905  1.00  0.00    -0.374 C  
HETATM    2  C   UNL     1      -9.388   5.707  68.467  1.00  0.00    -0.139 C  
HETATM    3  C   UNL     1      -9.503   4.244  68.915  1.00  0.00    -0.236 C  
HETATM    4  C   UNL     1      -8.381   5.733  67.285  1.00  0.00    -0.104 C  
ENDROOT
BRANCH   2   5
HETATM    5  C   UNL     1      -8.817   6.643  69.582  1.00  0.00    -0.143 C  
BRANCH   5   6
HETATM    6  C   UNL     1      -9.671   7.683  70.404  1.00  0.00    -0.179 C  
HETATM    7  C   UNL     1      -8.952   8.175  71.681  1.00  0.00    -0.212 C  
HETATM    8  C   UNL     1     -11.027   7.102  70.854  1.00  0.00    -0.276 C  
BRANCH   6   9
HETATM    9  C   UNL     1      -9.874   8.923  69.490  1.00  0.00    -0.180 A  
HETATM   10  C   UNL     1     -11.095   9.613  69.391  1.00  0.00    -0.170 A  
HETATM   11  C   UNL     1     -11.237  10.727  68.562  1.00  0.00    -0.340 A  
HETATM   12  C   UNL     1     -10.170  11.176  67.793  1.00  0.00    -0.180 A  
HETATM   13  C   UNL     1      -8.809   9.392  68.693  1.00  0.00    -0.132 A  
HETATM   14  C   UNL     1      -8.955  10.500  67.850  1.00  0.00    -0.137 A  
BRANCH  12  15
HETATM   15  O   UNL     1     -10.450  12.257  67.003  1.00  0.00    -0.215 OA 
BRANCH  15  16
HETATM   16  C   UNL     1     -11.808  12.412  66.614  1.00  0.00    -0.325 C  
BRANCH  16  17
HETATM   17  C   UNL     1     -11.830  12.934  65.175  1.00  0.00    -0.380 C  
BRANCH  17  18
HETATM   18  O   UNL     1     -11.780  14.359  65.036  1.00  0.00    -0.356 OA 
BRANCH  18  19
HETATM   19  C   UNL     1     -10.509  14.981  65.196  1.00  0.00    -0.412 C  
BRANCH  19  20
HETATM   20  C   UNL     1     -10.644  16.426  65.696  1.00  0.00    -0.323 C  
BRANCH  20  21
HETATM   21  N   UNL     1     -10.100  16.691  67.108  1.00  0.00    -0.270 N  
HETATM   22  C   UNL     1     -10.643  18.059  67.540  1.00  0.00    -0.388 C  
HETATM   23  C   UNL     1     -10.627  15.645  68.084  1.00  0.00    -0.274 C  
BRANCH  21  24
HETATM   24  C   UNL     1      -8.548  16.724  67.090  1.00  0.00    -0.196 C  
BRANCH  24  25
HETATM   25  C   UNL     1      -7.873  15.680  67.939  1.00  0.00    -0.143 A  
HETATM   26  C   UNL     1      -7.609  14.408  67.409  1.00  0.00    -0.196 A  
HETATM   27  C   UNL     1      -7.126  13.390  68.228  1.00  0.00    -0.109 A  
HETATM   28  C   UNL     1      -6.883  13.637  69.576  1.00  0.00     0.027 A  
HETATM   29  C   UNL     1      -7.085  14.911  70.101  1.00  0.00     0.050 A  
HETATM   30  C   UNL     1      -7.564  15.934  69.284  1.00  0.00    -0.221 A  
ENDBRANCH  24  25
ENDBRANCH  21  24
ENDBRANCH  20  21
ENDBRANCH  19  20
ENDBRANCH  18  19
ENDBRANCH  17  18
ENDBRANCH  16  17
ENDBRANCH  15  16
ENDBRANCH  12  15
ENDBRANCH   6   9
ENDBRANCH   5   6
ENDBRANCH   2   5
TORSDOF 12
ENDMDL
MODEL      224
REMARK 921   NORMALIZED FREE ENERGY PREDICTED BY IDOCK:   -3.74 KCAL/MOL
REMARK 922        TOTAL FREE ENERGY PREDICTED BY IDOCK:   -7.63 KCAL/MOL
REMARK 923 INTER-LIGAND FREE ENERGY PREDICTED BY IDOCK:   -6.98 KCAL/MOL
REMARK 924 INTRA-LIGAND FREE ENERGY PREDICTED BY IDOCK:   -0.64 KCAL/MOL
REMARK 927      BINDING AFFINITY PREDICTED BY RF-SCORE:    0.00 PKD
ROOT
HETATM    1  C   UNL     1     -10.013  13.491  65.241  1.00  0.00    -0.206 C  
HETATM    2  C   UNL     1     -11.153  12.473  65.108  1.00  0.00    -0.335 C  
HETATM    3  C   UNL     1     -12.408  12.998  65.818  1.00  0.00    -0.477 C  
HETATM    4  C   UNL     1     -11.497  12.393  63.596  1.00  0.00    -0.568 C  
ENDROOT
BRANCH   2   5
HETATM    5  C   UNL     1     -10.749  11.034  65.569  1.00  0.00    -0.218 C  
BRANCH   5   6
HETATM    6  C   UNL     1      -9.386  10.327  65.213  1.00  0.00    -0.267 C  
HETATM    7  C   UNL     1      -8.171  10.979  65.912  1.00  0.00    -0.100 C  
HETATM    8  C   UNL     1      -9.093  10.350  63.699  1.00  0.00    -0.277 C  
BRANCH   6   9
HETATM    9  C   UNL     1      -9.484   8.868  65.737  1.00  0.00    -0.272 A  
HETATM   10  C   UNL     1      -8.667   7.825  65.266  1.00  0.00    -0.004 A  
HETATM   11  C   UNL     1      -8.782   6.527  65.766  1.00  0.00    -0.129 A  
HETATM   12  C   UNL     1      -9.726   6.226  66.740  1.00  0.00    -0.156 A  
HETATM   13  C   UNL     1     -10.440   8.535  66.719  1.00  0.00    -0.308 A  
HETATM   14  C   UNL     1     -10.566   7.230  67.211  1.00  0.00    -0.395 A  
BRANCH  12  15
HETATM   15  O   UNL     1      -9.755   4.913  67.122  1.00  0.00    -0.151 OA 
BRANCH  15  16
HETATM   16  C   UNL     1      -8.553   4.397  67.678  1.00  0.00    -0.103 C  
BRANCH  16  17
HETATM   17  C   UNL     1      -8.857   3.920  69.100  1.00  0.00    -0.101 C  
BRANCH  17  18
HETATM   18  O   UNL     1      -8.551   4.855  70.142  1.00  0.00    -0.088 OA 
BRANCH  18  19
HETATM   19  C   UNL     1      -8.661   4.390  71.483  1.00  0.00    -0.112 C  
BRANCH  19  20
HETATM   20  C   UNL     1     -10.010   3.702  71.736  1.00  0.00    -0.140 C  
BRANCH  20  21
HETATM   21  N   UNL     1     -10.612   3.920  73.132  1.00  0.00    -0.174 N  
HETATM   22  C   UNL     1     -11.242   2.587  73.553  1.00  0.00    -0.207 C  
HETATM   23  C   UNL     1      -9.515   4.260  74.135  1.00  0.00    -0.106 C  
BRANCH  21  24
HETATM   24  C   UNL     1     -11.702   5.024  73.083  1.00  0.00    -0.125 C  
BRANCH  24  25
HETATM   25  C   UNL     1     -11.245   6.355  72.551  1.00  0.00    -0.307 A  
HETATM   26  C   UNL     1     -11.644   6.775  71.272  1.00  0.00    -0.366 A  
HETATM   27  C   UNL     1     -11.106   7.931  70.710  1.00  0.00    -0.264 A  
HETATM   28  C   UNL     1     -10.183   8.688  71.426  1.00  0.00    -0.324 A  
HETATM   29  C   UNL     1      -9.823   8.315  72.719  1.00  0.00    -0.333 A  
HETATM   30  C   UNL     1     -10.362   7.161  73.287  1.00  0.00    -0.369 A  
ENDBRANCH  24  25
ENDBRANCH  21  24
ENDBRANCH  20  21
ENDBRANCH  19  20
ENDBRANCH  18  19
ENDBRANCH  17  18
ENDBRANCH  16  17
ENDBRANCH  15  16
ENDBRANCH  12  15
ENDBRANCH   6   9
ENDBRANCH   5   6
ENDBRANCH   2   5
TORSDOF 12
ENDMDL
MODEL      225
REMARK 921   NORMALIZED FREE ENERGY PREDICTED BY IDOCK:   -3.72 KCAL/MOL
REMARK 922        TOTAL FREE ENERGY PREDICTED BY IDOCK:   -7.60 KCAL/MOL
REMARK 923 INTER-LIGAND FREE ENERGY PREDICTED BY IDOCK:   -7.28 KCAL/MOL
REMARK 924 INTRA-LIGAND FREE ENERGY PREDICTED BY IDOCK:   -0.31 KCAL/MOL
REMARK 927      BINDING AFFINITY PREDICTED BY RF-SCORE:    0.00 PKD
ROOT
HETATM    1  C   UNL     1      -8.341  19.904  66.550  1.00  0.00    -0.372 C  
HETATM    2  C   UNL     1      -9.754  19.381  66.840  1.00  0.00    -0.431 C  
HETATM    3  C   UNL     1     -10.276  19.985  68.150  1.00  0.00    -0.535 C  
HETATM    4  C   UNL     1     -10.665  19.923  65.705  1.00  0.00    -0.423 C  
ENDROOT
BRANCH   2   5
HETATM    5  C   UNL     1      -9.850  17.820  66.807  1.00  0.00    -0.320 C  
BRANCH   5   6
HETATM    6  C   UNL     1      -9.678  16.884  68.064  1.00  0.00    -0.256 C  
HETATM    7  C   UNL     1     -10.721  17.164  69.169  1.00  0.00    -0.184 C  
HETATM    8  C   UNL     1      -8.288  17.032  68.716  1.00  0.00    -0.237 C  
BRANCH   6   9
HETATM    9  C   UNL     1      -9.910  15.427  67.577  1.00  0.00    -0.217 A  
HETATM   10  C   UNL     1     -10.841  15.088  66.579  1.00  0.00    -0.320 A  
HETATM   11  C   UNL     1     -11.016  13.767  66.165  1.00  0.00    -0.292 A  
HETATM   12  C   UNL     1     -10.279  12.741  66.744  1.00  0.00    -0.239 A  
HETATM   13  C   UNL     1      -9.180  14.367  68.155  1.00  0.00    -0.199 A  
HETATM   14  C   UNL     1      -9.366  13.040  67.750  1.00  0.00    -0.199 A  
BRANCH  12  15
HETATM   15  O   UNL     1     -10.567  11.491  66.268  1.00  0.00    -0.246 OA 
BRANCH  15  16
HETATM   16  C   UNL     1     -11.103  10.572  67.210  1.00  0.00    -0.213 C  
BRANCH  16  17
HETATM   17  C   UNL     1     -10.107   9.420  67.366  1.00  0.00    -0.215 C  
BRANCH  17  18
HETATM   18  O   UNL     1      -9.929   8.938  68.703  1.00  0.00    -0.167 OA 
BRANCH  18  19
HETATM   19  C   UNL     1      -8.591   8.785  69.164  1.00  0.00    -0.128 C  
BRANCH  19  20
HETATM   20  C   UNL     1      -8.518   7.887  70.407  1.00  0.00    -0.131 C  
BRANCH  20  21
HETATM   21  N   UNL     1      -8.380   6.383  70.130  1.00  0.00    -0.132 N  
HETATM   22  C   UNL     1      -7.668   6.247  68.778  1.00  0.00    -0.100 C  
HETATM   23  C   UNL     1      -7.504   5.727  71.192  1.00  0.00    -0.091 C  
BRANCH  21  24
HETATM   24  C   UNL     1      -9.780   5.717  70.055  1.00  0.00    -0.169 C  
BRANCH  24  25
HETATM   25  C   UNL     1     -10.055   4.679  71.109  1.00  0.00    -0.243 A  
HETATM   26  C   UNL     1     -10.616   5.059  72.339  1.00  0.00    -0.275 A  
HETATM   27  C   UNL     1     -10.734   4.135  73.375  1.00  0.00    -0.303 A  
HETATM   28  C   UNL     1     -10.313   2.821  73.188  1.00  0.00    -0.234 A  
HETATM   29  C   UNL     1      -9.810   2.417  71.953  1.00  0.00    -0.229 A  
HETATM   30  C   UNL     1      -9.695   3.337  70.912  1.00  0.00    -0.187 A  
ENDBRANCH  24  25
ENDBRANCH  21  24
ENDBRANCH  20  21
ENDBRANCH  19  20
ENDBRANCH  18  19
ENDBRANCH  17  18
ENDBRANCH  16  17
ENDBRANCH  15  16
ENDBRANCH  12  15
ENDBRANCH   6   9
ENDBRANCH   5   6
ENDBRANCH   2   5
TORSDOF 12
ENDMDL
MODEL      226
REMARK 921   NORMALIZED FREE ENERGY PREDICTED BY IDOCK:   -3.71 KCAL/MOL
REMARK 922        TOTAL FREE ENERGY PREDICTED BY IDOCK:   -7.58 KCAL/MOL
REMARK 923 INTER-LIGAND FREE ENERGY PREDICTED BY IDOCK:   -6.85 KCAL/MOL
REMARK 924 INTRA-LIGAND FREE ENERGY PREDICTED BY IDOCK:   -0.72 KCAL/MOL
REMARK 927      BINDING AFFINITY PREDICTED BY RF-SCORE:    0.00 PKD
ROOT
HETATM    1  C   UNL     1      -9.378   3.867  67.791  1.00  0.00    -0.230 C  
HETATM    2  C   UNL     1      -8.275   4.904  68.040  1.00  0.00    -0.096 C  
HETATM    3  C   UNL     1      -7.337   4.412  69.151  1.00  0.00    -0.055 C  
HETATM    4  C   UNL     1      -7.430   4.970  66.740  1.00  0.00    -0.087 C  
ENDROOT
BRANCH   2   5
HETATM    5  C   UNL     1      -8.831   6.341  68.306  1.00  0.00    -0.114 C  
BRANCH   5   6
HETATM    6  C   UNL     1      -9.656   6.763  69.582  1.00  0.00    -0.150 C  
HETATM    7  C   UNL     1      -8.770   6.958  70.833  1.00  0.00    -0.141 C  
HETATM    8  C   UNL     1     -10.729   5.720  69.954  1.00  0.00    -0.412 C  
BRANCH   6   9
HETATM    9  C   UNL     1     -10.306   8.138  69.265  1.00  0.00    -0.222 A  
HETATM   10  C   UNL     1     -10.309   8.710  67.980  1.00  0.00    -0.277 A  
HETATM   11  C   UNL     1     -10.908   9.947  67.735  1.00  0.00    -0.321 A  
HETATM   12  C   UNL     1     -11.510  10.657  68.767  1.00  0.00    -0.262 A  
HETATM   13  C   UNL     1     -10.915   8.883  70.297  1.00  0.00    -0.266 A  
HETATM   14  C   UNL     1     -11.504  10.130  70.054  1.00  0.00    -0.344 A  
BRANCH  12  15
HETATM   15  O   UNL     1     -12.034  11.866  68.398  1.00  0.00    -0.408 OA 
BRANCH  15  16
HETATM   16  C   UNL     1     -11.963  12.901  69.369  1.00  0.00    -0.269 C  
BRANCH  16  17
HETATM   17  C   UNL     1     -11.971  14.242  68.631  1.00  0.00    -0.313 C  
BRANCH  17  18
HETATM   18  O   UNL     1     -11.870  14.161  67.204  1.00  0.00    -0.383 OA 
BRANCH  18  19
HETATM   19  C   UNL     1     -10.900  14.991  66.575  1.00  0.00    -0.320 C  
BRANCH  19  20
HETATM   20  C   UNL     1     -10.218  15.929  67.580  1.00  0.00    -0.263 C  
BRANCH  20  21
HETATM   21  N   UNL     1      -9.835  17.314  67.039  1.00  0.00    -0.271 N  
HETATM   22  C   UNL     1     -10.468  17.435  65.647  1.00  0.00    -0.165 C  
HETATM   23  C   UNL     1     -10.424  18.409  67.921  1.00  0.00    -0.391 C  
BRANCH  21  24
HETATM   24  C   UNL     1      -8.292  17.441  66.926  1.00  0.00    -0.235 C  
BRANCH  24  25
HETATM   25  C   UNL     1      -7.504  16.539  67.838  1.00  0.00    -0.161 A  
HETATM   26  C   UNL     1      -7.284  16.911  69.174  1.00  0.00    -0.209 A  
HETATM   27  C   UNL     1      -6.432  16.163  69.982  1.00  0.00    -0.017 A  
HETATM   28  C   UNL     1      -5.809  15.026  69.474  1.00  0.00    -0.104 A  
HETATM   29  C   UNL     1      -6.066  14.612  68.169  1.00  0.00    -0.146 A  
HETATM   30  C   UNL     1      -6.922  15.357  67.357  1.00  0.00    -0.222 A  
ENDBRANCH  24  25
ENDBRANCH  21  24
ENDBRANCH  20  21
ENDBRANCH  19  20
ENDBRANCH  18  19
ENDBRANCH  17  18
ENDBRANCH  16  17
ENDBRANCH  15  16
ENDBRANCH  12  15
ENDBRANCH   6   9
ENDBRANCH   5   6
ENDBRANCH   2   5
TORSDOF 12
ENDMDL
MODEL      227
REMARK 921   NORMALIZED FREE ENERGY PREDICTED BY IDOCK:   -3.70 KCAL/MOL
REMARK 922        TOTAL FREE ENERGY PREDICTED BY IDOCK:   -7.57 KCAL/MOL
REMARK 923 INTER-LIGAND FREE ENERGY PREDICTED BY IDOCK:   -7.75 KCAL/MOL
REMARK 924 INTRA-LIGAND FREE ENERGY PREDICTED BY IDOCK:    0.18 KCAL/MOL
REMARK 927      BINDING AFFINITY PREDICTED BY RF-SCORE:    0.00 PKD
ROOT
HETATM    1  C   UNL     1     -11.003  12.001  65.772  1.00  0.00    -0.351 C  
HETATM    2  C   UNL     1      -9.875  11.483  66.675  1.00  0.00    -0.228 C  
HETATM    3  C   UNL     1     -10.424  10.425  67.641  1.00  0.00    -0.277 C  
HETATM    4  C   UNL     1      -8.866  10.756  65.745  1.00  0.00    -0.201 C  
ENDROOT
BRANCH   2   5
HETATM    5  C   UNL     1      -9.096  12.627  67.402  1.00  0.00    -0.191 C  
BRANCH   5   6
HETATM    6  C   UNL     1      -9.452  14.159  67.303  1.00  0.00    -0.229 C  
HETATM    7  C   UNL     1     -10.133  14.533  65.968  1.00  0.00    -0.336 C  
HETATM    8  C   UNL     1      -8.205  15.058  67.433  1.00  0.00    -0.215 C  
BRANCH   6   9
HETATM    9  C   UNL     1     -10.473  14.460  68.435  1.00  0.00    -0.246 A  
HETATM   10  C   UNL     1     -11.779  13.939  68.452  1.00  0.00    -0.391 A  
HETATM   11  C   UNL     1     -12.665  14.229  69.490  1.00  0.00     0.158 A  
HETATM   12  C   UNL     1     -12.281  15.060  70.536  1.00  0.00    -0.337 A  
HETATM   13  C   UNL     1     -10.111  15.309  69.503  1.00  0.00    -0.261 A  
HETATM   14  C   UNL     1     -11.004  15.611  70.537  1.00  0.00    -0.371 A  
BRANCH  12  15
HETATM   15  O   UNL     1     -13.253  15.286  71.472  1.00  0.00    -0.387 OA 
BRANCH  15  16
HETATM   16  C   UNL     1     -13.345  14.331  72.520  1.00  0.00    -0.500 C  
BRANCH  16  17
HETATM   17  C   UNL     1     -12.663  13.044  72.048  1.00  0.00    -0.062 C  
BRANCH  17  18
HETATM   18  O   UNL     1     -13.454  11.854  72.156  1.00  0.00    -0.458 OA 
BRANCH  18  19
HETATM   19  C   UNL     1     -12.995  10.705  71.452  1.00  0.00    -0.443 C  
BRANCH  19  20
HETATM   20  C   UNL     1     -13.146   9.428  72.290  1.00  0.00    -0.428 C  
BRANCH  20  21
HETATM   21  N   UNL     1     -12.362   8.208  71.785  1.00  0.00    -0.307 N  
HETATM   22  C   UNL     1     -11.468   7.748  72.943  1.00  0.00    -0.303 C  
HETATM   23  C   UNL     1     -13.316   7.069  71.446  1.00  0.00    -0.255 C  
BRANCH  21  24
HETATM   24  C   UNL     1     -11.484   8.599  70.566  1.00  0.00    -0.188 C  
BRANCH  24  25
HETATM   25  C   UNL     1     -10.093   8.023  70.565  1.00  0.00    -0.195 A  
HETATM   26  C   UNL     1      -9.012   8.800  71.010  1.00  0.00    -0.269 A  
HETATM   27  C   UNL     1      -7.706   8.335  70.871  1.00  0.00    -0.082 A  
HETATM   28  C   UNL     1      -7.468   7.084  70.309  1.00  0.00    -0.086 A  
HETATM   29  C   UNL     1      -8.535   6.278  69.919  1.00  0.00    -0.130 A  
HETATM   30  C   UNL     1      -9.844   6.738  70.059  1.00  0.00    -0.179 A  
ENDBRANCH  24  25
ENDBRANCH  21  24
ENDBRANCH  20  21
ENDBRANCH  19  20
ENDBRANCH  18  19
ENDBRANCH  17  18
ENDBRANCH  16  17
ENDBRANCH  15  16
ENDBRANCH  12  15
ENDBRANCH   6   9
ENDBRANCH   5   6
ENDBRANCH   2   5
TORSDOF 12
ENDMDL
MODEL      228
REMARK 921   NORMALIZED FREE ENERGY PREDICTED BY IDOCK:   -3.70 KCAL/MOL
REMARK 922        TOTAL FREE ENERGY PREDICTED BY IDOCK:   -7.56 KCAL/MOL
REMARK 923 INTER-LIGAND FREE ENERGY PREDICTED BY IDOCK:   -6.61 KCAL/MOL
REMARK 924 INTRA-LIGAND FREE ENERGY PREDICTED BY IDOCK:   -0.96 KCAL/MOL
REMARK 927      BINDING AFFINITY PREDICTED BY RF-SCORE:    0.00 PKD
ROOT
HETATM    1  C   UNL     1     -11.034   8.502  70.505  1.00  0.00    -0.263 C  
HETATM    2  C   UNL     1     -11.034   6.978  70.679  1.00  0.00    -0.292 C  
HETATM    3  C   UNL     1     -12.172   6.560  71.620  1.00  0.00    -0.353 C  
HETATM    4  C   UNL     1     -11.363   6.376  69.286  1.00  0.00    -0.405 C  
ENDROOT
BRANCH   2   5
HETATM    5  C   UNL     1      -9.644   6.409  71.114  1.00  0.00    -0.187 C  
BRANCH   5   6
HETATM    6  C   UNL     1      -8.479   7.267  71.741  1.00  0.00    -0.116 C  
HETATM    7  C   UNL     1      -7.394   6.401  72.419  1.00  0.00    -0.088 C  
HETATM    8  C   UNL     1      -8.991   8.256  72.808  1.00  0.00    -0.323 C  
BRANCH   6   9
HETATM    9  C   UNL     1      -7.793   8.022  70.569  1.00  0.00    -0.094 A  
HETATM   10  C   UNL     1      -7.326   7.380  69.409  1.00  0.00    -0.086 A  
HETATM   11  C   UNL     1      -6.719   8.095  68.375  1.00  0.00    -0.064 A  
HETATM   12  C   UNL     1      -6.546   9.470  68.474  1.00  0.00    -0.053 A  
HETATM   13  C   UNL     1      -7.597   9.417  70.649  1.00  0.00    -0.163 A  
HETATM   14  C   UNL     1      -6.976  10.132  69.619  1.00  0.00    -0.103 A  
BRANCH  12  15
HETATM   15  O   UNL     1      -5.913  10.044  67.405  1.00  0.00    -0.053 OA 
BRANCH  15  16
HETATM   16  C   UNL     1      -6.641  11.047  66.711  1.00  0.00    -0.124 C  
BRANCH  16  17
HETATM   17  C   UNL     1      -7.637  10.349  65.781  1.00  0.00    -0.147 C  
BRANCH  17  18
HETATM   18  O   UNL     1      -9.007  10.732  65.947  1.00  0.00    -0.171 OA 
BRANCH  18  19
HETATM   19  C   UNL     1      -9.260  11.957  66.629  1.00  0.00    -0.205 C  
BRANCH  19  20
HETATM   20  C   UNL     1     -10.124  12.906  65.787  1.00  0.00    -0.287 C  
BRANCH  20  21
HETATM   21  N   UNL     1     -11.604  12.987  66.189  1.00  0.00    -0.347 N  
HETATM   22  C   UNL     1     -12.419  12.593  64.951  1.00  0.00    -0.494 C  
HETATM   23  C   UNL     1     -11.908  11.981  67.293  1.00  0.00    -0.187 C  
BRANCH  21  24
HETATM   24  C   UNL     1     -11.967  14.433  66.619  1.00  0.00    -0.392 C  
BRANCH  24  25
HETATM   25  C   UNL     1     -10.809  15.279  67.075  1.00  0.00    -0.321 A  
HETATM   26  C   UNL     1     -10.097  16.054  66.147  1.00  0.00    -0.346 A  
HETATM   27  C   UNL     1      -8.934  16.719  66.528  1.00  0.00    -0.304 A  
HETATM   28  C   UNL     1      -8.482  16.633  67.842  1.00  0.00    -0.194 A  
HETATM   29  C   UNL     1      -9.211  15.915  68.788  1.00  0.00    -0.218 A  
HETATM   30  C   UNL     1     -10.379  15.252  68.411  1.00  0.00    -0.227 A  
ENDBRANCH  24  25
ENDBRANCH  21  24
ENDBRANCH  20  21
ENDBRANCH  19  20
ENDBRANCH  18  19
ENDBRANCH  17  18
ENDBRANCH  16  17
ENDBRANCH  15  16
ENDBRANCH  12  15
ENDBRANCH   6   9
ENDBRANCH   5   6
ENDBRANCH   2   5
TORSDOF 12
ENDMDL
MODEL      229
REMARK 921   NORMALIZED FREE ENERGY PREDICTED BY IDOCK:   -3.69 KCAL/MOL
REMARK 922        TOTAL FREE ENERGY PREDICTED BY IDOCK:   -7.55 KCAL/MOL
REMARK 923 INTER-LIGAND FREE ENERGY PREDICTED BY IDOCK:   -6.75 KCAL/MOL
REMARK 924 INTRA-LIGAND FREE ENERGY PREDICTED BY IDOCK:   -0.80 KCAL/MOL
REMARK 927      BINDING AFFINITY PREDICTED BY RF-SCORE:    0.00 PKD
ROOT
HETATM    1  C   UNL     1     -11.647  15.554  67.521  1.00  0.00    -0.110 C  
HETATM    2  C   UNL     1     -11.171  14.251  68.175  1.00  0.00    -0.295 C  
HETATM    3  C   UNL     1      -9.787  14.458  68.806  1.00  0.00    -0.214 C  
HETATM    4  C   UNL     1     -12.154  13.959  69.342  1.00  0.00    -0.384 C  
ENDROOT
BRANCH   2   5
HETATM    5  C   UNL     1     -11.222  13.023  67.208  1.00  0.00    -0.325 C  
BRANCH   5   6
HETATM    6  C   UNL     1     -11.250  13.120  65.635  1.00  0.00    -0.306 C  
HETATM    7  C   UNL     1     -10.497  14.357  65.096  1.00  0.00    -0.437 C  
HETATM    8  C   UNL     1     -12.687  13.198  65.080  1.00  0.00    -0.468 C  
BRANCH   6   9
HETATM    9  C   UNL     1     -10.513  11.865  65.091  1.00  0.00    -0.330 A  
HETATM   10  C   UNL     1     -10.244  10.731  65.877  1.00  0.00    -0.319 A  
HETATM   11  C   UNL     1      -9.583   9.620  65.349  1.00  0.00    -0.361 A  
HETATM   12  C   UNL     1      -9.157   9.613  64.027  1.00  0.00    -0.200 A  
HETATM   13  C   UNL     1     -10.062  11.837  63.755  1.00  0.00    -0.421 A  
HETATM   14  C   UNL     1      -9.387  10.730  63.229  1.00  0.00    -0.324 A  
BRANCH  12  15
HETATM   15  O   UNL     1      -8.498   8.477  63.645  1.00  0.00    -0.134 OA 
BRANCH  15  16
HETATM   16  C   UNL     1      -8.095   7.606  64.692  1.00  0.00    -0.112 C  
BRANCH  16  17
HETATM   17  C   UNL     1      -6.622   7.885  65.000  1.00  0.00    -0.051 C  
BRANCH  17  18
HETATM   18  O   UNL     1      -6.346   8.342  66.329  1.00  0.00    -0.045 OA 
BRANCH  18  19
HETATM   19  C   UNL     1      -7.199   7.870  67.367  1.00  0.00    -0.088 C  
BRANCH  19  20
HETATM   20  C   UNL     1      -7.570   8.989  68.349  1.00  0.00    -0.090 C  
BRANCH  20  21
HETATM   21  N   UNL     1      -8.794   8.714  69.235  1.00  0.00    -0.136 N  
HETATM   22  C   UNL     1      -9.524  10.052  69.407  1.00  0.00    -0.223 C  
HETATM   23  C   UNL     1      -9.744   7.745  68.540  1.00  0.00    -0.160 C  
BRANCH  21  24
HETATM   24  C   UNL     1      -8.347   8.179  70.621  1.00  0.00    -0.123 C  
BRANCH  24  25
HETATM   25  C   UNL     1      -8.809   6.785  70.952  1.00  0.00    -0.146 A  
HETATM   26  C   UNL     1      -8.028   5.680  70.578  1.00  0.00    -0.104 A  
HETATM   27  C   UNL     1      -8.516   4.385  70.741  1.00  0.00    -0.098 A  
HETATM   28  C   UNL     1      -9.776   4.181  71.297  1.00  0.00    -0.255 A  
HETATM   29  C   UNL     1     -10.535   5.266  71.728  1.00  0.00    -0.278 A  
HETATM   30  C   UNL     1     -10.049   6.564  71.570  1.00  0.00    -0.211 A  
ENDBRANCH  24  25
ENDBRANCH  21  24
ENDBRANCH  20  21
ENDBRANCH  19  20
ENDBRANCH  18  19
ENDBRANCH  17  18
ENDBRANCH  16  17
ENDBRANCH  15  16
ENDBRANCH  12  15
ENDBRANCH   6   9
ENDBRANCH   5   6
ENDBRANCH   2   5
TORSDOF 12
ENDMDL
MODEL      230
REMARK 921   NORMALIZED FREE ENERGY PREDICTED BY IDOCK:   -3.69 KCAL/MOL
REMARK 922        TOTAL FREE ENERGY PREDICTED BY IDOCK:   -7.55 KCAL/MOL
REMARK 923 INTER-LIGAND FREE ENERGY PREDICTED BY IDOCK:   -5.34 KCAL/MOL
REMARK 924 INTRA-LIGAND FREE ENERGY PREDICTED BY IDOCK:   -2.21 KCAL/MOL
REMARK 927      BINDING AFFINITY PREDICTED BY RF-SCORE:    0.00 PKD
ROOT
HETATM    1  C   UNL     1     -11.256   8.062  72.830  1.00  0.00    -0.448 C  
HETATM    2  C   UNL     1     -12.229   8.307  71.670  1.00  0.00    -0.350 C  
HETATM    3  C   UNL     1     -12.805   6.971  71.179  1.00  0.00    -0.328 C  
HETATM    4  C   UNL     1     -13.418   9.116  72.255  1.00  0.00    -0.546 C  
ENDROOT
BRANCH   2   5
HETATM    5  C   UNL     1     -11.609   9.162  70.517  1.00  0.00    -0.238 C  
BRANCH   5   6
HETATM    6  C   UNL     1     -10.156   8.968  69.937  1.00  0.00    -0.213 C  
HETATM    7  C   UNL     1      -9.051   9.212  70.990  1.00  0.00    -0.305 C  
HETATM    8  C   UNL     1      -9.865   9.921  68.759  1.00  0.00    -0.177 C  
BRANCH   6   9
HETATM    9  C   UNL     1     -10.041   7.484  69.492  1.00  0.00    -0.189 A  
HETATM   10  C   UNL     1     -10.758   6.949  68.407  1.00  0.00    -0.259 A  
HETATM   11  C   UNL     1     -10.624   5.611  68.035  1.00  0.00    -0.260 A  
HETATM   12  C   UNL     1      -9.782   4.762  68.743  1.00  0.00    -0.167 A  
HETATM   13  C   UNL     1      -9.201   6.600  70.200  1.00  0.00    -0.155 A  
HETATM   14  C   UNL     1      -9.077   5.254  69.836  1.00  0.00    -0.165 A  
BRANCH  12  15
HETATM   15  O   UNL     1      -9.764   3.470  68.293  1.00  0.00    -0.130 OA 
BRANCH  15  16
HETATM   16  C   UNL     1      -8.730   2.643  68.808  1.00  0.00    -0.086 C  
BRANCH  16  17
HETATM   17  C   UNL     1      -7.597   2.606  67.779  1.00  0.00    -0.056 C  
BRANCH  17  18
HETATM   18  O   UNL     1      -7.682   1.556  66.807  1.00  0.00    -0.062 OA 
BRANCH  18  19
HETATM   19  C   UNL     1      -8.694   1.673  65.813  1.00  0.00    -0.115 C  
BRANCH  19  20
HETATM   20  C   UNL     1      -8.139   2.253  64.504  1.00  0.00    -0.078 C  
BRANCH  20  21
HETATM   21  N   UNL     1      -8.387   3.753  64.288  1.00  0.00    -0.090 N  
HETATM   22  C   UNL     1      -8.598   3.952  62.781  1.00  0.00    -0.089 C  
HETATM   23  C   UNL     1      -9.661   4.188  65.003  1.00  0.00    -0.180 C  
BRANCH  21  24
HETATM   24  C   UNL     1      -7.158   4.576  64.759  1.00  0.00    -0.062 C  
BRANCH  24  25
HETATM   25  C   UNL     1      -7.471   5.947  65.296  1.00  0.00    -0.082 A  
HETATM   26  C   UNL     1      -7.994   6.932  64.444  1.00  0.00    -0.093 A  
HETATM   27  C   UNL     1      -8.143   8.243  64.890  1.00  0.00    -0.150 A  
HETATM   28  C   UNL     1      -7.792   8.578  66.195  1.00  0.00    -0.098 A  
HETATM   29  C   UNL     1      -7.328   7.598  67.069  1.00  0.00    -0.090 A  
HETATM   30  C   UNL     1      -7.181   6.283  66.627  1.00  0.00    -0.074 A  
ENDBRANCH  24  25
ENDBRANCH  21  24
ENDBRANCH  20  21
ENDBRANCH  19  20
ENDBRANCH  18  19
ENDBRANCH  17  18
ENDBRANCH  16  17
ENDBRANCH  15  16
ENDBRANCH  12  15
ENDBRANCH   6   9
ENDBRANCH   5   6
ENDBRANCH   2   5
TORSDOF 12
ENDMDL
MODEL      231
REMARK 921   NORMALIZED FREE ENERGY PREDICTED BY IDOCK:   -3.67 KCAL/MOL
REMARK 922        TOTAL FREE ENERGY PREDICTED BY IDOCK:   -7.51 KCAL/MOL
REMARK 923 INTER-LIGAND FREE ENERGY PREDICTED BY IDOCK:   -7.61 KCAL/MOL
REMARK 924 INTRA-LIGAND FREE ENERGY PREDICTED BY IDOCK:    0.10 KCAL/MOL
REMARK 927      BINDING AFFINITY PREDICTED BY RF-SCORE:    0.00 PKD
ROOT
HETATM    1  C   UNL     1      -9.099  18.396  67.277  1.00  0.00    -0.268 C  
HETATM    2  C   UNL     1      -8.212  17.178  66.983  1.00  0.00    -0.234 C  
HETATM    3  C   UNL     1      -6.793  17.640  66.626  1.00  0.00    -0.252 C  
HETATM    4  C   UNL     1      -8.100  16.384  68.313  1.00  0.00    -0.171 C  
ENDROOT
BRANCH   2   5
HETATM    5  C   UNL     1      -8.826  16.214  65.916  1.00  0.00    -0.196 C  
BRANCH   5   6
HETATM    6  C   UNL     1     -10.298  15.652  65.955  1.00  0.00    -0.351 C  
HETATM    7  C   UNL     1     -11.229  16.333  64.926  1.00  0.00    -0.243 C  
HETATM    8  C   UNL     1     -10.956  15.834  67.338  1.00  0.00    -0.279 C  
BRANCH   6   9
HETATM    9  C   UNL     1     -10.219  14.149  65.572  1.00  0.00    -0.371 A  
HETATM   10  C   UNL     1     -10.685  13.641  64.347  1.00  0.00    -0.369 A  
HETATM   11  C   UNL     1     -10.591  12.283  64.037  1.00  0.00    -0.434 A  
HETATM   12  C   UNL     1     -10.042  11.388  64.948  1.00  0.00    -0.274 A  
HETATM   13  C   UNL     1      -9.674  13.218  66.482  1.00  0.00    -0.273 A  
HETATM   14  C   UNL     1      -9.592  11.855  66.179  1.00  0.00    -0.250 A  
BRANCH  12  15
HETATM   15  O   UNL     1     -10.035  10.084  64.533  1.00  0.00    -0.287 OA 
BRANCH  15  16
HETATM   16  C   UNL     1      -8.990   9.270  65.047  1.00  0.00    -0.197 C  
BRANCH  16  17
HETATM   17  C   UNL     1      -9.548   8.476  66.230  1.00  0.00    -0.236 C  
BRANCH  17  18
HETATM   18  O   UNL     1      -8.709   7.421  66.714  1.00  0.00    -0.124 OA 
BRANCH  18  19
HETATM   19  C   UNL     1      -7.600   7.794  67.525  1.00  0.00    -0.109 C  
BRANCH  19  20
HETATM   20  C   UNL     1      -7.722   9.242  68.021  1.00  0.00    -0.088 C  
BRANCH  20  21
HETATM   21  N   UNL     1      -8.279   9.410  69.442  1.00  0.00    -0.110 N  
HETATM   22  C   UNL     1      -7.204  10.144  70.254  1.00  0.00    -0.121 C  
HETATM   23  C   UNL     1      -9.530  10.280  69.422  1.00  0.00    -0.206 C  
BRANCH  21  24
HETATM   24  C   UNL     1      -8.560   8.022  70.079  1.00  0.00    -0.134 C  
BRANCH  24  25
HETATM   25  C   UNL     1      -9.931   7.854  70.676  1.00  0.00    -0.188 A  
HETATM   26  C   UNL     1     -10.327   8.655  71.759  1.00  0.00    -0.386 A  
HETATM   27  C   UNL     1     -11.530   8.407  72.416  1.00  0.00    -0.451 A  
HETATM   28  C   UNL     1     -12.357   7.372  71.987  1.00  0.00    -0.301 A  
HETATM   29  C   UNL     1     -12.004   6.609  70.877  1.00  0.00    -0.413 A  
HETATM   30  C   UNL     1     -10.802   6.856  70.214  1.00  0.00    -0.294 A  
ENDBRANCH  24  25
ENDBRANCH  21  24
ENDBRANCH  20  21
ENDBRANCH  19  20
ENDBRANCH  18  19
ENDBRANCH  17  18
ENDBRANCH  16  17
ENDBRANCH  15  16
ENDBRANCH  12  15
ENDBRANCH   6   9
ENDBRANCH   5   6
ENDBRANCH   2   5
TORSDOF 12
ENDMDL
MODEL      232
REMARK 921   NORMALIZED FREE ENERGY PREDICTED BY IDOCK:   -3.62 KCAL/MOL
REMARK 922        TOTAL FREE ENERGY PREDICTED BY IDOCK:   -7.43 KCAL/MOL
REMARK 923 INTER-LIGAND FREE ENERGY PREDICTED BY IDOCK:   -7.06 KCAL/MOL
REMARK 924 INTRA-LIGAND FREE ENERGY PREDICTED BY IDOCK:   -0.37 KCAL/MOL
REMARK 927      BINDING AFFINITY PREDICTED BY RF-SCORE:    0.00 PKD
ROOT
HETATM    1  C   UNL     1      -9.849   6.591  74.533  1.00  0.00    -0.355 C  
HETATM    2  C   UNL     1      -9.479   6.731  73.051  1.00  0.00    -0.159 C  
HETATM    3  C   UNL     1     -10.169   7.965  72.454  1.00  0.00    -0.327 C  
HETATM    4  C   UNL     1      -7.952   7.007  73.002  1.00  0.00    -0.112 C  
ENDROOT
BRANCH   2   5
HETATM    5  C   UNL     1      -9.742   5.428  72.227  1.00  0.00    -0.187 C  
BRANCH   5   6
HETATM    6  C   UNL     1      -8.872   4.950  71.002  1.00  0.00    -0.152 C  
HETATM    7  C   UNL     1      -9.334   3.589  70.432  1.00  0.00    -0.239 C  
HETATM    8  C   UNL     1      -7.382   4.795  71.369  1.00  0.00    -0.068 C  
BRANCH   6   9
HETATM    9  C   UNL     1      -9.060   6.003  69.875  1.00  0.00    -0.147 A  
HETATM   10  C   UNL     1      -8.019   6.826  69.410  1.00  0.00    -0.115 A  
HETATM   11  C   UNL     1      -8.226   7.757  68.392  1.00  0.00    -0.124 A  
HETATM   12  C   UNL     1      -9.483   7.907  67.817  1.00  0.00    -0.144 A  
HETATM   13  C   UNL     1     -10.327   6.181  69.282  1.00  0.00    -0.276 A  
HETATM   14  C   UNL     1     -10.540   7.125  68.271  1.00  0.00    -0.230 A  
BRANCH  12  15
HETATM   15  O   UNL     1      -9.557   8.873  66.851  1.00  0.00    -0.162 OA 
BRANCH  15  16
HETATM   16  C   UNL     1      -9.108  10.168  67.226  1.00  0.00    -0.138 C  
BRANCH  16  17
HETATM   17  C   UNL     1     -10.340  11.039  67.486  1.00  0.00    -0.198 C  
BRANCH  17  18
HETATM   18  O   UNL     1     -10.309  12.342  66.891  1.00  0.00    -0.215 OA 
BRANCH  18  19
HETATM   19  C   UNL     1     -11.461  13.160  67.063  1.00  0.00    -0.336 C  
BRANCH  19  20
HETATM   20  C   UNL     1     -11.548  13.725  68.487  1.00  0.00    -0.338 C  
BRANCH  20  21
HETATM   21  N   UNL     1     -10.939  15.121  68.684  1.00  0.00    -0.244 N  
HETATM   22  C   UNL     1     -11.684  15.766  69.860  1.00  0.00    -0.357 C  
HETATM   23  C   UNL     1      -9.467  15.007  69.065  1.00  0.00    -0.210 C  
BRANCH  21  24
HETATM   24  C   UNL     1     -11.133  15.979  67.405  1.00  0.00    -0.167 C  
BRANCH  24  25
HETATM   25  C   UNL     1     -10.189  17.142  67.262  1.00  0.00    -0.316 A  
HETATM   26  C   UNL     1     -10.499  18.375  67.857  1.00  0.00    -0.416 A  
HETATM   27  C   UNL     1      -9.712  19.497  67.605  1.00  0.00    -0.450 A  
HETATM   28  C   UNL     1      -8.598  19.394  66.776  1.00  0.00    -0.336 A  
HETATM   29  C   UNL     1      -8.245  18.163  66.228  1.00  0.00    -0.243 A  
HETATM   30  C   UNL     1      -9.028  17.037  66.481  1.00  0.00    -0.298 A  
ENDBRANCH  24  25
ENDBRANCH  21  24
ENDBRANCH  20  21
ENDBRANCH  19  20
ENDBRANCH  18  19
ENDBRANCH  17  18
ENDBRANCH  16  17
ENDBRANCH  15  16
ENDBRANCH  12  15
ENDBRANCH   6   9
ENDBRANCH   5   6
ENDBRANCH   2   5
TORSDOF 12
ENDMDL
MODEL      233
REMARK 921   NORMALIZED FREE ENERGY PREDICTED BY IDOCK:   -3.62 KCAL/MOL
REMARK 922        TOTAL FREE ENERGY PREDICTED BY IDOCK:   -7.43 KCAL/MOL
REMARK 923 INTER-LIGAND FREE ENERGY PREDICTED BY IDOCK:   -7.22 KCAL/MOL
REMARK 924 INTRA-LIGAND FREE ENERGY PREDICTED BY IDOCK:   -0.21 KCAL/MOL
REMARK 927      BINDING AFFINITY PREDICTED BY RF-SCORE:    0.00 PKD
ROOT
HETATM    1  C   UNL     1     -10.399  19.784  66.303  1.00  0.00    -0.626 C  
HETATM    2  C   UNL     1      -9.814  18.824  67.347  1.00  0.00    -0.357 C  
HETATM    3  C   UNL     1      -8.532  18.179  66.803  1.00  0.00    -0.273 C  
HETATM    4  C   UNL     1      -9.393  19.696  68.561  1.00  0.00    -0.412 C  
ENDROOT
BRANCH   2   5
HETATM    5  C   UNL     1     -10.850  17.775  67.867  1.00  0.00    -0.229 C  
BRANCH   5   6
HETATM    6  C   UNL     1     -10.476  16.376  68.491  1.00  0.00    -0.291 C  
HETATM    7  C   UNL     1     -11.272  16.060  69.777  1.00  0.00    -0.344 C  
HETATM    8  C   UNL     1      -8.981  16.281  68.858  1.00  0.00    -0.248 C  
BRANCH   6   9
HETATM    9  C   UNL     1     -10.859  15.296  67.442  1.00  0.00    -0.304 A  
HETATM   10  C   UNL     1     -11.885  14.356  67.645  1.00  0.00    -0.412 A  
HETATM   11  C   UNL     1     -12.203  13.404  66.675  1.00  0.00    -0.391 A  
HETATM   12  C   UNL     1     -11.497  13.351  65.479  1.00  0.00    -0.305 A  
HETATM   13  C   UNL     1     -10.152  15.215  66.224  1.00  0.00    -0.299 A  
HETATM   14  C   UNL     1     -10.460  14.252  65.257  1.00  0.00    -0.408 A  
BRANCH  12  15
HETATM   15  O   UNL     1     -11.889  12.354  64.628  1.00  0.00    -0.351 OA 
BRANCH  15  16
HETATM   16  C   UNL     1     -10.909  11.896  63.707  1.00  0.00    -0.418 C  
BRANCH  16  17
HETATM   17  C   UNL     1     -10.139  10.749  64.367  1.00  0.00    -0.353 C  
BRANCH  17  18
HETATM   18  O   UNL     1      -9.202  10.071  63.522  1.00  0.00    -0.257 OA 
BRANCH  18  19
HETATM   19  C   UNL     1      -8.129   9.388  64.162  1.00  0.00    -0.145 C  
BRANCH  19  20
HETATM   20  C   UNL     1      -7.783  10.019  65.518  1.00  0.00    -0.135 C  
BRANCH  20  21
HETATM   21  N   UNL     1      -7.825   9.067  66.721  1.00  0.00    -0.103 N  
HETATM   22  C   UNL     1      -8.167   9.921  67.949  1.00  0.00    -0.113 C  
HETATM   23  C   UNL     1      -8.932   8.035  66.542  1.00  0.00    -0.157 C  
BRANCH  21  24
HETATM   24  C   UNL     1      -6.442   8.390  66.922  1.00  0.00    -0.057 C  
BRANCH  24  25
HETATM   25  C   UNL     1      -6.452   7.145  67.767  1.00  0.00    -0.048 A  
HETATM   26  C   UNL     1      -6.679   7.237  69.149  1.00  0.00    -0.049 A  
HETATM   27  C   UNL     1      -6.540   6.115  69.963  1.00  0.00    -0.044 A  
HETATM   28  C   UNL     1      -6.193   4.888  69.403  1.00  0.00    -0.026 A  
HETATM   29  C   UNL     1      -6.024   4.770  68.025  1.00  0.00    -0.026 A  
HETATM   30  C   UNL     1      -6.167   5.890  67.207  1.00  0.00    -0.033 A  
ENDBRANCH  24  25
ENDBRANCH  21  24
ENDBRANCH  20  21
ENDBRANCH  19  20
ENDBRANCH  18  19
ENDBRANCH  17  18
ENDBRANCH  16  17
ENDBRANCH  15  16
ENDBRANCH  12  15
ENDBRANCH   6   9
ENDBRANCH   5   6
ENDBRANCH   2   5
TORSDOF 12
ENDMDL
MODEL      234
REMARK 921   NORMALIZED FREE ENERGY PREDICTED BY IDOCK:   -3.61 KCAL/MOL
REMARK 922        TOTAL FREE ENERGY PREDICTED BY IDOCK:   -7.42 KCAL/MOL
REMARK 923 INTER-LIGAND FREE ENERGY PREDICTED BY IDOCK:   -6.05 KCAL/MOL
REMARK 924 INTRA-LIGAND FREE ENERGY PREDICTED BY IDOCK:   -1.37 KCAL/MOL
REMARK 927      BINDING AFFINITY PREDICTED BY RF-SCORE:    0.00 PKD
ROOT
HETATM    1  C   UNL     1      -7.774   4.420  67.623  1.00  0.00    -0.084 C  
HETATM    2  C   UNL     1      -8.571   3.490  68.547  1.00  0.00    -0.120 C  
HETATM    3  C   UNL     1      -9.402   2.508  67.709  1.00  0.00    -0.222 C  
HETATM    4  C   UNL     1      -7.529   2.641  69.323  1.00  0.00    -0.044 C  
ENDROOT
BRANCH   2   5
HETATM    5  C   UNL     1      -9.425   4.260  69.606  1.00  0.00    -0.258 C  
BRANCH   5   6
HETATM    6  C   UNL     1      -8.856   5.337  70.607  1.00  0.00    -0.148 C  
HETATM    7  C   UNL     1      -7.761   6.225  69.974  1.00  0.00    -0.101 C  
HETATM    8  C   UNL     1      -8.237   4.696  71.866  1.00  0.00    -0.105 C  
BRANCH   6   9
HETATM    9  C   UNL     1     -10.038   6.272  70.985  1.00  0.00    -0.221 A  
HETATM   10  C   UNL     1     -11.355   6.067  70.536  1.00  0.00    -0.310 A  
HETATM   11  C   UNL     1     -12.391   6.927  70.903  1.00  0.00    -0.365 A  
HETATM   12  C   UNL     1     -12.142   8.027  71.715  1.00  0.00    -0.305 A  
HETATM   13  C   UNL     1      -9.810   7.401  71.800  1.00  0.00    -0.187 A  
HETATM   14  C   UNL     1     -10.846   8.271  72.156  1.00  0.00    -0.390 A  
BRANCH  12  15
HETATM   15  O   UNL     1     -13.238   8.804  71.975  1.00  0.00    -0.343 OA 
BRANCH  15  16
HETATM   16  C   UNL     1     -13.005  10.203  72.065  1.00  0.00    -0.409 C  
BRANCH  16  17
HETATM   17  C   UNL     1     -12.981  10.770  70.643  1.00  0.00    -0.232 C  
BRANCH  17  18
HETATM   18  O   UNL     1     -12.242  11.987  70.479  1.00  0.00    -0.364 OA 
BRANCH  18  19
HETATM   19  C   UNL     1     -11.505  12.140  69.270  1.00  0.00    -0.302 C  
BRANCH  19  20
HETATM   20  C   UNL     1     -11.589  10.883  68.392  1.00  0.00    -0.276 C  
BRANCH  20  21
HETATM   21  N   UNL     1     -10.249  10.365  67.850  1.00  0.00    -0.170 N  
HETATM   22  C   UNL     1     -10.091   8.927  68.362  1.00  0.00    -0.189 C  
HETATM   23  C   UNL     1     -10.275  10.322  66.326  1.00  0.00    -0.221 C  
BRANCH  21  24
HETATM   24  C   UNL     1      -9.080  11.240  68.376  1.00  0.00    -0.170 C  
BRANCH  24  25
HETATM   25  C   UNL     1      -7.789  10.507  68.625  1.00  0.00    -0.116 A  
HETATM   26  C   UNL     1      -7.003  10.082  67.542  1.00  0.00    -0.086 A  
HETATM   27  C   UNL     1      -5.889   9.273  67.755  1.00  0.00    -0.045 A  
HETATM   28  C   UNL     1      -5.538   8.897  69.049  1.00  0.00    -0.036 A  
HETATM   29  C   UNL     1      -6.275   9.361  70.136  1.00  0.00    -0.055 A  
HETATM   30  C   UNL     1      -7.388  10.174  69.928  1.00  0.00    -0.169 A  
ENDBRANCH  24  25
ENDBRANCH  21  24
ENDBRANCH  20  21
ENDBRANCH  19  20
ENDBRANCH  18  19
ENDBRANCH  17  18
ENDBRANCH  16  17
ENDBRANCH  15  16
ENDBRANCH  12  15
ENDBRANCH   6   9
ENDBRANCH   5   6
ENDBRANCH   2   5
TORSDOF 12
ENDMDL
MODEL      235
REMARK 921   NORMALIZED FREE ENERGY PREDICTED BY IDOCK:   -3.61 KCAL/MOL
REMARK 922        TOTAL FREE ENERGY PREDICTED BY IDOCK:   -7.41 KCAL/MOL
REMARK 923 INTER-LIGAND FREE ENERGY PREDICTED BY IDOCK:   -7.36 KCAL/MOL
REMARK 924 INTRA-LIGAND FREE ENERGY PREDICTED BY IDOCK:   -0.05 KCAL/MOL
REMARK 927      BINDING AFFINITY PREDICTED BY RF-SCORE:    0.00 PKD
ROOT
HETATM    1  C   UNL     1     -10.573  20.031  67.943  1.00  0.00    -0.379 C  
HETATM    2  C   UNL     1      -9.398  19.101  67.617  1.00  0.00    -0.357 C  
HETATM    3  C   UNL     1      -8.837  19.435  66.228  1.00  0.00    -0.372 C  
HETATM    4  C   UNL     1      -8.278  19.430  68.641  1.00  0.00    -0.399 C  
ENDROOT
BRANCH   2   5
HETATM    5  C   UNL     1      -9.748  17.586  67.784  1.00  0.00    -0.274 C  
BRANCH   5   6
HETATM    6  C   UNL     1      -8.690  16.417  67.811  1.00  0.00    -0.182 C  
HETATM    7  C   UNL     1      -8.230  16.057  69.242  1.00  0.00    -0.212 C  
HETATM    8  C   UNL     1      -7.419  16.761  67.009  1.00  0.00    -0.236 C  
BRANCH   6   9
HETATM    9  C   UNL     1      -9.391  15.159  67.228  1.00  0.00    -0.210 A  
HETATM   10  C   UNL     1      -9.416  13.918  67.887  1.00  0.00    -0.212 A  
HETATM   11  C   UNL     1     -10.062  12.811  67.332  1.00  0.00    -0.219 A  
HETATM   12  C   UNL     1     -10.687  12.906  66.095  1.00  0.00    -0.272 A  
HETATM   13  C   UNL     1     -10.026  15.227  65.970  1.00  0.00    -0.344 A  
HETATM   14  C   UNL     1     -10.660  14.114  65.406  1.00  0.00    -0.358 A  
BRANCH  12  15
HETATM   15  O   UNL     1     -11.256  11.743  65.652  1.00  0.00    -0.314 OA 
BRANCH  15  16
HETATM   16  C   UNL     1     -10.472  10.963  64.761  1.00  0.00    -0.303 C  
BRANCH  16  17
HETATM   17  C   UNL     1      -9.716   9.919  65.586  1.00  0.00    -0.279 C  
BRANCH  17  18
HETATM   18  O   UNL     1      -8.293  10.079  65.628  1.00  0.00    -0.135 OA 
BRANCH  18  19
HETATM   19  C   UNL     1      -7.654   9.870  66.883  1.00  0.00    -0.095 C  
BRANCH  19  20
HETATM   20  C   UNL     1      -8.476   8.945  67.791  1.00  0.00    -0.125 C  
BRANCH  20  21
HETATM   21  N   UNL     1      -7.677   8.185  68.860  1.00  0.00    -0.101 N  
HETATM   22  C   UNL     1      -6.413   7.655  68.172  1.00  0.00    -0.054 C  
HETATM   23  C   UNL     1      -7.246   9.133  69.973  1.00  0.00    -0.066 C  
BRANCH  21  24
HETATM   24  C   UNL     1      -8.511   6.998  69.412  1.00  0.00    -0.133 C  
BRANCH  24  25
HETATM   25  C   UNL     1      -9.705   7.382  70.243  1.00  0.00    -0.172 A  
HETATM   26  C   UNL     1      -9.527   8.090  71.442  1.00  0.00    -0.194 A  
HETATM   27  C   UNL     1     -10.607   8.318  72.293  1.00  0.00    -0.393 A  
HETATM   28  C   UNL     1     -11.875   7.860  71.947  1.00  0.00    -0.345 A  
HETATM   29  C   UNL     1     -12.076   7.208  70.732  1.00  0.00    -0.331 A  
HETATM   30  C   UNL     1     -10.999   6.982  69.875  1.00  0.00    -0.296 A  
ENDBRANCH  24  25
ENDBRANCH  21  24
ENDBRANCH  20  21
ENDBRANCH  19  20
ENDBRANCH  18  19
ENDBRANCH  17  18
ENDBRANCH  16  17
ENDBRANCH  15  16
ENDBRANCH  12  15
ENDBRANCH   6   9
ENDBRANCH   5   6
ENDBRANCH   2   5
TORSDOF 12
ENDMDL
MODEL      236
REMARK 921   NORMALIZED FREE ENERGY PREDICTED BY IDOCK:   -3.60 KCAL/MOL
REMARK 922        TOTAL FREE ENERGY PREDICTED BY IDOCK:   -7.39 KCAL/MOL
REMARK 923 INTER-LIGAND FREE ENERGY PREDICTED BY IDOCK:   -6.60 KCAL/MOL
REMARK 924 INTRA-LIGAND FREE ENERGY PREDICTED BY IDOCK:   -0.80 KCAL/MOL
REMARK 927      BINDING AFFINITY PREDICTED BY RF-SCORE:    0.00 PKD
ROOT
HETATM    1  C   UNL     1     -11.840   6.847  70.489  1.00  0.00    -0.385 C  
HETATM    2  C   UNL     1     -10.770   7.220  71.524  1.00  0.00    -0.241 C  
HETATM    3  C   UNL     1     -11.440   7.742  72.803  1.00  0.00    -0.415 C  
HETATM    4  C   UNL     1     -10.048   5.900  71.906  1.00  0.00    -0.222 C  
ENDROOT
BRANCH   2   5
HETATM    5  C   UNL     1      -9.686   8.197  70.963  1.00  0.00    -0.193 C  
BRANCH   5   6
HETATM    6  C   UNL     1      -8.158   7.845  70.800  1.00  0.00    -0.101 C  
HETATM    7  C   UNL     1      -7.781   6.494  71.448  1.00  0.00    -0.099 C  
HETATM    8  C   UNL     1      -7.242   8.913  71.432  1.00  0.00    -0.097 C  
BRANCH   6   9
HETATM    9  C   UNL     1      -7.884   7.711  69.277  1.00  0.00    -0.121 A  
HETATM   10  C   UNL     1      -6.987   8.540  68.581  1.00  0.00    -0.064 A  
HETATM   11  C   UNL     1      -6.764   8.385  67.212  1.00  0.00    -0.063 A  
HETATM   12  C   UNL     1      -7.442   7.409  66.492  1.00  0.00    -0.084 A  
HETATM   13  C   UNL     1      -8.567   6.735  68.522  1.00  0.00    -0.125 A  
HETATM   14  C   UNL     1      -8.355   6.588  67.146  1.00  0.00    -0.113 A  
BRANCH  12  15
HETATM   15  O   UNL     1      -7.154   7.382  65.155  1.00  0.00    -0.060 OA 
BRANCH  15  16
HETATM   16  C   UNL     1      -8.268   7.441  64.274  1.00  0.00     0.020 C  
BRANCH  16  17
HETATM   17  C   UNL     1      -8.246   8.803  63.575  1.00  0.00    -0.164 C  
BRANCH  17  18
HETATM   18  O   UNL     1      -8.413   9.938  64.432  1.00  0.00    -0.152 OA 
BRANCH  18  19
HETATM   19  C   UNL     1      -9.742  10.261  64.829  1.00  0.00    -0.332 C  
BRANCH  19  20
HETATM   20  C   UNL     1      -9.776  11.485  65.755  1.00  0.00    -0.235 C  
BRANCH  20  21
HETATM   21  N   UNL     1     -10.230  11.212  67.196  1.00  0.00    -0.194 N  
HETATM   22  C   UNL     1     -10.449   9.698  67.311  1.00  0.00    -0.258 C  
HETATM   23  C   UNL     1      -9.134  11.605  68.180  1.00  0.00    -0.183 C  
BRANCH  21  24
HETATM   24  C   UNL     1     -11.558  11.958  67.493  1.00  0.00    -0.304 C  
BRANCH  24  25
HETATM   25  C   UNL     1     -11.892  12.121  68.951  1.00  0.00    -0.358 A  
HETATM   26  C   UNL     1     -12.230  10.999  69.724  1.00  0.00    -0.388 A  
HETATM   27  C   UNL     1     -12.687  11.155  71.030  1.00  0.00    -0.476 A  
HETATM   28  C   UNL     1     -12.792  12.427  71.584  1.00  0.00    -0.375 A  
HETATM   29  C   UNL     1     -12.403  13.545  70.849  1.00  0.00    -0.437 A  
HETATM   30  C   UNL     1     -11.941  13.393  69.542  1.00  0.00    -0.377 A  
ENDBRANCH  24  25
ENDBRANCH  21  24
ENDBRANCH  20  21
ENDBRANCH  19  20
ENDBRANCH  18  19
ENDBRANCH  17  18
ENDBRANCH  16  17
ENDBRANCH  15  16
ENDBRANCH  12  15
ENDBRANCH   6   9
ENDBRANCH   5   6
ENDBRANCH   2   5
TORSDOF 12
ENDMDL
MODEL      237
REMARK 921   NORMALIZED FREE ENERGY PREDICTED BY IDOCK:   -3.60 KCAL/MOL
REMARK 922        TOTAL FREE ENERGY PREDICTED BY IDOCK:   -7.39 KCAL/MOL
REMARK 923 INTER-LIGAND FREE ENERGY PREDICTED BY IDOCK:   -7.15 KCAL/MOL
REMARK 924 INTRA-LIGAND FREE ENERGY PREDICTED BY IDOCK:   -0.24 KCAL/MOL
REMARK 927      BINDING AFFINITY PREDICTED BY RF-SCORE:    0.00 PKD
ROOT
HETATM    1  C   UNL     1      -6.177  17.648  69.663  1.00  0.00    -0.220 C  
HETATM    2  C   UNL     1      -7.265  17.759  68.587  1.00  0.00    -0.260 C  
HETATM    3  C   UNL     1      -7.931  19.140  68.657  1.00  0.00    -0.398 C  
HETATM    4  C   UNL     1      -6.539  17.683  67.217  1.00  0.00    -0.181 C  
ENDROOT
BRANCH   2   5
HETATM    5  C   UNL     1      -8.296  16.584  68.632  1.00  0.00    -0.235 C  
BRANCH   5   6
HETATM    6  C   UNL     1      -9.592  16.491  67.738  1.00  0.00    -0.232 C  
HETATM    7  C   UNL     1      -9.287  16.592  66.227  1.00  0.00    -0.323 C  
HETATM    8  C   UNL     1     -10.606  17.607  68.063  1.00  0.00    -0.379 C  
BRANCH   6   9
HETATM    9  C   UNL     1     -10.212  15.088  67.985  1.00  0.00    -0.228 A  
HETATM   10  C   UNL     1     -11.320  14.874  68.824  1.00  0.00    -0.304 A  
HETATM   11  C   UNL     1     -11.851  13.598  69.016  1.00  0.00    -0.393 A  
HETATM   12  C   UNL     1     -11.284  12.495  68.390  1.00  0.00    -0.272 A  
HETATM   13  C   UNL     1      -9.649  13.951  67.369  1.00  0.00    -0.235 A  
HETATM   14  C   UNL     1     -10.173  12.669  67.572  1.00  0.00    -0.215 A  
BRANCH  12  15
HETATM   15  O   UNL     1     -11.883  11.300  68.685  1.00  0.00    -0.382 OA 
BRANCH  15  16
HETATM   16  C   UNL     1     -12.455  11.191  69.981  1.00  0.00    -0.223 C  
BRANCH  16  17
HETATM   17  C   UNL     1     -11.591  10.227  70.799  1.00  0.00    -0.355 C  
BRANCH  17  18
HETATM   18  O   UNL     1     -10.997   9.154  70.059  1.00  0.00    -0.231 OA 
BRANCH  18  19
HETATM   19  C   UNL     1      -9.584   9.003  70.157  1.00  0.00    -0.193 C  
BRANCH  19  20
HETATM   20  C   UNL     1      -9.168   7.526  70.117  1.00  0.00    -0.154 C  
BRANCH  20  21
HETATM   21  N   UNL     1      -8.679   7.013  68.754  1.00  0.00    -0.127 N  
HETATM   22  C   UNL     1      -8.517   8.243  67.852  1.00  0.00    -0.132 C  
HETATM   23  C   UNL     1      -7.314   6.350  68.896  1.00  0.00    -0.086 C  
BRANCH  21  24
HETATM   24  C   UNL     1      -9.723   6.044  68.137  1.00  0.00    -0.127 C  
BRANCH  24  25
HETATM   25  C   UNL     1      -9.557   4.597  68.513  1.00  0.00    -0.220 A  
HETATM   26  C   UNL     1      -9.707   4.197  69.851  1.00  0.00    -0.280 A  
HETATM   27  C   UNL     1      -9.406   2.892  70.234  1.00  0.00    -0.219 A  
HETATM   28  C   UNL     1      -8.975   1.969  69.285  1.00  0.00    -0.158 A  
HETATM   29  C   UNL     1      -8.880   2.336  67.944  1.00  0.00    -0.164 A  
HETATM   30  C   UNL     1      -9.183   3.641  67.556  1.00  0.00    -0.224 A  
ENDBRANCH  24  25
ENDBRANCH  21  24
ENDBRANCH  20  21
ENDBRANCH  19  20
ENDBRANCH  18  19
ENDBRANCH  17  18
ENDBRANCH  16  17
ENDBRANCH  15  16
ENDBRANCH  12  15
ENDBRANCH   6   9
ENDBRANCH   5   6
ENDBRANCH   2   5
TORSDOF 12
ENDMDL
MODEL      238
REMARK 921   NORMALIZED FREE ENERGY PREDICTED BY IDOCK:   -3.58 KCAL/MOL
REMARK 922        TOTAL FREE ENERGY PREDICTED BY IDOCK:   -7.36 KCAL/MOL
REMARK 923 INTER-LIGAND FREE ENERGY PREDICTED BY IDOCK:   -7.03 KCAL/MOL
REMARK 924 INTRA-LIGAND FREE ENERGY PREDICTED BY IDOCK:   -0.33 KCAL/MOL
REMARK 927      BINDING AFFINITY PREDICTED BY RF-SCORE:    0.00 PKD
ROOT
HETATM    1  C   UNL     1     -10.801   9.719  69.640  1.00  0.00    -0.274 C  
HETATM    2  C   UNL     1     -10.109   8.506  70.275  1.00  0.00    -0.199 C  
HETATM    3  C   UNL     1      -9.328   8.943  71.522  1.00  0.00    -0.335 C  
HETATM    4  C   UNL     1     -11.240   7.562  70.766  1.00  0.00    -0.287 C  
ENDROOT
BRANCH   2   5
HETATM    5  C   UNL     1      -9.236   7.697  69.262  1.00  0.00    -0.145 C  
BRANCH   5   6
HETATM    6  C   UNL     1      -9.163   7.980  67.712  1.00  0.00    -0.142 C  
HETATM    7  C   UNL     1     -10.543   8.302  67.096  1.00  0.00    -0.340 C  
HETATM    8  C   UNL     1      -8.593   6.782  66.926  1.00  0.00    -0.116 C  
BRANCH   6   9
HETATM    9  C   UNL     1      -8.275   9.241  67.524  1.00  0.00    -0.114 A  
HETATM   10  C   UNL     1      -8.734  10.420  66.911  1.00  0.00    -0.130 A  
HETATM   11  C   UNL     1      -7.905  11.534  66.765  1.00  0.00    -0.146 A  
HETATM   12  C   UNL     1      -6.590  11.500  67.212  1.00  0.00    -0.113 A  
HETATM   13  C   UNL     1      -6.934   9.228  67.961  1.00  0.00    -0.076 A  
HETATM   14  C   UNL     1      -6.099  10.340  67.802  1.00  0.00    -0.056 A  
BRANCH  12  15
HETATM   15  O   UNL     1      -5.879  12.646  66.983  1.00  0.00    -0.319 OA 
BRANCH  15  16
HETATM   16  C   UNL     1      -5.134  13.151  68.082  1.00  0.00    -0.094 C  
BRANCH  16  17
HETATM   17  C   UNL     1      -6.080  13.266  69.281  1.00  0.00    -0.100 C  
BRANCH  17  18
HETATM   18  O   UNL     1      -6.708  14.543  69.448  1.00  0.00    -0.124 OA 
BRANCH  18  19
HETATM   19  C   UNL     1      -7.785  14.855  68.571  1.00  0.00    -0.123 C  
BRANCH  19  20
HETATM   20  C   UNL     1      -8.837  15.739  69.255  1.00  0.00    -0.262 C  
BRANCH  20  21
HETATM   21  N   UNL     1     -10.295  15.291  69.079  1.00  0.00    -0.232 N  
HETATM   22  C   UNL     1     -10.255  13.814  68.665  1.00  0.00    -0.208 C  
HETATM   23  C   UNL     1     -11.043  15.389  70.403  1.00  0.00    -0.328 C  
BRANCH  21  24
HETATM   24  C   UNL     1     -10.986  16.128  67.970  1.00  0.00    -0.338 C  
BRANCH  24  25
HETATM   25  C   UNL     1     -10.380  17.483  67.717  1.00  0.00    -0.367 A  
HETATM   26  C   UNL     1     -10.259  18.405  68.768  1.00  0.00    -0.333 A  
HETATM   27  C   UNL     1      -9.843  19.710  68.516  1.00  0.00    -0.519 A  
HETATM   28  C   UNL     1      -9.526  20.102  67.218  1.00  0.00    -0.532 A  
HETATM   29  C   UNL     1      -9.585  19.181  66.175  1.00  0.00    -0.318 A  
HETATM   30  C   UNL     1      -9.997  17.871  66.424  1.00  0.00    -0.358 A  
ENDBRANCH  24  25
ENDBRANCH  21  24
ENDBRANCH  20  21
ENDBRANCH  19  20
ENDBRANCH  18  19
ENDBRANCH  17  18
ENDBRANCH  16  17
ENDBRANCH  15  16
ENDBRANCH  12  15
ENDBRANCH   6   9
ENDBRANCH   5   6
ENDBRANCH   2   5
TORSDOF 12
ENDMDL
MODEL      239
REMARK 921   NORMALIZED FREE ENERGY PREDICTED BY IDOCK:   -3.57 KCAL/MOL
REMARK 922        TOTAL FREE ENERGY PREDICTED BY IDOCK:   -7.34 KCAL/MOL
REMARK 923 INTER-LIGAND FREE ENERGY PREDICTED BY IDOCK:   -5.05 KCAL/MOL
REMARK 924 INTRA-LIGAND FREE ENERGY PREDICTED BY IDOCK:   -2.29 KCAL/MOL
REMARK 927      BINDING AFFINITY PREDICTED BY RF-SCORE:    0.00 PKD
ROOT
HETATM    1  C   UNL     1     -10.247  11.547  68.712  1.00  0.00    -0.204 C  
HETATM    2  C   UNL     1      -9.979  10.600  67.534  1.00  0.00    -0.201 C  
HETATM    3  C   UNL     1     -10.591   9.222  67.822  1.00  0.00    -0.307 C  
HETATM    4  C   UNL     1     -10.748  11.183  66.318  1.00  0.00    -0.298 C  
ENDROOT
BRANCH   2   5
HETATM    5  C   UNL     1      -8.469  10.525  67.137  1.00  0.00    -0.127 C  
BRANCH   5   6
HETATM    6  C   UNL     1      -7.775   9.272  66.477  1.00  0.00    -0.093 C  
HETATM    7  C   UNL     1      -6.472   9.632  65.728  1.00  0.00    -0.079 C  
HETATM    8  C   UNL     1      -8.693   8.566  65.458  1.00  0.00    -0.208 C  
BRANCH   6   9
HETATM    9  C   UNL     1      -7.386   8.311  67.633  1.00  0.00    -0.093 A  
HETATM   10  C   UNL     1      -7.654   6.930  67.609  1.00  0.00    -0.110 A  
HETATM   11  C   UNL     1      -7.283   6.098  68.666  1.00  0.00    -0.084 A  
HETATM   12  C   UNL     1      -6.648   6.620  69.787  1.00  0.00    -0.048 A  
HETATM   13  C   UNL     1      -6.749   8.817  68.786  1.00  0.00    -0.054 A  
HETATM   14  C   UNL     1      -6.390   7.985  69.852  1.00  0.00    -0.030 A  
BRANCH  12  15
HETATM   15  O   UNL     1      -6.365   5.702  70.762  1.00  0.00    -0.029 OA 
BRANCH  15  16
HETATM   16  C   UNL     1      -6.186   4.362  70.326  1.00  0.00    -0.022 C  
BRANCH  16  17
HETATM   17  C   UNL     1      -6.329   3.445  71.543  1.00  0.00    -0.015 C  
BRANCH  17  18
HETATM   18  O   UNL     1      -6.553   4.111  72.792  1.00  0.00    -0.040 OA 
BRANCH  18  19
HETATM   19  C   UNL     1      -7.765   3.814  73.477  1.00  0.00    -0.075 C  
BRANCH  19  20
HETATM   20  C   UNL     1      -8.824   4.902  73.255  1.00  0.00    -0.107 C  
BRANCH  20  21
HETATM   21  N   UNL     1     -10.078   4.458  72.488  1.00  0.00    -0.172 N  
HETATM   22  C   UNL     1      -9.956   2.943  72.282  1.00  0.00    -0.168 C  
HETATM   23  C   UNL     1     -11.328   4.721  73.320  1.00  0.00    -0.322 C  
BRANCH  21  24
HETATM   24  C   UNL     1     -10.149   5.171  71.111  1.00  0.00    -0.222 C  
BRANCH  24  25
HETATM   25  C   UNL     1     -10.497   6.634  71.162  1.00  0.00    -0.247 A  
HETATM   26  C   UNL     1      -9.497   7.585  71.418  1.00  0.00    -0.159 A  
HETATM   27  C   UNL     1      -9.830   8.923  71.619  1.00  0.00    -0.387 A  
HETATM   28  C   UNL     1     -11.161   9.327  71.546  1.00  0.00    -0.443 A  
HETATM   29  C   UNL     1     -12.156   8.404  71.233  1.00  0.00    -0.315 A  
HETATM   30  C   UNL     1     -11.826   7.065  71.028  1.00  0.00    -0.395 A  
ENDBRANCH  24  25
ENDBRANCH  21  24
ENDBRANCH  20  21
ENDBRANCH  19  20
ENDBRANCH  18  19
ENDBRANCH  17  18
ENDBRANCH  16  17
ENDBRANCH  15  16
ENDBRANCH  12  15
ENDBRANCH   6   9
ENDBRANCH   5   6
ENDBRANCH   2   5
TORSDOF 12
ENDMDL
MODEL      240
REMARK 921   NORMALIZED FREE ENERGY PREDICTED BY IDOCK:   -3.56 KCAL/MOL
REMARK 922        TOTAL FREE ENERGY PREDICTED BY IDOCK:   -7.32 KCAL/MOL
REMARK 923 INTER-LIGAND FREE ENERGY PREDICTED BY IDOCK:   -7.42 KCAL/MOL
REMARK 924 INTRA-LIGAND FREE ENERGY PREDICTED BY IDOCK:    0.10 KCAL/MOL
REMARK 927      BINDING AFFINITY PREDICTED BY RF-SCORE:    0.00 PKD
ROOT
HETATM    1  C   UNL     1      -8.266   3.585  67.561  1.00  0.00    -0.090 C  
HETATM    2  C   UNL     1      -8.793   3.073  68.908  1.00  0.00    -0.158 C  
HETATM    3  C   UNL     1      -9.630   1.805  68.694  1.00  0.00    -0.161 C  
HETATM    4  C   UNL     1      -7.548   2.652  69.735  1.00  0.00    -0.043 C  
ENDROOT
BRANCH   2   5
HETATM    5  C   UNL     1      -9.548   4.169  69.729  1.00  0.00    -0.281 C  
BRANCH   5   6
HETATM    6  C   UNL     1      -8.849   5.244  70.647  1.00  0.00    -0.148 C  
HETATM    7  C   UNL     1      -7.501   5.738  70.074  1.00  0.00    -0.075 C  
HETATM    8  C   UNL     1      -8.559   4.704  72.062  1.00  0.00    -0.124 C  
BRANCH   6   9
HETATM    9  C   UNL     1      -9.797   6.474  70.705  1.00  0.00    -0.201 A  
HETATM   10  C   UNL     1     -11.140   6.429  70.292  1.00  0.00    -0.416 A  
HETATM   11  C   UNL     1     -11.962   7.555  70.366  1.00  0.00     0.004 A  
HETATM   12  C   UNL     1     -11.464   8.764  70.837  1.00  0.00    -0.284 A  
HETATM   13  C   UNL     1      -9.313   7.714  71.171  1.00  0.00    -0.161 A  
HETATM   14  C   UNL     1     -10.132   8.847  71.231  1.00  0.00    -0.365 A  
BRANCH  12  15
HETATM   15  O   UNL     1     -12.364   9.794  70.830  1.00  0.00    -0.300 OA 
BRANCH  15  16
HETATM   16  C   UNL     1     -11.839  11.081  70.535  1.00  0.00    -0.367 C  
BRANCH  16  17
HETATM   17  C   UNL     1     -11.550  11.141  69.033  1.00  0.00    -0.324 C  
BRANCH  17  18
HETATM   18  O   UNL     1     -12.371  12.044  68.284  1.00  0.00    -0.288 OA 
BRANCH  18  19
HETATM   19  C   UNL     1     -11.728  13.170  67.697  1.00  0.00    -0.369 C  
BRANCH  19  20
HETATM   20  C   UNL     1     -10.359  13.439  68.337  1.00  0.00    -0.251 C  
BRANCH  20  21
HETATM   21  N   UNL     1     -10.069  14.905  68.689  1.00  0.00    -0.230 N  
HETATM   22  C   UNL     1     -11.193  15.364  69.626  1.00  0.00    -0.283 C  
HETATM   23  C   UNL     1      -8.750  15.017  69.446  1.00  0.00    -0.113 C  
BRANCH  21  24
HETATM   24  C   UNL     1     -10.066  15.777  67.406  1.00  0.00    -0.246 C  
BRANCH  24  25
HETATM   25  C   UNL     1      -9.797  17.242  67.625  1.00  0.00    -0.279 A  
HETATM   26  C   UNL     1     -10.822  18.180  67.427  1.00  0.00    -0.258 A  
HETATM   27  C   UNL     1     -10.548  19.545  67.478  1.00  0.00    -0.599 A  
HETATM   28  C   UNL     1      -9.255  19.986  67.746  1.00  0.00    -0.435 A  
HETATM   29  C   UNL     1      -8.241  19.065  68.003  1.00  0.00    -0.334 A  
HETATM   30  C   UNL     1      -8.513  17.698  67.957  1.00  0.00    -0.244 A  
ENDBRANCH  24  25
ENDBRANCH  21  24
ENDBRANCH  20  21
ENDBRANCH  19  20
ENDBRANCH  18  19
ENDBRANCH  17  18
ENDBRANCH  16  17
ENDBRANCH  15  16
ENDBRANCH  12  15
ENDBRANCH   6   9
ENDBRANCH   5   6
ENDBRANCH   2   5
TORSDOF 12
ENDMDL
MODEL      241
REMARK 921   NORMALIZED FREE ENERGY PREDICTED BY IDOCK:   -3.55 KCAL/MOL
REMARK 922        TOTAL FREE ENERGY PREDICTED BY IDOCK:   -7.31 KCAL/MOL
REMARK 923 INTER-LIGAND FREE ENERGY PREDICTED BY IDOCK:   -7.32 KCAL/MOL
REMARK 924 INTRA-LIGAND FREE ENERGY PREDICTED BY IDOCK:    0.02 KCAL/MOL
REMARK 927      BINDING AFFINITY PREDICTED BY RF-SCORE:    0.00 PKD
ROOT
HETATM    1  C   UNL     1      -7.456   1.582  72.940  1.00  0.00    -0.032 C  
HETATM    2  C   UNL     1      -7.867   2.562  71.833  1.00  0.00    -0.052 C  
HETATM    3  C   UNL     1      -6.909   2.434  70.640  1.00  0.00    -0.033 C  
HETATM    4  C   UNL     1      -9.264   2.102  71.334  1.00  0.00    -0.175 C  
ENDROOT
BRANCH   2   5
HETATM    5  C   UNL     1      -8.016   4.034  72.339  1.00  0.00    -0.082 C  
BRANCH   5   6
HETATM    6  C   UNL     1      -9.230   4.573  73.188  1.00  0.00    -0.128 C  
HETATM    7  C   UNL     1      -8.796   5.161  74.550  1.00  0.00    -0.110 C  
HETATM    8  C   UNL     1     -10.266   3.471  73.490  1.00  0.00    -0.217 C  
BRANCH   6   9
HETATM    9  C   UNL     1      -9.872   5.730  72.375  1.00  0.00    -0.186 A  
HETATM   10  C   UNL     1      -9.674   5.902  70.993  1.00  0.00    -0.209 A  
HETATM   11  C   UNL     1     -10.274   6.953  70.297  1.00  0.00    -0.208 A  
HETATM   12  C   UNL     1     -11.075   7.874  70.960  1.00  0.00    -0.250 A  
HETATM   13  C   UNL     1     -10.682   6.684  73.027  1.00  0.00    -0.299 A  
HETATM   14  C   UNL     1     -11.272   7.746  72.332  1.00  0.00    -0.392 A  
BRANCH  12  15
HETATM   15  O   UNL     1     -11.577   8.869  70.168  1.00  0.00    -0.126 OA 
BRANCH  15  16
HETATM   16  C   UNL     1     -11.022  10.162  70.361  1.00  0.00    -0.319 C  
BRANCH  16  17
HETATM   17  C   UNL     1     -11.968  11.183  69.724  1.00  0.00    -0.357 C  
BRANCH  17  18
HETATM   18  O   UNL     1     -12.164  12.391  70.471  1.00  0.00    -0.361 OA 
BRANCH  18  19
HETATM   19  C   UNL     1     -12.010  13.619  69.768  1.00  0.00    -0.341 C  
BRANCH  19  20
HETATM   20  C   UNL     1     -11.136  13.452  68.517  1.00  0.00    -0.270 C  
BRANCH  20  21
HETATM   21  N   UNL     1     -10.393  14.714  68.055  1.00  0.00    -0.232 N  
HETATM   22  C   UNL     1     -10.435  15.704  69.225  1.00  0.00    -0.247 C  
HETATM   23  C   UNL     1      -8.932  14.391  67.763  1.00  0.00    -0.192 C  
BRANCH  21  24
HETATM   24  C   UNL     1     -11.099  15.332  66.818  1.00  0.00    -0.278 C  
BRANCH  24  25
HETATM   25  C   UNL     1     -11.507  14.350  65.753  1.00  0.00    -0.335 A  
HETATM   26  C   UNL     1     -12.786  13.773  65.784  1.00  0.00    -0.494 A  
HETATM   27  C   UNL     1     -13.120  12.753  64.896  1.00  0.00     0.038 A  
HETATM   28  C   UNL     1     -12.190  12.314  63.958  1.00  0.00    -0.569 A  
HETATM   29  C   UNL     1     -10.938  12.920  63.877  1.00  0.00    -0.422 A  
HETATM   30  C   UNL     1     -10.601  13.944  64.761  1.00  0.00    -0.444 A  
ENDBRANCH  24  25
ENDBRANCH  21  24
ENDBRANCH  20  21
ENDBRANCH  19  20
ENDBRANCH  18  19
ENDBRANCH  17  18
ENDBRANCH  16  17
ENDBRANCH  15  16
ENDBRANCH  12  15
ENDBRANCH   6   9
ENDBRANCH   5   6
ENDBRANCH   2   5
TORSDOF 12
ENDMDL
MODEL      242
REMARK 921   NORMALIZED FREE ENERGY PREDICTED BY IDOCK:   -3.52 KCAL/MOL
REMARK 922        TOTAL FREE ENERGY PREDICTED BY IDOCK:   -7.27 KCAL/MOL
REMARK 923 INTER-LIGAND FREE ENERGY PREDICTED BY IDOCK:   -7.73 KCAL/MOL
REMARK 924 INTRA-LIGAND FREE ENERGY PREDICTED BY IDOCK:    0.47 KCAL/MOL
REMARK 927      BINDING AFFINITY PREDICTED BY RF-SCORE:    0.00 PKD
ROOT
HETATM    1  C   UNL     1      -9.558   4.502  67.840  1.00  0.00    -0.208 C  
HETATM    2  C   UNL     1      -9.569   5.926  68.412  1.00  0.00    -0.138 C  
HETATM    3  C   UNL     1     -10.669   6.054  69.474  1.00  0.00    -0.405 C  
HETATM    4  C   UNL     1      -8.214   6.115  69.147  1.00  0.00    -0.113 C  
ENDROOT
BRANCH   2   5
HETATM    5  C   UNL     1      -9.657   7.031  67.309  1.00  0.00    -0.175 C  
BRANCH   5   6
HETATM    6  C   UNL     1      -8.516   7.355  66.269  1.00  0.00    -0.138 C  
HETATM    7  C   UNL     1      -8.410   6.300  65.145  1.00  0.00    -0.119 C  
HETATM    8  C   UNL     1      -7.127   7.438  66.934  1.00  0.00    -0.083 C  
BRANCH   6   9
HETATM    9  C   UNL     1      -8.889   8.704  65.595  1.00  0.00    -0.227 A  
HETATM   10  C   UNL     1      -9.276   9.845  66.319  1.00  0.00    -0.208 A  
HETATM   11  C   UNL     1      -9.598  11.041  65.676  1.00  0.00    -0.265 A  
HETATM   12  C   UNL     1      -9.561  11.130  64.290  1.00  0.00    -0.252 A  
HETATM   13  C   UNL     1      -8.868   8.817  64.189  1.00  0.00     0.083 A  
HETATM   14  C   UNL     1      -9.206  10.012  63.543  1.00  0.00    -0.315 A  
BRANCH  12  15
HETATM   15  O   UNL     1      -9.927  12.348  63.786  1.00  0.00    -0.356 OA 
BRANCH  15  16
HETATM   16  C   UNL     1     -10.625  13.209  64.675  1.00  0.00    -0.392 C  
BRANCH  16  17
HETATM   17  C   UNL     1     -11.964  12.550  65.017  1.00  0.00    -0.427 C  
BRANCH  17  18
HETATM   18  O   UNL     1     -12.364  12.646  66.390  1.00  0.00    -0.521 OA 
BRANCH  18  19
HETATM   19  C   UNL     1     -12.205  13.911  67.025  1.00  0.00    -0.355 C  
BRANCH  19  20
HETATM   20  C   UNL     1     -11.528  13.776  68.396  1.00  0.00    -0.316 C  
BRANCH  20  21
HETATM   21  N   UNL     1     -11.329  15.088  69.167  1.00  0.00    -0.278 N  
HETATM   22  C   UNL     1     -12.384  15.111  70.280  1.00  0.00    -0.352 C  
HETATM   23  C   UNL     1      -9.952  15.113  69.822  1.00  0.00    -0.135 C  
BRANCH  21  24
HETATM   24  C   UNL     1     -11.534  16.304  68.225  1.00  0.00    -0.207 C  
BRANCH  24  25
HETATM   25  C   UNL     1     -10.282  17.059  67.868  1.00  0.00    -0.317 A  
HETATM   26  C   UNL     1      -9.345  16.491  66.991  1.00  0.00    -0.242 A  
HETATM   27  C   UNL     1      -8.117  17.110  66.773  1.00  0.00    -0.278 A  
HETATM   28  C   UNL     1      -7.820  18.312  67.411  1.00  0.00    -0.229 A  
HETATM   29  C   UNL     1      -8.764  18.917  68.238  1.00  0.00    -0.367 A  
HETATM   30  C   UNL     1      -9.997  18.302  68.455  1.00  0.00    -0.401 A  
ENDBRANCH  24  25
ENDBRANCH  21  24
ENDBRANCH  20  21
ENDBRANCH  19  20
ENDBRANCH  18  19
ENDBRANCH  17  18
ENDBRANCH  16  17
ENDBRANCH  15  16
ENDBRANCH  12  15
ENDBRANCH   6   9
ENDBRANCH   5   6
ENDBRANCH   2   5
TORSDOF 12
ENDMDL
MODEL      243
REMARK 921   NORMALIZED FREE ENERGY PREDICTED BY IDOCK:   -3.51 KCAL/MOL
REMARK 922        TOTAL FREE ENERGY PREDICTED BY IDOCK:   -7.24 KCAL/MOL
REMARK 923 INTER-LIGAND FREE ENERGY PREDICTED BY IDOCK:   -6.53 KCAL/MOL
REMARK 924 INTRA-LIGAND FREE ENERGY PREDICTED BY IDOCK:   -0.70 KCAL/MOL
REMARK 927      BINDING AFFINITY PREDICTED BY RF-SCORE:    0.00 PKD
ROOT
HETATM    1  C   UNL     1      -7.817   5.679  69.827  1.00  0.00    -0.087 C  
HETATM    2  C   UNL     1      -8.565   5.038  68.651  1.00  0.00    -0.097 C  
HETATM    3  C   UNL     1      -8.058   3.606  68.427  1.00  0.00    -0.076 C  
HETATM    4  C   UNL     1     -10.051   4.921  69.085  1.00  0.00    -0.229 C  
ENDROOT
BRANCH   2   5
HETATM    5  C   UNL     1      -8.528   5.906  67.351  1.00  0.00    -0.103 C  
BRANCH   5   6
HETATM    6  C   UNL     1      -7.292   6.013  66.378  1.00  0.00    -0.081 C  
HETATM    7  C   UNL     1      -7.178   4.808  65.418  1.00  0.00    -0.071 C  
HETATM    8  C   UNL     1      -5.954   6.104  67.140  1.00  0.00    -0.018 C  
BRANCH   6   9
HETATM    9  C   UNL     1      -7.517   7.275  65.499  1.00  0.00    -0.085 A  
HETATM   10  C   UNL     1      -7.239   8.580  65.942  1.00  0.00    -0.076 A  
HETATM   11  C   UNL     1      -7.449   9.689  65.120  1.00  0.00    -0.115 A  
HETATM   12  C   UNL     1      -7.958   9.530  63.837  1.00  0.00    -0.141 A  
HETATM   13  C   UNL     1      -8.041   7.142  64.196  1.00  0.00    -0.026 A  
HETATM   14  C   UNL     1      -8.266   8.254  63.377  1.00  0.00    -0.088 A  
BRANCH  12  15
HETATM   15  O   UNL     1      -8.144  10.697  63.148  1.00  0.00    -0.132 OA 
BRANCH  15  16
HETATM   16  C   UNL     1      -9.478  10.987  62.757  1.00  0.00    -0.334 C  
BRANCH  16  17
HETATM   17  C   UNL     1     -10.103  11.882  63.830  1.00  0.00    -0.398 C  
BRANCH  17  18
HETATM   18  O   UNL     1     -10.523  11.211  65.024  1.00  0.00    -0.286 OA 
BRANCH  18  19
HETATM   19  C   UNL     1     -10.414  11.933  66.246  1.00  0.00    -0.239 C  
BRANCH  19  20
HETATM   20  C   UNL     1      -9.893  13.358  66.018  1.00  0.00    -0.263 C  
BRANCH  20  21
HETATM   21  N   UNL     1     -10.605  14.459  66.818  1.00  0.00    -0.279 N  
HETATM   22  C   UNL     1     -10.235  15.793  66.158  1.00  0.00    -0.315 C  
HETATM   23  C   UNL     1     -12.117  14.289  66.723  1.00  0.00    -0.417 C  
BRANCH  21  24
HETATM   24  C   UNL     1     -10.122  14.452  68.293  1.00  0.00    -0.239 C  
BRANCH  24  25
HETATM   25  C   UNL     1     -11.215  14.447  69.327  1.00  0.00    -0.308 A  
HETATM   26  C   UNL     1     -11.744  15.661  69.795  1.00  0.00    -0.368 A  
HETATM   27  C   UNL     1     -12.645  15.674  70.858  1.00  0.00    -0.503 A  
HETATM   28  C   UNL     1     -13.041  14.478  71.449  1.00  0.00    -0.423 A  
HETATM   29  C   UNL     1     -12.570  13.263  70.956  1.00  0.00    -0.408 A  
HETATM   30  C   UNL     1     -11.672  13.245  69.890  1.00  0.00    -0.330 A  
ENDBRANCH  24  25
ENDBRANCH  21  24
ENDBRANCH  20  21
ENDBRANCH  19  20
ENDBRANCH  18  19
ENDBRANCH  17  18
ENDBRANCH  16  17
ENDBRANCH  15  16
ENDBRANCH  12  15
ENDBRANCH   6   9
ENDBRANCH   5   6
ENDBRANCH   2   5
TORSDOF 12
ENDMDL
MODEL      244
REMARK 921   NORMALIZED FREE ENERGY PREDICTED BY IDOCK:   -3.50 KCAL/MOL
REMARK 922        TOTAL FREE ENERGY PREDICTED BY IDOCK:   -7.22 KCAL/MOL
REMARK 923 INTER-LIGAND FREE ENERGY PREDICTED BY IDOCK:   -5.60 KCAL/MOL
REMARK 924 INTRA-LIGAND FREE ENERGY PREDICTED BY IDOCK:   -1.61 KCAL/MOL
REMARK 927      BINDING AFFINITY PREDICTED BY RF-SCORE:    0.00 PKD
ROOT
HETATM    1  C   UNL     1      -9.090   2.008  64.816  1.00  0.00    -0.130 C  
HETATM    2  C   UNL     1      -9.420   3.218  63.934  1.00  0.00    -0.130 C  
HETATM    3  C   UNL     1      -8.386   3.340  62.806  1.00  0.00    -0.074 C  
HETATM    4  C   UNL     1     -10.783   2.912  63.257  1.00  0.00    -0.235 C  
ENDROOT
BRANCH   2   5
HETATM    5  C   UNL     1      -9.592   4.543  64.747  1.00  0.00    -0.103 C  
BRANCH   5   6
HETATM    6  C   UNL     1      -8.529   5.120  65.758  1.00  0.00    -0.124 C  
HETATM    7  C   UNL     1      -7.690   6.270  65.156  1.00  0.00    -0.099 C  
HETATM    8  C   UNL     1      -7.532   4.044  66.235  1.00  0.00    -0.088 C  
BRANCH   6   9
HETATM    9  C   UNL     1      -9.320   5.713  66.956  1.00  0.00    -0.119 A  
HETATM   10  C   UNL     1     -10.600   6.280  66.828  1.00  0.00    -0.335 A  
HETATM   11  C   UNL     1     -11.282   6.798  67.931  1.00  0.00    -0.169 A  
HETATM   12  C   UNL     1     -10.700   6.779  69.193  1.00  0.00    -0.253 A  
HETATM   13  C   UNL     1      -8.748   5.714  68.246  1.00  0.00    -0.106 A  
HETATM   14  C   UNL     1      -9.425   6.246  69.350  1.00  0.00    -0.148 A  
BRANCH  12  15
HETATM   15  O   UNL     1     -11.461   7.343  70.180  1.00  0.00    -0.232 OA 
BRANCH  15  16
HETATM   16  C   UNL     1     -10.750   8.022  71.206  1.00  0.00    -0.229 C  
BRANCH  16  17
HETATM   17  C   UNL     1     -11.596   9.217  71.655  1.00  0.00    -0.379 C  
BRANCH  17  18
HETATM   18  O   UNL     1     -11.299  10.460  71.007  1.00  0.00    -0.306 OA 
BRANCH  18  19
HETATM   19  C   UNL     1     -12.180  10.877  69.969  1.00  0.00    -0.347 C  
BRANCH  19  20
HETATM   20  C   UNL     1     -11.842  12.289  69.471  1.00  0.00    -0.315 C  
BRANCH  20  21
HETATM   21  N   UNL     1     -11.168  12.361  68.094  1.00  0.00    -0.244 N  
HETATM   22  C   UNL     1     -11.502  11.051  67.369  1.00  0.00    -0.135 C  
HETATM   23  C   UNL     1     -11.748  13.511  67.279  1.00  0.00    -0.383 C  
BRANCH  21  24
HETATM   24  C   UNL     1      -9.629  12.495  68.253  1.00  0.00    -0.209 C  
BRANCH  24  25
HETATM   25  C   UNL     1      -8.849  11.225  68.043  1.00  0.00    -0.148 A  
HETATM   26  C   UNL     1      -8.622  10.354  69.120  1.00  0.00    -0.169 A  
HETATM   27  C   UNL     1      -7.776   9.258  68.974  1.00  0.00    -0.075 A  
HETATM   28  C   UNL     1      -7.164   9.009  67.748  1.00  0.00    -0.083 A  
HETATM   29  C   UNL     1      -7.427   9.831  66.655  1.00  0.00    -0.095 A  
HETATM   30  C   UNL     1      -8.278  10.927  66.796  1.00  0.00    -0.140 A  
ENDBRANCH  24  25
ENDBRANCH  21  24
ENDBRANCH  20  21
ENDBRANCH  19  20
ENDBRANCH  18  19
ENDBRANCH  17  18
ENDBRANCH  16  17
ENDBRANCH  15  16
ENDBRANCH  12  15
ENDBRANCH   6   9
ENDBRANCH   5   6
ENDBRANCH   2   5
TORSDOF 12
ENDMDL
MODEL      245
REMARK 921   NORMALIZED FREE ENERGY PREDICTED BY IDOCK:   -3.49 KCAL/MOL
REMARK 922        TOTAL FREE ENERGY PREDICTED BY IDOCK:   -7.20 KCAL/MOL
REMARK 923 INTER-LIGAND FREE ENERGY PREDICTED BY IDOCK:   -7.01 KCAL/MOL
REMARK 924 INTRA-LIGAND FREE ENERGY PREDICTED BY IDOCK:   -0.20 KCAL/MOL
REMARK 927      BINDING AFFINITY PREDICTED BY RF-SCORE:    0.00 PKD
ROOT
HETATM    1  C   UNL     1      -9.436  15.876  68.694  1.00  0.00    -0.214 C  
HETATM    2  C   UNL     1      -9.584  15.236  67.307  1.00  0.00    -0.214 C  
HETATM    3  C   UNL     1      -9.334  16.287  66.217  1.00  0.00    -0.360 C  
HETATM    4  C   UNL     1      -8.447  14.186  67.183  1.00  0.00    -0.214 C  
ENDROOT
BRANCH   2   5
HETATM    5  C   UNL     1     -10.939  14.477  67.122  1.00  0.00    -0.304 C  
BRANCH   5   6
HETATM    6  C   UNL     1     -11.375  13.728  65.805  1.00  0.00    -0.309 C  
HETATM    7  C   UNL     1     -10.674  14.276  64.542  1.00  0.00    -0.280 C  
HETATM    8  C   UNL     1     -12.893  13.831  65.551  1.00  0.00    -0.464 C  
BRANCH   6   9
HETATM    9  C   UNL     1     -10.939  12.246  65.962  1.00  0.00    -0.327 A  
HETATM   10  C   UNL     1     -11.061  11.531  67.167  1.00  0.00    -0.355 A  
HETATM   11  C   UNL     1     -10.662  10.197  67.266  1.00  0.00    -0.316 A  
HETATM   12  C   UNL     1     -10.114   9.540  66.171  1.00  0.00    -0.256 A  
HETATM   13  C   UNL     1     -10.371  11.559  64.868  1.00  0.00    -0.340 A  
HETATM   14  C   UNL     1      -9.957  10.226  64.971  1.00  0.00    -0.393 A  
BRANCH  12  15
HETATM   15  O   UNL     1      -9.739   8.247  66.411  1.00  0.00    -0.236 OA 
BRANCH  15  16
HETATM   16  C   UNL     1     -10.612   7.484  67.232  1.00  0.00    -0.324 C  
BRANCH  16  17
HETATM   17  C   UNL     1      -9.754   6.627  68.167  1.00  0.00    -0.130 C  
BRANCH  17  18
HETATM   18  O   UNL     1     -10.358   5.406  68.610  1.00  0.00    -0.185 OA 
BRANCH  18  19
HETATM   19  C   UNL     1     -10.644   5.291  70.000  1.00  0.00    -0.230 C  
BRANCH  19  20
HETATM   20  C   UNL     1      -9.415   5.615  70.860  1.00  0.00    -0.166 C  
BRANCH  20  21
HETATM   21  N   UNL     1      -8.767   4.415  71.566  1.00  0.00    -0.115 N  
HETATM   22  C   UNL     1      -9.530   3.167  71.105  1.00  0.00    -0.152 C  
HETATM   23  C   UNL     1      -7.313   4.266  71.131  1.00  0.00    -0.044 C  
BRANCH  21  24
HETATM   24  C   UNL     1      -8.888   4.566  73.106  1.00  0.00    -0.110 C  
BRANCH  24  25
HETATM   25  C   UNL     1      -8.239   5.794  73.685  1.00  0.00    -0.111 A  
HETATM   26  C   UNL     1      -8.926   7.018  73.685  1.00  0.00    -0.188 A  
HETATM   27  C   UNL     1      -8.281   8.188  74.076  1.00  0.00    -0.314 A  
HETATM   28  C   UNL     1      -6.953   8.146  74.491  1.00  0.00    -0.191 A  
HETATM   29  C   UNL     1      -6.277   6.929  74.554  1.00  0.00    -0.083 A  
HETATM   30  C   UNL     1      -6.921   5.754  74.166  1.00  0.00    -0.081 A  
ENDBRANCH  24  25
ENDBRANCH  21  24
ENDBRANCH  20  21
ENDBRANCH  19  20
ENDBRANCH  18  19
ENDBRANCH  17  18
ENDBRANCH  16  17
ENDBRANCH  15  16
ENDBRANCH  12  15
ENDBRANCH   6   9
ENDBRANCH   5   6
ENDBRANCH   2   5
TORSDOF 12
ENDMDL
MODEL      246
REMARK 921   NORMALIZED FREE ENERGY PREDICTED BY IDOCK:   -3.48 KCAL/MOL
REMARK 922        TOTAL FREE ENERGY PREDICTED BY IDOCK:   -7.19 KCAL/MOL
REMARK 923 INTER-LIGAND FREE ENERGY PREDICTED BY IDOCK:   -7.12 KCAL/MOL
REMARK 924 INTRA-LIGAND FREE ENERGY PREDICTED BY IDOCK:   -0.07 KCAL/MOL
REMARK 927      BINDING AFFINITY PREDICTED BY RF-SCORE:    0.00 PKD
ROOT
HETATM    1  C   UNL     1      -7.956   1.726  73.010  1.00  0.00    -0.048 C  
HETATM    2  C   UNL     1      -8.102   2.673  71.812  1.00  0.00    -0.057 C  
HETATM    3  C   UNL     1      -6.932   2.471  70.840  1.00  0.00    -0.033 C  
HETATM    4  C   UNL     1      -9.388   2.236  71.059  1.00  0.00    -0.209 C  
ENDROOT
BRANCH   2   5
HETATM    5  C   UNL     1      -8.295   4.167  72.230  1.00  0.00    -0.102 C  
BRANCH   5   6
HETATM    6  C   UNL     1      -9.406   4.686  73.221  1.00  0.00    -0.127 C  
HETATM    7  C   UNL     1      -8.820   5.279  74.523  1.00  0.00    -0.113 C  
HETATM    8  C   UNL     1     -10.382   3.568  73.641  1.00  0.00    -0.234 C  
BRANCH   6   9
HETATM    9  C   UNL     1     -10.158   5.836  72.496  1.00  0.00    -0.207 A  
HETATM   10  C   UNL     1     -10.206   5.960  71.096  1.00  0.00    -0.266 A  
HETATM   11  C   UNL     1     -10.898   7.005  70.481  1.00  0.00    -0.279 A  
HETATM   12  C   UNL     1     -11.550   7.966  71.244  1.00  0.00    -0.276 A  
HETATM   13  C   UNL     1     -10.820   6.829  73.248  1.00  0.00    -0.302 A  
HETATM   14  C   UNL     1     -11.502   7.885  72.632  1.00  0.00    -0.454 A  
BRANCH  12  15
HETATM   15  O   UNL     1     -12.164   8.951  70.519  1.00  0.00    -0.047 OA 
BRANCH  15  16
HETATM   16  C   UNL     1     -11.452  10.174  70.397  1.00  0.00    -0.322 C  
BRANCH  16  17
HETATM   17  C   UNL     1     -11.260  10.463  68.906  1.00  0.00    -0.235 C  
BRANCH  17  18
HETATM   18  O   UNL     1     -12.262  11.293  68.306  1.00  0.00    -0.611 OA 
BRANCH  18  19
HETATM   19  C   UNL     1     -11.825  12.513  67.716  1.00  0.00    -0.313 C  
BRANCH  19  20
HETATM   20  C   UNL     1     -10.647  13.125  68.486  1.00  0.00    -0.259 C  
BRANCH  20  21
HETATM   21  N   UNL     1     -10.917  14.494  69.128  1.00  0.00    -0.261 N  
HETATM   22  C   UNL     1     -11.751  15.297  68.123  1.00  0.00    -0.279 C  
HETATM   23  C   UNL     1     -11.741  14.329  70.399  1.00  0.00    -0.262 C  
BRANCH  21  24
HETATM   24  C   UNL     1      -9.579  15.231  69.408  1.00  0.00    -0.244 C  
BRANCH  24  25
HETATM   25  C   UNL     1      -9.168  16.234  68.364  1.00  0.00    -0.203 A  
HETATM   26  C   UNL     1      -9.689  17.537  68.398  1.00  0.00    -0.316 A  
HETATM   27  C   UNL     1      -9.436  18.424  67.355  1.00  0.00    -0.277 A  
HETATM   28  C   UNL     1      -8.645  18.028  66.280  1.00  0.00    -0.204 A  
HETATM   29  C   UNL     1      -8.073  16.758  66.262  1.00  0.00    -0.365 A  
HETATM   30  C   UNL     1      -8.321  15.868  67.306  1.00  0.00    -0.211 A  
ENDBRANCH  24  25
ENDBRANCH  21  24
ENDBRANCH  20  21
ENDBRANCH  19  20
ENDBRANCH  18  19
ENDBRANCH  17  18
ENDBRANCH  16  17
ENDBRANCH  15  16
ENDBRANCH  12  15
ENDBRANCH   6   9
ENDBRANCH   5   6
ENDBRANCH   2   5
TORSDOF 12
ENDMDL
MODEL      247
REMARK 921   NORMALIZED FREE ENERGY PREDICTED BY IDOCK:   -3.45 KCAL/MOL
REMARK 922        TOTAL FREE ENERGY PREDICTED BY IDOCK:   -7.13 KCAL/MOL
REMARK 923 INTER-LIGAND FREE ENERGY PREDICTED BY IDOCK:   -6.61 KCAL/MOL
REMARK 924 INTRA-LIGAND FREE ENERGY PREDICTED BY IDOCK:   -0.52 KCAL/MOL
REMARK 927      BINDING AFFINITY PREDICTED BY RF-SCORE:    0.00 PKD
ROOT
HETATM    1  C   UNL     1      -9.140   3.001  65.648  1.00  0.00    -0.149 C  
HETATM    2  C   UNL     1      -8.663   3.635  64.334  1.00  0.00    -0.105 C  
HETATM    3  C   UNL     1      -7.423   2.894  63.816  1.00  0.00    -0.066 C  
HETATM    4  C   UNL     1      -9.792   3.396  63.295  1.00  0.00    -0.130 C  
ENDROOT
BRANCH   2   5
HETATM    5  C   UNL     1      -8.450   5.180  64.440  1.00  0.00    -0.138 C  
BRANCH   5   6
HETATM    6  C   UNL     1      -7.539   5.889  65.515  1.00  0.00    -0.084 C  
HETATM    7  C   UNL     1      -6.846   7.158  64.971  1.00  0.00    -0.047 C  
HETATM    8  C   UNL     1      -6.424   4.962  66.038  1.00  0.00    -0.040 C  
BRANCH   6   9
HETATM    9  C   UNL     1      -8.473   6.341  66.671  1.00  0.00    -0.114 A  
HETATM   10  C   UNL     1      -9.645   7.091  66.466  1.00  0.00    -0.201 A  
HETATM   11  C   UNL     1     -10.461   7.473  67.532  1.00  0.00    -0.341 A  
HETATM   12  C   UNL     1     -10.125   7.132  68.836  1.00  0.00    -0.177 A  
HETATM   13  C   UNL     1      -8.150   6.015  68.005  1.00  0.00    -0.110 A  
HETATM   14  C   UNL     1      -8.960   6.410  69.076  1.00  0.00    -0.128 A  
BRANCH  12  15
HETATM   15  O   UNL     1     -10.993   7.592  69.788  1.00  0.00    -0.244 OA 
BRANCH  15  16
HETATM   16  C   UNL     1     -10.511   7.597  71.125  1.00  0.00    -0.208 C  
BRANCH  16  17
HETATM   17  C   UNL     1     -10.816   8.968  71.732  1.00  0.00    -0.367 C  
BRANCH  17  18
HETATM   18  O   UNL     1     -10.725  10.076  70.828  1.00  0.00    -0.303 OA 
BRANCH  18  19
HETATM   19  C   UNL     1     -11.943  10.559  70.271  1.00  0.00    -0.325 C  
BRANCH  19  20
HETATM   20  C   UNL     1     -11.832  12.033  69.858  1.00  0.00    -0.331 C  
BRANCH  20  21
HETATM   21  N   UNL     1     -11.236  12.287  68.465  1.00  0.00    -0.249 N  
HETATM   22  C   UNL     1      -9.786  12.741  68.682  1.00  0.00    -0.063 C  
HETATM   23  C   UNL     1     -11.209  10.996  67.656  1.00  0.00    -0.305 C  
BRANCH  21  24
HETATM   24  C   UNL     1     -12.030  13.403  67.734  1.00  0.00    -0.324 C  
BRANCH  24  25
HETATM   25  C   UNL     1     -11.243  14.643  67.406  1.00  0.00    -0.351 A  
HETATM   26  C   UNL     1     -11.179  15.698  68.329  1.00  0.00    -0.353 A  
HETATM   27  C   UNL     1     -10.584  16.907  67.976  1.00  0.00    -0.367 A  
HETATM   28  C   UNL     1     -10.030  17.067  66.709  1.00  0.00    -0.297 A  
HETATM   29  C   UNL     1     -10.034  16.008  65.804  1.00  0.00    -0.382 A  
HETATM   30  C   UNL     1     -10.625  14.794  66.155  1.00  0.00    -0.314 A  
ENDBRANCH  24  25
ENDBRANCH  21  24
ENDBRANCH  20  21
ENDBRANCH  19  20
ENDBRANCH  18  19
ENDBRANCH  17  18
ENDBRANCH  16  17
ENDBRANCH  15  16
ENDBRANCH  12  15
ENDBRANCH   6   9
ENDBRANCH   5   6
ENDBRANCH   2   5
TORSDOF 12
ENDMDL
MODEL      248
REMARK 921   NORMALIZED FREE ENERGY PREDICTED BY IDOCK:   -3.44 KCAL/MOL
REMARK 922        TOTAL FREE ENERGY PREDICTED BY IDOCK:   -7.12 KCAL/MOL
REMARK 923 INTER-LIGAND FREE ENERGY PREDICTED BY IDOCK:   -6.70 KCAL/MOL
REMARK 924 INTRA-LIGAND FREE ENERGY PREDICTED BY IDOCK:   -0.42 KCAL/MOL
REMARK 927      BINDING AFFINITY PREDICTED BY RF-SCORE:    0.00 PKD
ROOT
HETATM    1  C   UNL     1      -9.508   3.819  68.222  1.00  0.00    -0.215 C  
HETATM    2  C   UNL     1      -9.779   5.267  67.791  1.00  0.00    -0.170 C  
HETATM    3  C   UNL     1      -8.466   5.941  67.372  1.00  0.00    -0.103 C  
HETATM    4  C   UNL     1     -10.666   5.189  66.520  1.00  0.00    -0.262 C  
ENDROOT
BRANCH   2   5
HETATM    5  C   UNL     1     -10.571   6.088  68.860  1.00  0.00    -0.356 C  
BRANCH   5   6
HETATM    6  C   UNL     1     -10.017   6.479  70.284  1.00  0.00    -0.198 C  
HETATM    7  C   UNL     1      -8.483   6.665  70.301  1.00  0.00    -0.135 C  
HETATM    8  C   UNL     1     -10.348   5.417  71.352  1.00  0.00    -0.294 C  
BRANCH   6   9
HETATM    9  C   UNL     1     -10.646   7.851  70.653  1.00  0.00    -0.221 A  
HETATM   10  C   UNL     1     -10.364   9.039  69.955  1.00  0.00    -0.226 A  
HETATM   11  C   UNL     1     -10.955  10.252  70.315  1.00  0.00    -0.375 A  
HETATM   12  C   UNL     1     -11.832  10.319  71.390  1.00  0.00    -0.283 A  
HETATM   13  C   UNL     1     -11.532   7.947  71.746  1.00  0.00    -0.313 A  
HETATM   14  C   UNL     1     -12.114   9.166  72.116  1.00  0.00    -0.389 A  
BRANCH  12  15
HETATM   15  O   UNL     1     -12.317  11.570  71.654  1.00  0.00    -0.133 OA 
BRANCH  15  16
HETATM   16  C   UNL     1     -12.228  12.512  70.593  1.00  0.00    -0.276 C  
BRANCH  16  17
HETATM   17  C   UNL     1     -12.609  13.887  71.148  1.00  0.00    -0.370 C  
BRANCH  17  18
HETATM   18  O   UNL     1     -12.311  14.999  70.296  1.00  0.00    -0.313 OA 
BRANCH  18  19
HETATM   19  C   UNL     1     -10.957  15.437  70.251  1.00  0.00    -0.315 C  
BRANCH  19  20
HETATM   20  C   UNL     1     -10.071  14.462  69.464  1.00  0.00     0.163 C  
BRANCH  20  21
HETATM   21  N   UNL     1      -9.643  14.937  68.068  1.00  0.00    -0.204 N  
HETATM   22  C   UNL     1     -10.378  16.258  67.806  1.00  0.00    -0.287 C  
HETATM   23  C   UNL     1      -8.145  15.217  68.039  1.00  0.00    -0.135 C  
BRANCH  21  24
HETATM   24  C   UNL     1     -10.048  13.890  66.995  1.00  0.00    -0.256 C  
BRANCH  24  25
HETATM   25  C   UNL     1      -9.470  12.514  67.190  1.00  0.00    -0.208 A  
HETATM   26  C   UNL     1      -8.385  12.325  68.060  1.00  0.00    -0.165 A  
HETATM   27  C   UNL     1      -7.747  11.089  68.132  1.00  0.00    -0.105 A  
HETATM   28  C   UNL     1      -8.198  10.026  67.355  1.00  0.00    -0.118 A  
HETATM   29  C   UNL     1      -9.311  10.183  66.532  1.00  0.00    -0.200 A  
HETATM   30  C   UNL     1      -9.955  11.418  66.460  1.00  0.00    -0.243 A  
ENDBRANCH  24  25
ENDBRANCH  21  24
ENDBRANCH  20  21
ENDBRANCH  19  20
ENDBRANCH  18  19
ENDBRANCH  17  18
ENDBRANCH  16  17
ENDBRANCH  15  16
ENDBRANCH  12  15
ENDBRANCH   6   9
ENDBRANCH   5   6
ENDBRANCH   2   5
TORSDOF 12
ENDMDL
MODEL      249
REMARK 921   NORMALIZED FREE ENERGY PREDICTED BY IDOCK:   -3.44 KCAL/MOL
REMARK 922        TOTAL FREE ENERGY PREDICTED BY IDOCK:   -7.12 KCAL/MOL
REMARK 923 INTER-LIGAND FREE ENERGY PREDICTED BY IDOCK:   -7.22 KCAL/MOL
REMARK 924 INTRA-LIGAND FREE ENERGY PREDICTED BY IDOCK:    0.10 KCAL/MOL
REMARK 927      BINDING AFFINITY PREDICTED BY RF-SCORE:    0.00 PKD
ROOT
HETATM    1  C   UNL     1     -11.517  12.951  69.308  1.00  0.00    -0.341 C  
HETATM    2  C   UNL     1     -11.539  14.441  68.943  1.00  0.00    -0.340 C  
HETATM    3  C   UNL     1     -12.392  15.215  69.956  1.00  0.00    -0.356 C  
HETATM    4  C   UNL     1     -10.082  14.954  69.102  1.00  0.00    -0.227 C  
ENDROOT
BRANCH   2   5
HETATM    5  C   UNL     1     -11.965  14.704  67.461  1.00  0.00    -0.309 C  
BRANCH   5   6
HETATM    6  C   UNL     1     -11.014  14.548  66.213  1.00  0.00    -0.323 C  
HETATM    7  C   UNL     1      -9.734  15.405  66.322  1.00  0.00    -0.325 C  
HETATM    8  C   UNL     1     -11.709  14.952  64.896  1.00  0.00    -0.371 C  
BRANCH   6   9
HETATM    9  C   UNL     1     -10.565  13.061  66.169  1.00  0.00    -0.289 A  
HETATM   10  C   UNL     1     -11.427  12.007  65.820  1.00  0.00    -0.377 A  
HETATM   11  C   UNL     1     -10.984  10.684  65.787  1.00  0.00     0.091 A  
HETATM   12  C   UNL     1      -9.671  10.371  66.117  1.00  0.00    -0.209 A  
HETATM   13  C   UNL     1      -9.240  12.716  66.509  1.00  0.00    -0.200 A  
HETATM   14  C   UNL     1      -8.799  11.388  66.490  1.00  0.00    -0.187 A  
BRANCH  12  15
HETATM   15  O   UNL     1      -9.374   9.036  66.073  1.00  0.00    -0.205 OA 
BRANCH  15  16
HETATM   16  C   UNL     1      -9.403   8.347  67.316  1.00  0.00    -0.146 C  
BRANCH  16  17
HETATM   17  C   UNL     1      -7.957   8.125  67.767  1.00  0.00    -0.127 C  
BRANCH  17  18
HETATM   18  O   UNL     1      -7.699   8.376  69.153  1.00  0.00    -0.089 OA 
BRANCH  18  19
HETATM   19  C   UNL     1      -7.760   7.261  70.036  1.00  0.00    -0.096 C  
BRANCH  19  20
HETATM   20  C   UNL     1      -8.349   7.648  71.400  1.00  0.00    -0.107 C  
BRANCH  20  21
HETATM   21  N   UNL     1      -9.857   7.934  71.413  1.00  0.00    -0.166 N  
HETATM   22  C   UNL     1     -10.281   8.004  72.885  1.00  0.00    -0.314 C  
HETATM   23  C   UNL     1     -10.146   9.287  70.774  1.00  0.00    -0.291 C  
BRANCH  21  24
HETATM   24  C   UNL     1     -10.628   6.790  70.699  1.00  0.00    -0.224 C  
BRANCH  24  25
HETATM   25  C   UNL     1     -10.635   5.471  71.423  1.00  0.00    -0.310 A  
HETATM   26  C   UNL     1     -11.272   5.357  72.669  1.00  0.00    -0.333 A  
HETATM   27  C   UNL     1     -11.155   4.187  73.416  1.00  0.00    -0.354 A  
HETATM   28  C   UNL     1     -10.420   3.114  72.919  1.00  0.00    -0.238 A  
HETATM   29  C   UNL     1      -9.833   3.192  71.659  1.00  0.00    -0.216 A  
HETATM   30  C   UNL     1      -9.951   4.360  70.906  1.00  0.00    -0.242 A  
ENDBRANCH  24  25
ENDBRANCH  21  24
ENDBRANCH  20  21
ENDBRANCH  19  20
ENDBRANCH  18  19
ENDBRANCH  17  18
ENDBRANCH  16  17
ENDBRANCH  15  16
ENDBRANCH  12  15
ENDBRANCH   6   9
ENDBRANCH   5   6
ENDBRANCH   2   5
TORSDOF 12
ENDMDL
MODEL      250
REMARK 921   NORMALIZED FREE ENERGY PREDICTED BY IDOCK:   -3.43 KCAL/MOL
REMARK 922        TOTAL FREE ENERGY PREDICTED BY IDOCK:   -7.11 KCAL/MOL
REMARK 923 INTER-LIGAND FREE ENERGY PREDICTED BY IDOCK:   -5.82 KCAL/MOL
REMARK 924 INTRA-LIGAND FREE ENERGY PREDICTED BY IDOCK:   -1.29 KCAL/MOL
REMARK 927      BINDING AFFINITY PREDICTED BY RF-SCORE:    0.00 PKD
ROOT
HETATM    1  C   UNL     1      -9.795   4.298  67.074  1.00  0.00    -0.216 C  
HETATM    2  C   UNL     1      -8.826   5.450  66.773  1.00  0.00    -0.112 C  
HETATM    3  C   UNL     1      -7.498   5.220  67.508  1.00  0.00    -0.084 C  
HETATM    4  C   UNL     1      -8.514   5.377  65.254  1.00  0.00    -0.149 C  
ENDROOT
BRANCH   2   5
HETATM    5  C   UNL     1      -9.441   6.860  67.054  1.00  0.00    -0.183 C  
BRANCH   5   6
HETATM    6  C   UNL     1      -8.603   8.168  67.320  1.00  0.00    -0.124 C  
HETATM    7  C   UNL     1      -7.364   8.285  66.404  1.00  0.00    -0.080 C  
HETATM    8  C   UNL     1      -8.091   8.247  68.773  1.00  0.00    -0.115 C  
BRANCH   6   9
HETATM    9  C   UNL     1      -9.528   9.372  66.992  1.00  0.00    -0.200 A  
HETATM   10  C   UNL     1      -9.393  10.152  65.830  1.00  0.00    -0.224 A  
HETATM   11  C   UNL     1     -10.248  11.224  65.568  1.00  0.00    -0.312 A  
HETATM   12  C   UNL     1     -11.255  11.560  66.466  1.00  0.00    -0.259 A  
HETATM   13  C   UNL     1     -10.552   9.740  67.891  1.00  0.00    -0.310 A  
HETATM   14  C   UNL     1     -11.400  10.823  67.636  1.00  0.00    -0.328 A  
BRANCH  12  15
HETATM   15  O   UNL     1     -12.003  12.647  66.104  1.00  0.00    -0.433 OA 
BRANCH  15  16
HETATM   16  C   UNL     1     -11.753  13.174  64.808  1.00  0.00    -0.347 C  
BRANCH  16  17
HETATM   17  C   UNL     1     -11.513  14.679  64.949  1.00  0.00    -0.401 C  
BRANCH  17  18
HETATM   18  O   UNL     1     -10.561  15.060  65.949  1.00  0.00    -0.299 OA 
BRANCH  18  19
HETATM   19  C   UNL     1     -11.030  15.889  67.008  1.00  0.00    -0.189 C  
BRANCH  19  20
HETATM   20  C   UNL     1     -10.238  15.657  68.302  1.00  0.00    -0.223 C  
BRANCH  20  21
HETATM   21  N   UNL     1      -8.760  16.073  68.257  1.00  0.00    -0.173 N  
HETATM   22  C   UNL     1      -8.730  17.556  67.868  1.00  0.00    -0.247 C  
HETATM   23  C   UNL     1      -8.128  15.935  69.638  1.00  0.00     0.052 C  
BRANCH  21  24
HETATM   24  C   UNL     1      -7.997  15.236  67.195  1.00  0.00    -0.218 C  
BRANCH  24  25
HETATM   25  C   UNL     1      -7.429  13.933  67.689  1.00  0.00    -0.187 A  
HETATM   26  C   UNL     1      -6.069  13.643  67.497  1.00  0.00    -0.024 A  
HETATM   27  C   UNL     1      -5.567  12.382  67.812  1.00  0.00    -0.099 A  
HETATM   28  C   UNL     1      -6.410  11.408  68.340  1.00  0.00    -0.046 A  
HETATM   29  C   UNL     1      -7.749  11.703  68.591  1.00  0.00    -0.134 A  
HETATM   30  C   UNL     1      -8.255  12.965  68.281  1.00  0.00    -0.153 A  
ENDBRANCH  24  25
ENDBRANCH  21  24
ENDBRANCH  20  21
ENDBRANCH  19  20
ENDBRANCH  18  19
ENDBRANCH  17  18
ENDBRANCH  16  17
ENDBRANCH  15  16
ENDBRANCH  12  15
ENDBRANCH   6   9
ENDBRANCH   5   6
ENDBRANCH   2   5
TORSDOF 12
ENDMDL
MODEL      251
REMARK 921   NORMALIZED FREE ENERGY PREDICTED BY IDOCK:   -3.40 KCAL/MOL
REMARK 922        TOTAL FREE ENERGY PREDICTED BY IDOCK:   -7.06 KCAL/MOL
REMARK 923 INTER-LIGAND FREE ENERGY PREDICTED BY IDOCK:   -6.26 KCAL/MOL
REMARK 924 INTRA-LIGAND FREE ENERGY PREDICTED BY IDOCK:   -0.80 KCAL/MOL
REMARK 927      BINDING AFFINITY PREDICTED BY RF-SCORE:    0.00 PKD
ROOT
HETATM    1  C   UNL     1     -12.146  11.981  63.803  1.00  0.00    -0.599 C  
HETATM    2  C   UNL     1     -11.398  12.628  64.977  1.00  0.00    -0.345 C  
HETATM    3  C   UNL     1     -10.164  13.379  64.459  1.00  0.00    -0.321 C  
HETATM    4  C   UNL     1     -12.354  13.697  65.572  1.00  0.00    -0.519 C  
ENDROOT
BRANCH   2   5
HETATM    5  C   UNL     1     -11.061  11.618  66.122  1.00  0.00    -0.335 C  
BRANCH   5   6
HETATM    6  C   UNL     1      -9.962  10.491  66.030  1.00  0.00    -0.295 C  
HETATM    7  C   UNL     1      -9.416  10.299  64.597  1.00  0.00    -0.351 C  
HETATM    8  C   UNL     1     -10.494   9.118  66.490  1.00  0.00    -0.197 C  
BRANCH   6   9
HETATM    9  C   UNL     1      -8.770  10.948  66.914  1.00  0.00    -0.144 A  
HETATM   10  C   UNL     1      -7.677  11.679  66.415  1.00  0.00     0.058 A  
HETATM   11  C   UNL     1      -6.627  12.076  67.244  1.00  0.00    -0.145 A  
HETATM   12  C   UNL     1      -6.627  11.743  68.592  1.00  0.00    -0.065 A  
HETATM   13  C   UNL     1      -8.741  10.614  68.285  1.00  0.00    -0.135 A  
HETATM   14  C   UNL     1      -7.681  11.000  69.113  1.00  0.00    -0.102 A  
BRANCH  12  15
HETATM   15  O   UNL     1      -5.526  12.168  69.285  1.00  0.00    -0.062 OA 
BRANCH  15  16
HETATM   16  C   UNL     1      -5.744  13.207  70.230  1.00  0.00    -0.155 C  
BRANCH  16  17
HETATM   17  C   UNL     1      -5.576  14.546  69.507  1.00  0.00    -0.092 C  
BRANCH  17  18
HETATM   18  O   UNL     1      -6.206  15.668  70.137  1.00  0.00    -0.153 OA 
BRANCH  18  19
HETATM   19  C   UNL     1      -7.050  16.478  69.324  1.00  0.00    -0.219 C  
BRANCH  19  20
HETATM   20  C   UNL     1      -6.979  17.956  69.731  1.00  0.00     0.313 C  
BRANCH  20  21
HETATM   21  N   UNL     1      -6.219  18.874  68.761  1.00  0.00    -0.224 N  
HETATM   22  C   UNL     1      -5.153  19.604  69.588  1.00  0.00    -0.181 C  
HETATM   23  C   UNL     1      -5.505  18.046  67.699  1.00  0.00    -0.145 C  
BRANCH  21  24
HETATM   24  C   UNL     1      -7.188  19.906  68.125  1.00  0.00    -0.295 C  
BRANCH  24  25
HETATM   25  C   UNL     1      -8.447  19.328  67.536  1.00  0.00    -0.324 A  
HETATM   26  C   UNL     1      -9.676  19.513  68.188  1.00  0.00    -0.483 A  
HETATM   27  C   UNL     1     -10.819  18.857  67.737  1.00  0.00    -0.349 A  
HETATM   28  C   UNL     1     -10.751  18.027  66.621  1.00  0.00    -0.156 A  
HETATM   29  C   UNL     1      -9.550  17.882  65.930  1.00  0.00     0.034 A  
HETATM   30  C   UNL     1      -8.405  18.540  66.376  1.00  0.00    -0.278 A  
ENDBRANCH  24  25
ENDBRANCH  21  24
ENDBRANCH  20  21
ENDBRANCH  19  20
ENDBRANCH  18  19
ENDBRANCH  17  18
ENDBRANCH  16  17
ENDBRANCH  15  16
ENDBRANCH  12  15
ENDBRANCH   6   9
ENDBRANCH   5   6
ENDBRANCH   2   5
TORSDOF 12
ENDMDL
MODEL      252
REMARK 921   NORMALIZED FREE ENERGY PREDICTED BY IDOCK:   -3.40 KCAL/MOL
REMARK 922        TOTAL FREE ENERGY PREDICTED BY IDOCK:   -7.06 KCAL/MOL
REMARK 923 INTER-LIGAND FREE ENERGY PREDICTED BY IDOCK:   -6.88 KCAL/MOL
REMARK 924 INTRA-LIGAND FREE ENERGY PREDICTED BY IDOCK:   -0.18 KCAL/MOL
REMARK 927      BINDING AFFINITY PREDICTED BY RF-SCORE:    0.00 PKD
ROOT
HETATM    1  C   UNL     1      -8.222  20.294  67.078  1.00  0.00    -0.369 C  
HETATM    2  C   UNL     1      -9.469  19.420  66.891  1.00  0.00    -0.406 C  
HETATM    3  C   UNL     1     -10.300  19.412  68.181  1.00  0.00    -0.525 C  
HETATM    4  C   UNL     1     -10.336  20.116  65.807  1.00  0.00    -0.387 C  
ENDROOT
BRANCH   2   5
HETATM    5  C   UNL     1      -9.140  17.983  66.370  1.00  0.00    -0.251 C  
BRANCH   5   6
HETATM    6  C   UNL     1      -8.151  16.977  67.074  1.00  0.00    -0.234 C  
HETATM    7  C   UNL     1      -8.104  17.157  68.608  1.00  0.00    -0.264 C  
HETATM    8  C   UNL     1      -6.704  17.127  66.564  1.00  0.00    -0.290 C  
BRANCH   6   9
HETATM    9  C   UNL     1      -8.691  15.546  66.800  1.00  0.00    -0.302 A  
HETATM   10  C   UNL     1      -9.620  15.256  65.785  1.00  0.00    -0.359 A  
HETATM   11  C   UNL     1     -10.076  13.955  65.566  1.00  0.00    -0.319 A  
HETATM   12  C   UNL     1      -9.632  12.907  66.363  1.00  0.00    -0.252 A  
HETATM   13  C   UNL     1      -8.263  14.467  67.601  1.00  0.00    -0.185 A  
HETATM   14  C   UNL     1      -8.731  13.165  67.391  1.00  0.00    -0.206 A  
BRANCH  12  15
HETATM   15  O   UNL     1     -10.179  11.690  66.062  1.00  0.00    -0.218 OA 
BRANCH  15  16
HETATM   16  C   UNL     1     -10.199  11.336  64.686  1.00  0.00    -0.301 C  
BRANCH  16  17
HETATM   17  C   UNL     1      -9.261  10.143  64.490  1.00  0.00    -0.257 C  
BRANCH  17  18
HETATM   18  O   UNL     1      -8.233  10.000  65.478  1.00  0.00    -0.134 OA 
BRANCH  18  19
HETATM   19  C   UNL     1      -8.083   8.717  66.077  1.00  0.00    -0.109 C  
BRANCH  19  20
HETATM   20  C   UNL     1      -9.394   8.230  66.711  1.00  0.00    -0.182 C  
BRANCH  20  21
HETATM   21  N   UNL     1      -9.355   6.817  67.309  1.00  0.00    -0.131 N  
HETATM   22  C   UNL     1      -7.929   6.597  67.831  1.00  0.00    -0.113 C  
HETATM   23  C   UNL     1     -10.310   6.716  68.493  1.00  0.00    -0.192 C  
BRANCH  21  24
HETATM   24  C   UNL     1      -9.683   5.761  66.220  1.00  0.00    -0.117 C  
BRANCH  24  25
HETATM   25  C   UNL     1      -9.363   4.337  66.587  1.00  0.00    -0.179 A  
HETATM   26  C   UNL     1      -8.758   3.488  65.647  1.00  0.00    -0.120 A  
HETATM   27  C   UNL     1      -8.597   2.132  65.923  1.00  0.00    -0.111 A  
HETATM   28  C   UNL     1      -9.018   1.615  67.145  1.00  0.00    -0.142 A  
HETATM   29  C   UNL     1      -9.564   2.458  68.110  1.00  0.00    -0.100 A  
HETATM   30  C   UNL     1      -9.724   3.816  67.840  1.00  0.00    -0.125 A  
ENDBRANCH  24  25
ENDBRANCH  21  24
ENDBRANCH  20  21
ENDBRANCH  19  20
ENDBRANCH  18  19
ENDBRANCH  17  18
ENDBRANCH  16  17
ENDBRANCH  15  16
ENDBRANCH  12  15
ENDBRANCH   6   9
ENDBRANCH   5   6
ENDBRANCH   2   5
TORSDOF 12
ENDMDL
MODEL      253
REMARK 921   NORMALIZED FREE ENERGY PREDICTED BY IDOCK:   -3.40 KCAL/MOL
REMARK 922        TOTAL FREE ENERGY PREDICTED BY IDOCK:   -7.05 KCAL/MOL
REMARK 923 INTER-LIGAND FREE ENERGY PREDICTED BY IDOCK:   -5.17 KCAL/MOL
REMARK 924 INTRA-LIGAND FREE ENERGY PREDICTED BY IDOCK:   -1.88 KCAL/MOL
REMARK 927      BINDING AFFINITY PREDICTED BY RF-SCORE:    0.00 PKD
ROOT
HETATM    1  C   UNL     1      -5.962   4.764  65.625  1.00  0.00    -0.023 C  
HETATM    2  C   UNL     1      -7.040   3.736  65.995  1.00  0.00    -0.063 C  
HETATM    3  C   UNL     1      -7.751   3.244  64.727  1.00  0.00    -0.078 C  
HETATM    4  C   UNL     1      -6.294   2.512  66.592  1.00  0.00    -0.024 C  
ENDROOT
BRANCH   2   5
HETATM    5  C   UNL     1      -8.032   4.253  67.088  1.00  0.00    -0.097 C  
BRANCH   5   6
HETATM    6  C   UNL     1      -9.293   5.155  66.801  1.00  0.00    -0.134 C  
HETATM    7  C   UNL     1     -10.362   4.439  65.947  1.00  0.00    -0.234 C  
HETATM    8  C   UNL     1      -8.924   6.454  66.055  1.00  0.00    -0.143 C  
BRANCH   6   9
HETATM    9  C   UNL     1      -9.944   5.472  68.176  1.00  0.00    -0.197 A  
HETATM   10  C   UNL     1      -9.665   4.743  69.345  1.00  0.00    -0.266 A  
HETATM   11  C   UNL     1     -10.267   5.062  70.564  1.00  0.00    -0.316 A  
HETATM   12  C   UNL     1     -11.178   6.108  70.649  1.00  0.00    -0.319 A  
HETATM   13  C   UNL     1     -10.879   6.522  68.287  1.00  0.00    -0.359 A  
HETATM   14  C   UNL     1     -11.494   6.834  69.505  1.00  0.00    -0.247 A  
BRANCH  12  15
HETATM   15  O   UNL     1     -11.716   6.296  71.892  1.00  0.00    -0.310 OA 
BRANCH  15  16
HETATM   16  C   UNL     1     -10.789   6.488  72.952  1.00  0.00    -0.258 C  
BRANCH  16  17
HETATM   17  C   UNL     1     -10.021   7.784  72.679  1.00  0.00    -0.238 C  
BRANCH  17  18
HETATM   18  O   UNL     1      -8.639   7.772  73.058  1.00  0.00    -0.132 OA 
BRANCH  18  19
HETATM   19  C   UNL     1      -7.719   8.405  72.175  1.00  0.00    -0.115 C  
BRANCH  19  20
HETATM   20  C   UNL     1      -8.289   8.528  70.755  1.00  0.00    -0.139 C  
BRANCH  20  21
HETATM   21  N   UNL     1      -7.300   9.012  69.684  1.00  0.00    -0.061 N  
HETATM   22  C   UNL     1      -5.974   9.292  70.403  1.00  0.00    -0.043 C  
HETATM   23  C   UNL     1      -7.055   7.915  68.654  1.00  0.00    -0.076 C  
BRANCH  21  24
HETATM   24  C   UNL     1      -7.821  10.313  69.018  1.00  0.00    -0.114 C  
BRANCH  24  25
HETATM   25  C   UNL     1      -8.380  10.146  67.631  1.00  0.00    -0.114 A  
HETATM   26  C   UNL     1      -7.541  10.286  66.514  1.00  0.00    -0.113 A  
HETATM   27  C   UNL     1      -8.075  10.284  65.228  1.00  0.00    -0.151 A  
HETATM   28  C   UNL     1      -9.445  10.123  65.042  1.00  0.00    -0.330 A  
HETATM   29  C   UNL     1     -10.281   9.924  66.138  1.00  0.00    -0.277 A  
HETATM   30  C   UNL     1      -9.751   9.920  67.428  1.00  0.00    -0.199 A  
ENDBRANCH  24  25
ENDBRANCH  21  24
ENDBRANCH  20  21
ENDBRANCH  19  20
ENDBRANCH  18  19
ENDBRANCH  17  18
ENDBRANCH  16  17
ENDBRANCH  15  16
ENDBRANCH  12  15
ENDBRANCH   6   9
ENDBRANCH   5   6
ENDBRANCH   2   5
TORSDOF 12
ENDMDL
MODEL      254
REMARK 921   NORMALIZED FREE ENERGY PREDICTED BY IDOCK:   -3.39 KCAL/MOL
REMARK 922        TOTAL FREE ENERGY PREDICTED BY IDOCK:   -7.04 KCAL/MOL
REMARK 923 INTER-LIGAND FREE ENERGY PREDICTED BY IDOCK:   -6.96 KCAL/MOL
REMARK 924 INTRA-LIGAND FREE ENERGY PREDICTED BY IDOCK:   -0.07 KCAL/MOL
REMARK 927      BINDING AFFINITY PREDICTED BY RF-SCORE:    0.00 PKD
ROOT
HETATM    1  C   UNL     1     -10.855   3.054  73.174  1.00  0.00    -0.240 C  
HETATM    2  C   UNL     1      -9.658   3.671  72.438  1.00  0.00    -0.200 C  
HETATM    3  C   UNL     1      -8.348   3.212  73.094  1.00  0.00    -0.080 C  
HETATM    4  C   UNL     1      -9.669   3.077  71.003  1.00  0.00    -0.173 C  
ENDROOT
BRANCH   2   5
HETATM    5  C   UNL     1      -9.757   5.225  72.298  1.00  0.00    -0.192 C  
BRANCH   5   6
HETATM    6  C   UNL     1      -8.743   6.120  71.488  1.00  0.00    -0.135 C  
HETATM    7  C   UNL     1      -8.097   5.372  70.300  1.00  0.00    -0.097 C  
HETATM    8  C   UNL     1      -7.587   6.636  72.370  1.00  0.00    -0.094 C  
BRANCH   6   9
HETATM    9  C   UNL     1      -9.557   7.302  70.895  1.00  0.00    -0.170 A  
HETATM   10  C   UNL     1     -10.250   8.234  71.687  1.00  0.00    -0.286 A  
HETATM   11  C   UNL     1     -10.967   9.286  71.116  1.00  0.00    -0.409 A  
HETATM   12  C   UNL     1     -11.027   9.432  69.735  1.00  0.00    -0.215 A  
HETATM   13  C   UNL     1      -9.641   7.467  69.496  1.00  0.00    -0.155 A  
HETATM   14  C   UNL     1     -10.371   8.514  68.922  1.00  0.00    -0.226 A  
BRANCH  12  15
HETATM   15  O   UNL     1     -11.785  10.486  69.305  1.00  0.00    -0.260 OA 
BRANCH  15  16
HETATM   16  C   UNL     1     -11.096  11.713  69.108  1.00  0.00    -0.245 C  
BRANCH  16  17
HETATM   17  C   UNL     1     -12.127  12.844  69.133  1.00  0.00    -0.168 C  
BRANCH  17  18
HETATM   18  O   UNL     1     -11.986  13.829  68.101  1.00  0.00    -0.362 OA 
BRANCH  18  19
HETATM   19  C   UNL     1     -10.722  14.476  67.991  1.00  0.00    -0.242 C  
BRANCH  19  20
HETATM   20  C   UNL     1     -10.874  15.999  67.873  1.00  0.00    -0.333 C  
BRANCH  20  21
HETATM   21  N   UNL     1      -9.776  16.712  67.070  1.00  0.00    -0.243 N  
HETATM   22  C   UNL     1      -9.451  15.813  65.871  1.00  0.00    -0.342 C  
HETATM   23  C   UNL     1     -10.292  18.043  66.534  1.00  0.00    -0.373 C  
BRANCH  21  24
HETATM   24  C   UNL     1      -8.507  16.903  67.943  1.00  0.00    -0.203 C  
BRANCH  24  25
HETATM   25  C   UNL     1      -7.642  18.077  67.572  1.00  0.00    -0.214 A  
HETATM   26  C   UNL     1      -6.710  17.959  66.529  1.00  0.00    -0.252 A  
HETATM   27  C   UNL     1      -5.801  18.985  66.277  1.00  0.00    -0.183 A  
HETATM   28  C   UNL     1      -5.827  20.143  67.049  1.00  0.00    -0.192 A  
HETATM   29  C   UNL     1      -6.785  20.297  68.048  1.00  0.00    -0.330 A  
HETATM   30  C   UNL     1      -7.700  19.275  68.300  1.00  0.00    -0.351 A  
ENDBRANCH  24  25
ENDBRANCH  21  24
ENDBRANCH  20  21
ENDBRANCH  19  20
ENDBRANCH  18  19
ENDBRANCH  17  18
ENDBRANCH  16  17
ENDBRANCH  15  16
ENDBRANCH  12  15
ENDBRANCH   6   9
ENDBRANCH   5   6
ENDBRANCH   2   5
TORSDOF 12
ENDMDL
MODEL      255
REMARK 921   NORMALIZED FREE ENERGY PREDICTED BY IDOCK:   -3.35 KCAL/MOL
REMARK 922        TOTAL FREE ENERGY PREDICTED BY IDOCK:   -6.97 KCAL/MOL
REMARK 923 INTER-LIGAND FREE ENERGY PREDICTED BY IDOCK:   -7.00 KCAL/MOL
REMARK 924 INTRA-LIGAND FREE ENERGY PREDICTED BY IDOCK:    0.03 KCAL/MOL
REMARK 927      BINDING AFFINITY PREDICTED BY RF-SCORE:    0.00 PKD
ROOT
HETATM    1  C   UNL     1      -9.941  14.452  65.340  1.00  0.00    -0.344 C  
HETATM    2  C   UNL     1     -10.487  13.394  66.307  1.00  0.00    -0.289 C  
HETATM    3  C   UNL     1     -12.004  13.252  66.125  1.00  0.00    -0.470 C  
HETATM    4  C   UNL     1      -9.859  12.040  65.879  1.00  0.00    -0.259 C  
ENDROOT
BRANCH   2   5
HETATM    5  C   UNL     1     -10.074  13.648  67.794  1.00  0.00    -0.242 C  
BRANCH   5   6
HETATM    6  C   UNL     1     -11.045  14.176  68.918  1.00  0.00    -0.288 C  
HETATM    7  C   UNL     1     -12.246  14.967  68.352  1.00  0.00    -0.053 C  
HETATM    8  C   UNL     1     -10.330  15.108  69.917  1.00  0.00    -0.207 C  
BRANCH   6   9
HETATM    9  C   UNL     1     -11.622  12.927  69.640  1.00  0.00    -0.318 A  
HETATM   10  C   UNL     1     -11.494  11.620  69.137  1.00  0.00    -0.364 A  
HETATM   11  C   UNL     1     -12.022  10.522  69.819  1.00  0.00    -0.309 A  
HETATM   12  C   UNL     1     -12.707  10.697  71.015  1.00  0.00    -0.415 A  
HETATM   13  C   UNL     1     -12.330  13.078  70.851  1.00  0.00    -0.376 A  
HETATM   14  C   UNL     1     -12.872  11.979  71.528  1.00  0.00    -0.403 A  
BRANCH  12  15
HETATM   15  O   UNL     1     -13.198   9.544  71.565  1.00  0.00    -0.355 OA 
BRANCH  15  16
HETATM   16  C   UNL     1     -12.329   8.855  72.452  1.00  0.00    -0.315 C  
BRANCH  16  17
HETATM   17  C   UNL     1     -10.922   8.880  71.849  1.00  0.00    -0.369 C  
BRANCH  17  18
HETATM   18  O   UNL     1     -10.371   7.599  71.519  1.00  0.00    -0.196 OA 
BRANCH  18  19
HETATM   19  C   UNL     1     -10.621   7.105  70.207  1.00  0.00    -0.227 C  
BRANCH  19  20
HETATM   20  C   UNL     1      -9.343   6.565  69.551  1.00  0.00    -0.147 C  
BRANCH  20  21
HETATM   21  N   UNL     1      -8.801   7.394  68.377  1.00  0.00    -0.123 N  
HETATM   22  C   UNL     1      -8.989   8.869  68.753  1.00  0.00    -0.134 C  
HETATM   23  C   UNL     1      -7.309   7.141  68.193  1.00  0.00    -0.097 C  
BRANCH  21  24
HETATM   24  C   UNL     1      -9.597   7.078  67.082  1.00  0.00    -0.149 C  
BRANCH  24  25
HETATM   25  C   UNL     1      -8.865   7.352  65.795  1.00  0.00    -0.106 A  
HETATM   26  C   UNL     1      -9.040   8.579  65.136  1.00  0.00     0.018 A  
HETATM   27  C   UNL     1      -8.491   8.784  63.873  1.00  0.00    -0.110 A  
HETATM   28  C   UNL     1      -7.746   7.777  63.265  1.00  0.00    -0.135 A  
HETATM   29  C   UNL     1      -7.515   6.577  63.933  1.00  0.00    -0.085 A  
HETATM   30  C   UNL     1      -8.060   6.369  65.200  1.00  0.00    -0.136 A  
ENDBRANCH  24  25
ENDBRANCH  21  24
ENDBRANCH  20  21
ENDBRANCH  19  20
ENDBRANCH  18  19
ENDBRANCH  17  18
ENDBRANCH  16  17
ENDBRANCH  15  16
ENDBRANCH  12  15
ENDBRANCH   6   9
ENDBRANCH   5   6
ENDBRANCH   2   5
TORSDOF 12
ENDMDL
MODEL      256
REMARK 921   NORMALIZED FREE ENERGY PREDICTED BY IDOCK:   -3.35 KCAL/MOL
REMARK 922        TOTAL FREE ENERGY PREDICTED BY IDOCK:   -6.96 KCAL/MOL
REMARK 923 INTER-LIGAND FREE ENERGY PREDICTED BY IDOCK:   -6.75 KCAL/MOL
REMARK 924 INTRA-LIGAND FREE ENERGY PREDICTED BY IDOCK:   -0.21 KCAL/MOL
REMARK 927      BINDING AFFINITY PREDICTED BY RF-SCORE:    0.00 PKD
ROOT
HETATM    1  C   UNL     1      -6.997   4.299  68.937  1.00  0.00    -0.051 C  
HETATM    2  C   UNL     1      -7.078   5.690  69.579  1.00  0.00    -0.064 C  
HETATM    3  C   UNL     1      -6.058   5.800  70.720  1.00  0.00    -0.030 C  
HETATM    4  C   UNL     1      -6.639   6.705  68.489  1.00  0.00    -0.051 C  
ENDROOT
BRANCH   2   5
HETATM    5  C   UNL     1      -8.528   6.080  70.019  1.00  0.00    -0.131 C  
BRANCH   5   6
HETATM    6  C   UNL     1      -9.805   5.970  69.101  1.00  0.00    -0.185 C  
HETATM    7  C   UNL     1     -11.119   5.882  69.909  1.00  0.00    -0.417 C  
HETATM    8  C   UNL     1      -9.761   4.728  68.186  1.00  0.00    -0.201 C  
BRANCH   6   9
HETATM    9  C   UNL     1      -9.872   7.275  68.261  1.00  0.00    -0.165 A  
HETATM   10  C   UNL     1     -10.074   8.545  68.829  1.00  0.00    -0.210 A  
HETATM   11  C   UNL     1     -10.123   9.696  68.040  1.00  0.00    -0.213 A  
HETATM   12  C   UNL     1      -9.988   9.613  66.660  1.00  0.00    -0.236 A  
HETATM   13  C   UNL     1      -9.747   7.216  66.857  1.00  0.00    -0.242 A  
HETATM   14  C   UNL     1      -9.811   8.368  66.065  1.00  0.00    -0.082 A  
BRANCH  12  15
HETATM   15  O   UNL     1     -10.084  10.809  66.003  1.00  0.00    -0.232 OA 
BRANCH  15  16
HETATM   16  C   UNL     1     -10.351  10.738  64.610  1.00  0.00    -0.324 C  
BRANCH  16  17
HETATM   17  C   UNL     1     -11.351  11.844  64.263  1.00  0.00    -0.353 C  
BRANCH  17  18
HETATM   18  O   UNL     1     -12.170  12.296  65.349  1.00  0.00    -0.546 OA 
BRANCH  18  19
HETATM   19  C   UNL     1     -12.119  13.683  65.665  1.00  0.00    -0.425 C  
BRANCH  19  20
HETATM   20  C   UNL     1     -10.782  14.070  66.311  1.00  0.00    -0.289 C  
BRANCH  20  21
HETATM   21  N   UNL     1     -10.793  14.173  67.843  1.00  0.00    -0.242 N  
HETATM   22  C   UNL     1     -11.712  13.056  68.354  1.00  0.00    -0.351 C  
HETATM   23  C   UNL     1      -9.396  13.925  68.401  1.00  0.00    -0.201 C  
BRANCH  21  24
HETATM   24  C   UNL     1     -11.348  15.553  68.287  1.00  0.00    -0.357 C  
BRANCH  24  25
HETATM   25  C   UNL     1     -10.654  16.747  67.687  1.00  0.00    -0.325 A  
HETATM   26  C   UNL     1     -10.917  17.118  66.360  1.00  0.00     0.212 A  
HETATM   27  C   UNL     1     -10.172  18.124  65.748  1.00  0.00    -0.112 A  
HETATM   28  C   UNL     1      -9.172  18.781  66.461  1.00  0.00    -0.336 A  
HETATM   29  C   UNL     1      -8.942  18.463  67.797  1.00  0.00    -0.292 A  
HETATM   30  C   UNL     1      -9.689  17.460  68.414  1.00  0.00    -0.304 A  
ENDBRANCH  24  25
ENDBRANCH  21  24
ENDBRANCH  20  21
ENDBRANCH  19  20
ENDBRANCH  18  19
ENDBRANCH  17  18
ENDBRANCH  16  17
ENDBRANCH  15  16
ENDBRANCH  12  15
ENDBRANCH   6   9
ENDBRANCH   5   6
ENDBRANCH   2   5
TORSDOF 12
ENDMDL
MODEL      257
REMARK 921   NORMALIZED FREE ENERGY PREDICTED BY IDOCK:   -3.32 KCAL/MOL
REMARK 922        TOTAL FREE ENERGY PREDICTED BY IDOCK:   -6.92 KCAL/MOL
REMARK 923 INTER-LIGAND FREE ENERGY PREDICTED BY IDOCK:   -6.83 KCAL/MOL
REMARK 924 INTRA-LIGAND FREE ENERGY PREDICTED BY IDOCK:   -0.09 KCAL/MOL
REMARK 927      BINDING AFFINITY PREDICTED BY RF-SCORE:    0.00 PKD
ROOT
HETATM    1  C   UNL     1      -9.570  19.740  68.326  1.00  0.00    -0.467 C  
HETATM    2  C   UNL     1      -9.305  19.225  66.905  1.00  0.00    -0.371 C  
HETATM    3  C   UNL     1     -10.510  19.533  66.005  1.00  0.00    -0.611 C  
HETATM    4  C   UNL     1      -8.114  20.053  66.352  1.00  0.00    -0.338 C  
ENDROOT
BRANCH   2   5
HETATM    5  C   UNL     1      -8.884  17.720  66.865  1.00  0.00    -0.260 C  
BRANCH   5   6
HETATM    6  C   UNL     1      -9.602  16.566  67.664  1.00  0.00    -0.235 C  
HETATM    7  C   UNL     1     -10.818  17.063  68.476  1.00  0.00    -0.310 C  
HETATM    8  C   UNL     1      -8.654  15.871  68.663  1.00  0.00    -0.198 C  
BRANCH   6   9
HETATM    9  C   UNL     1     -10.138  15.555  66.613  1.00  0.00    -0.275 A  
HETATM   10  C   UNL     1     -10.122  14.162  66.808  1.00  0.00    -0.262 A  
HETATM   11  C   UNL     1     -10.618  13.286  65.841  1.00  0.00    -0.288 A  
HETATM   12  C   UNL     1     -11.131  13.772  64.644  1.00  0.00    -0.388 A  
HETATM   13  C   UNL     1     -10.654  16.022  65.387  1.00  0.00    -0.428 A  
HETATM   14  C   UNL     1     -11.139  15.144  64.411  1.00  0.00    -0.124 A  
BRANCH  12  15
HETATM   15  O   UNL     1     -11.557  12.808  63.772  1.00  0.00    -0.411 OA 
BRANCH  15  16
HETATM   16  C   UNL     1     -11.112  11.485  64.037  1.00  0.00    -0.365 C  
BRANCH  16  17
HETATM   17  C   UNL     1     -10.041  11.130  63.003  1.00  0.00    -0.268 C  
BRANCH  17  18
HETATM   18  O   UNL     1      -8.767  10.754  63.540  1.00  0.00    -0.167 OA 
BRANCH  18  19
HETATM   19  C   UNL     1      -8.770   9.918  64.692  1.00  0.00    -0.194 C  
BRANCH  19  20
HETATM   20  C   UNL     1      -7.753  10.391  65.740  1.00  0.00    -0.146 C  
BRANCH  20  21
HETATM   21  N   UNL     1      -7.780   9.637  67.077  1.00  0.00    -0.095 N  
HETATM   22  C   UNL     1      -8.694  10.434  68.015  1.00  0.00    -0.123 C  
HETATM   23  C   UNL     1      -8.389   8.252  66.891  1.00  0.00    -0.114 C  
BRANCH  21  24
HETATM   24  C   UNL     1      -6.352   9.556  67.679  1.00  0.00    -0.058 C  
BRANCH  24  25
HETATM   25  C   UNL     1      -6.287   9.164  69.130  1.00  0.00    -0.042 A  
HETATM   26  C   UNL     1      -7.152   8.177  69.630  1.00  0.00    -0.057 A  
HETATM   27  C   UNL     1      -7.207   7.915  70.997  1.00  0.00    -0.057 A  
HETATM   28  C   UNL     1      -6.387   8.619  71.874  1.00  0.00    -0.073 A  
HETATM   29  C   UNL     1      -5.482   9.558  71.385  1.00  0.00    -0.070 A  
HETATM   30  C   UNL     1      -5.421   9.821  70.017  1.00  0.00    -0.037 A  
ENDBRANCH  24  25
ENDBRANCH  21  24
ENDBRANCH  20  21
ENDBRANCH  19  20
ENDBRANCH  18  19
ENDBRANCH  17  18
ENDBRANCH  16  17
ENDBRANCH  15  16
ENDBRANCH  12  15
ENDBRANCH   6   9
ENDBRANCH   5   6
ENDBRANCH   2   5
TORSDOF 12
ENDMDL
MODEL      258
REMARK 921   NORMALIZED FREE ENERGY PREDICTED BY IDOCK:   -3.32 KCAL/MOL
REMARK 922        TOTAL FREE ENERGY PREDICTED BY IDOCK:   -6.91 KCAL/MOL
REMARK 923 INTER-LIGAND FREE ENERGY PREDICTED BY IDOCK:   -5.73 KCAL/MOL
REMARK 924 INTRA-LIGAND FREE ENERGY PREDICTED BY IDOCK:   -1.19 KCAL/MOL
REMARK 927      BINDING AFFINITY PREDICTED BY RF-SCORE:    0.00 PKD
ROOT
HETATM    1  C   UNL     1      -6.975  12.854  69.064  1.00  0.00    -0.058 C  
HETATM    2  C   UNL     1      -7.925  12.587  67.890  1.00  0.00    -0.157 C  
HETATM    3  C   UNL     1      -8.380  13.916  67.273  1.00  0.00    -0.199 C  
HETATM    4  C   UNL     1      -7.090  11.855  66.805  1.00  0.00    -0.003 C  
ENDROOT
BRANCH   2   5
HETATM    5  C   UNL     1      -9.119  11.650  68.267  1.00  0.00    -0.187 C  
BRANCH   5   6
HETATM    6  C   UNL     1     -10.159  11.062  67.238  1.00  0.00    -0.222 C  
HETATM    7  C   UNL     1     -10.118  11.777  65.868  1.00  0.00    -0.267 C  
HETATM    8  C   UNL     1     -11.610  11.166  67.750  1.00  0.00    -0.303 C  
BRANCH   6   9
HETATM    9  C   UNL     1      -9.762   9.581  66.990  1.00  0.00    -0.229 A  
HETATM   10  C   UNL     1      -9.985   8.558  67.929  1.00  0.00    -0.225 A  
HETATM   11  C   UNL     1      -9.619   7.237  67.666  1.00  0.00    -0.160 A  
HETATM   12  C   UNL     1      -9.005   6.899  66.467  1.00  0.00    -0.150 A  
HETATM   13  C   UNL     1      -9.129   9.214  65.784  1.00  0.00    -0.265 A  
HETATM   14  C   UNL     1      -8.749   7.892  65.526  1.00  0.00    -0.112 A  
BRANCH  12  15
HETATM   15  O   UNL     1      -8.671   5.577  66.348  1.00  0.00    -0.118 OA 
BRANCH  15  16
HETATM   16  C   UNL     1      -9.598   4.648  66.893  1.00  0.00    -0.181 C  
BRANCH  16  17
HETATM   17  C   UNL     1      -8.971   4.036  68.148  1.00  0.00    -0.121 C  
BRANCH  17  18
HETATM   18  O   UNL     1      -9.897   3.496  69.098  1.00  0.00    -0.052 OA 
BRANCH  18  19
HETATM   19  C   UNL     1      -9.771   3.933  70.447  1.00  0.00    -0.175 C  
BRANCH  19  20
HETATM   20  C   UNL     1      -9.108   5.314  70.536  1.00  0.00    -0.141 C  
BRANCH  20  21
HETATM   21  N   UNL     1      -8.197   5.534  71.753  1.00  0.00    -0.118 N  
HETATM   22  C   UNL     1      -7.801   4.143  72.265  1.00  0.00    -0.082 C  
HETATM   23  C   UNL     1      -6.924   6.263  71.338  1.00  0.00    -0.076 C  
BRANCH  21  24
HETATM   24  C   UNL     1      -8.959   6.305  72.864  1.00  0.00    -0.124 C  
BRANCH  24  25
HETATM   25  C   UNL     1      -9.898   7.375  72.375  1.00  0.00    -0.207 A  
HETATM   26  C   UNL     1     -11.285   7.203  72.500  1.00  0.00    -0.327 A  
HETATM   27  C   UNL     1     -12.164   8.112  71.916  1.00  0.00    -0.373 A  
HETATM   28  C   UNL     1     -11.668   9.212  71.222  1.00  0.00    -0.396 A  
HETATM   29  C   UNL     1     -10.294   9.428  71.142  1.00  0.00    -0.377 A  
HETATM   30  C   UNL     1      -9.411   8.522  71.728  1.00  0.00    -0.323 A  
ENDBRANCH  24  25
ENDBRANCH  21  24
ENDBRANCH  20  21
ENDBRANCH  19  20
ENDBRANCH  18  19
ENDBRANCH  17  18
ENDBRANCH  16  17
ENDBRANCH  15  16
ENDBRANCH  12  15
ENDBRANCH   6   9
ENDBRANCH   5   6
ENDBRANCH   2   5
TORSDOF 12
ENDMDL
MODEL      259
REMARK 921   NORMALIZED FREE ENERGY PREDICTED BY IDOCK:   -3.30 KCAL/MOL
REMARK 922        TOTAL FREE ENERGY PREDICTED BY IDOCK:   -6.88 KCAL/MOL
REMARK 923 INTER-LIGAND FREE ENERGY PREDICTED BY IDOCK:   -6.28 KCAL/MOL
REMARK 924 INTRA-LIGAND FREE ENERGY PREDICTED BY IDOCK:   -0.60 KCAL/MOL
REMARK 927      BINDING AFFINITY PREDICTED BY RF-SCORE:    0.00 PKD
ROOT
HETATM    1  C   UNL     1     -11.322  15.584  67.912  1.00  0.00    -0.309 C  
HETATM    2  C   UNL     1     -11.033  14.132  68.316  1.00  0.00    -0.266 C  
HETATM    3  C   UNL     1      -9.518  13.903  68.391  1.00  0.00    -0.211 C  
HETATM    4  C   UNL     1     -11.582  13.959  69.758  1.00  0.00    -0.335 C  
ENDROOT
BRANCH   2   5
HETATM    5  C   UNL     1     -11.764  13.086  67.413  1.00  0.00    -0.427 C  
BRANCH   5   6
HETATM    6  C   UNL     1     -11.470  12.863  65.880  1.00  0.00    -0.387 C  
HETATM    7  C   UNL     1     -10.605  13.986  65.264  1.00  0.00    -0.376 C  
HETATM    8  C   UNL     1     -12.764  12.788  65.042  1.00  0.00    -0.455 C  
BRANCH   6   9
HETATM    9  C   UNL     1     -10.657  11.545  65.762  1.00  0.00    -0.315 A  
HETATM   10  C   UNL     1     -10.041  11.125  64.570  1.00  0.00    -0.364 A  
HETATM   11  C   UNL     1      -9.313   9.935  64.506  1.00  0.00    -0.336 A  
HETATM   12  C   UNL     1      -9.191   9.121  65.625  1.00  0.00    -0.234 A  
HETATM   13  C   UNL     1     -10.526  10.696  66.881  1.00  0.00    -0.304 A  
HETATM   14  C   UNL     1      -9.808   9.496  66.814  1.00  0.00    -0.277 A  
BRANCH  12  15
HETATM   15  O   UNL     1      -8.478   7.972  65.420  1.00  0.00    -0.149 OA 
BRANCH  15  16
HETATM   16  C   UNL     1      -7.588   7.594  66.461  1.00  0.00    -0.096 C  
BRANCH  16  17
HETATM   17  C   UNL     1      -8.061   6.252  67.025  1.00  0.00    -0.109 C  
BRANCH  17  18
HETATM   18  O   UNL     1      -8.338   6.238  68.431  1.00  0.00    -0.114 OA 
BRANCH  18  19
HETATM   19  C   UNL     1      -8.992   5.086  68.951  1.00  0.00    -0.101 C  
BRANCH  19  20
HETATM   20  C   UNL     1      -9.375   5.269  70.426  1.00  0.00    -0.159 C  
BRANCH  20  21
HETATM   21  N   UNL     1      -8.996   4.108  71.357  1.00  0.00    -0.114 N  
HETATM   22  C   UNL     1      -9.912   4.209  72.584  1.00  0.00    -0.157 C  
HETATM   23  C   UNL     1      -9.267   2.772  70.676  1.00  0.00    -0.136 C  
BRANCH  21  24
HETATM   24  C   UNL     1      -7.513   4.233  71.798  1.00  0.00    -0.069 C  
BRANCH  24  25
HETATM   25  C   UNL     1      -7.093   5.602  72.261  1.00  0.00    -0.087 A  
HETATM   26  C   UNL     1      -7.516   6.080  73.511  1.00  0.00    -0.093 A  
HETATM   27  C   UNL     1      -7.262   7.398  73.884  1.00  0.00    -0.104 A  
HETATM   28  C   UNL     1      -6.569   8.244  73.023  1.00  0.00    -0.113 A  
HETATM   29  C   UNL     1      -6.092   7.765  71.805  1.00  0.00    -0.035 A  
HETATM   30  C   UNL     1      -6.340   6.445  71.430  1.00  0.00    -0.045 A  
ENDBRANCH  24  25
ENDBRANCH  21  24
ENDBRANCH  20  21
ENDBRANCH  19  20
ENDBRANCH  18  19
ENDBRANCH  17  18
ENDBRANCH  16  17
ENDBRANCH  15  16
ENDBRANCH  12  15
ENDBRANCH   6   9
ENDBRANCH   5   6
ENDBRANCH   2   5
TORSDOF 12
ENDMDL
MODEL      260
REMARK 921   NORMALIZED FREE ENERGY PREDICTED BY IDOCK:   -3.29 KCAL/MOL
REMARK 922        TOTAL FREE ENERGY PREDICTED BY IDOCK:   -6.87 KCAL/MOL
REMARK 923 INTER-LIGAND FREE ENERGY PREDICTED BY IDOCK:   -6.20 KCAL/MOL
REMARK 924 INTRA-LIGAND FREE ENERGY PREDICTED BY IDOCK:   -0.67 KCAL/MOL
REMARK 927      BINDING AFFINITY PREDICTED BY RF-SCORE:    0.00 PKD
ROOT
HETATM    1  C   UNL     1     -10.983   6.131  67.080  1.00  0.00    -0.414 C  
HETATM    2  C   UNL     1      -9.885   5.243  66.480  1.00  0.00    -0.204 C  
HETATM    3  C   UNL     1     -10.493   4.293  65.438  1.00  0.00    -0.192 C  
HETATM    4  C   UNL     1      -8.923   6.189  65.712  1.00  0.00    -0.099 C  
ENDROOT
BRANCH   2   5
HETATM    5  C   UNL     1      -9.038   4.498  67.562  1.00  0.00    -0.137 C  
BRANCH   5   6
HETATM    6  C   UNL     1      -8.778   5.031  69.023  1.00  0.00    -0.101 C  
HETATM    7  C   UNL     1      -7.971   4.038  69.890  1.00  0.00    -0.056 C  
HETATM    8  C   UNL     1     -10.089   5.320  69.781  1.00  0.00    -0.334 C  
BRANCH   6   9
HETATM    9  C   UNL     1      -7.920   6.319  68.888  1.00  0.00    -0.109 A  
HETATM   10  C   UNL     1      -8.415   7.605  69.166  1.00  0.00    -0.138 A  
HETATM   11  C   UNL     1      -7.610   8.739  69.038  1.00  0.00    -0.090 A  
HETATM   12  C   UNL     1      -6.292   8.625  68.612  1.00  0.00    -0.053 A  
HETATM   13  C   UNL     1      -6.582   6.231  68.448  1.00  0.00    -0.058 A  
HETATM   14  C   UNL     1      -5.779   7.368  68.305  1.00  0.00    -0.027 A  
BRANCH  12  15
HETATM   15  O   UNL     1      -5.623   9.813  68.501  1.00  0.00    -0.039 OA 
BRANCH  15  16
HETATM   16  C   UNL     1      -6.343  10.974  68.890  1.00  0.00    -0.051 C  
BRANCH  16  17
HETATM   17  C   UNL     1      -6.392  11.924  67.690  1.00  0.00    -0.086 C  
BRANCH  17  18
HETATM   18  O   UNL     1      -7.619  12.645  67.525  1.00  0.00    -0.137 OA 
BRANCH  18  19
HETATM   19  C   UNL     1      -8.729  11.924  67.002  1.00  0.00    -0.181 C  
BRANCH  19  20
HETATM   20  C   UNL     1     -10.064  12.531  67.454  1.00  0.00    -0.210 C  
BRANCH  20  21
HETATM   21  N   UNL     1     -10.949  13.096  66.333  1.00  0.00    -0.286 N  
HETATM   22  C   UNL     1     -10.070  14.050  65.516  1.00  0.00    -0.320 C  
HETATM   23  C   UNL     1     -11.413  11.975  65.409  1.00  0.00    -0.305 C  
BRANCH  21  24
HETATM   24  C   UNL     1     -12.150  13.873  66.934  1.00  0.00    -0.430 C  
BRANCH  24  25
HETATM   25  C   UNL     1     -11.891  14.528  68.264  1.00  0.00    -0.347 A  
HETATM   26  C   UNL     1     -11.287  15.794  68.318  1.00  0.00    -0.354 A  
HETATM   27  C   UNL     1     -10.905  16.341  69.540  1.00  0.00    -0.342 A  
HETATM   28  C   UNL     1     -11.139  15.641  70.720  1.00  0.00    -0.382 A  
HETATM   29  C   UNL     1     -11.792  14.411  70.687  1.00  0.00    -0.361 A  
HETATM   30  C   UNL     1     -12.180  13.861  69.465  1.00  0.00    -0.356 A  
ENDBRANCH  24  25
ENDBRANCH  21  24
ENDBRANCH  20  21
ENDBRANCH  19  20
ENDBRANCH  18  19
ENDBRANCH  17  18
ENDBRANCH  16  17
ENDBRANCH  15  16
ENDBRANCH  12  15
ENDBRANCH   6   9
ENDBRANCH   5   6
ENDBRANCH   2   5
TORSDOF 12
ENDMDL
MODEL      261
REMARK 921   NORMALIZED FREE ENERGY PREDICTED BY IDOCK:   -3.27 KCAL/MOL
REMARK 922        TOTAL FREE ENERGY PREDICTED BY IDOCK:   -6.82 KCAL/MOL
REMARK 923 INTER-LIGAND FREE ENERGY PREDICTED BY IDOCK:   -6.86 KCAL/MOL
REMARK 924 INTRA-LIGAND FREE ENERGY PREDICTED BY IDOCK:    0.03 KCAL/MOL
REMARK 927      BINDING AFFINITY PREDICTED BY RF-SCORE:    0.00 PKD
ROOT
HETATM    1  C   UNL     1     -10.661   9.124  70.583  1.00  0.00    -0.313 C  
HETATM    2  C   UNL     1     -10.301   8.000  71.563  1.00  0.00    -0.258 C  
HETATM    3  C   UNL     1      -9.317   8.523  72.619  1.00  0.00    -0.284 C  
HETATM    4  C   UNL     1     -11.610   7.636  72.316  1.00  0.00    -0.370 C  
ENDROOT
BRANCH   2   5
HETATM    5  C   UNL     1      -9.798   6.702  70.852  1.00  0.00    -0.197 C  
BRANCH   5   6
HETATM    6  C   UNL     1      -9.874   6.441  69.299  1.00  0.00    -0.167 C  
HETATM    7  C   UNL     1     -11.305   6.591  68.734  1.00  0.00    -0.237 C  
HETATM    8  C   UNL     1      -9.392   5.026  68.920  1.00  0.00    -0.174 C  
BRANCH   6   9
HETATM    9  C   UNL     1      -8.999   7.527  68.615  1.00  0.00    -0.132 A  
HETATM   10  C   UNL     1      -9.438   8.293  67.521  1.00  0.00    -0.182 A  
HETATM   11  C   UNL     1      -8.622   9.264  66.937  1.00  0.00    -0.132 A  
HETATM   12  C   UNL     1      -7.338   9.489  67.418  1.00  0.00    -0.087 A  
HETATM   13  C   UNL     1      -7.688   7.769  69.078  1.00  0.00    -0.109 A  
HETATM   14  C   UNL     1      -6.864   8.732  68.485  1.00  0.00    -0.064 A  
BRANCH  12  15
HETATM   15  O   UNL     1      -6.634  10.446  66.739  1.00  0.00    -0.070 OA 
BRANCH  15  16
HETATM   16  C   UNL     1      -5.868  11.341  67.534  1.00  0.00    -0.055 C  
BRANCH  16  17
HETATM   17  C   UNL     1      -6.833  12.324  68.202  1.00  0.00    -0.078 C  
BRANCH  17  18
HETATM   18  O   UNL     1      -7.142  13.497  67.439  1.00  0.00    -0.163 OA 
BRANCH  18  19
HETATM   19  C   UNL     1      -8.475  13.622  66.953  1.00  0.00    -0.054 C  
BRANCH  19  20
HETATM   20  C   UNL     1      -8.799  15.068  66.553  1.00  0.00    -0.251 C  
BRANCH  20  21
HETATM   21  N   UNL     1     -10.219  15.545  66.891  1.00  0.00    -0.273 N  
HETATM   22  C   UNL     1     -11.167  14.389  66.547  1.00  0.00    -0.340 C  
HETATM   23  C   UNL     1     -10.342  15.827  68.384  1.00  0.00    -0.233 C  
BRANCH  21  24
HETATM   24  C   UNL     1     -10.584  16.793  66.042  1.00  0.00    -0.228 C  
BRANCH  24  25
HETATM   25  C   UNL     1      -9.882  18.065  66.436  1.00  0.00    -0.340 A  
HETATM   26  C   UNL     1      -8.535  18.031  66.827  1.00  0.00    -0.274 A  
HETATM   27  C   UNL     1      -7.920  19.173  67.337  1.00  0.00    -0.283 A  
HETATM   28  C   UNL     1      -8.637  20.361  67.442  1.00  0.00    -0.403 A  
HETATM   29  C   UNL     1      -9.957  20.424  67.003  1.00  0.00    -0.568 A  
HETATM   30  C   UNL     1     -10.575  19.285  66.487  1.00  0.00    -0.538 A  
ENDBRANCH  24  25
ENDBRANCH  21  24
ENDBRANCH  20  21
ENDBRANCH  19  20
ENDBRANCH  18  19
ENDBRANCH  17  18
ENDBRANCH  16  17
ENDBRANCH  15  16
ENDBRANCH  12  15
ENDBRANCH   6   9
ENDBRANCH   5   6
ENDBRANCH   2   5
TORSDOF 12
ENDMDL
MODEL      262
REMARK 921   NORMALIZED FREE ENERGY PREDICTED BY IDOCK:   -3.21 KCAL/MOL
REMARK 922        TOTAL FREE ENERGY PREDICTED BY IDOCK:   -6.73 KCAL/MOL
REMARK 923 INTER-LIGAND FREE ENERGY PREDICTED BY IDOCK:   -5.15 KCAL/MOL
REMARK 924 INTRA-LIGAND FREE ENERGY PREDICTED BY IDOCK:   -1.58 KCAL/MOL
REMARK 927      BINDING AFFINITY PREDICTED BY RF-SCORE:    0.00 PKD
ROOT
HETATM    1  C   UNL     1     -10.535   9.328  67.305  1.00  0.00    -0.334 C  
HETATM    2  C   UNL     1     -10.311  10.656  68.039  1.00  0.00    -0.208 C  
HETATM    3  C   UNL     1     -11.468  11.620  67.740  1.00  0.00    -0.373 C  
HETATM    4  C   UNL     1     -10.378  10.337  69.557  1.00  0.00    -0.267 C  
ENDROOT
BRANCH   2   5
HETATM    5  C   UNL     1      -8.907  11.285  67.759  1.00  0.00    -0.141 C  
BRANCH   5   6
HETATM    6  C   UNL     1      -7.538  10.685  68.260  1.00  0.00    -0.097 C  
HETATM    7  C   UNL     1      -7.508  10.453  69.788  1.00  0.00    -0.155 C  
HETATM    8  C   UNL     1      -6.342  11.600  67.926  1.00  0.00    -0.054 C  
BRANCH   6   9
HETATM    9  C   UNL     1      -7.378   9.295  67.585  1.00  0.00    -0.084 A  
HETATM   10  C   UNL     1      -7.361   8.087  68.304  1.00  0.00    -0.095 A  
HETATM   11  C   UNL     1      -7.221   6.858  67.659  1.00  0.00    -0.091 A  
HETATM   12  C   UNL     1      -7.078   6.796  66.278  1.00  0.00    -0.067 A  
HETATM   13  C   UNL     1      -7.223   9.207  66.185  1.00  0.00    -0.090 A  
HETATM   14  C   UNL     1      -7.068   7.975  65.539  1.00  0.00    -0.060 A  
BRANCH  12  15
HETATM   15  O   UNL     1      -6.921   5.534  65.776  1.00  0.00    -0.062 OA 
BRANCH  15  16
HETATM   16  C   UNL     1      -8.084   4.719  65.757  1.00  0.00    -0.111 C  
BRANCH  16  17
HETATM   17  C   UNL     1      -7.650   3.269  65.988  1.00  0.00    -0.077 C  
BRANCH  17  18
HETATM   18  O   UNL     1      -8.496   2.504  66.856  1.00  0.00    -0.091 OA 
BRANCH  18  19
HETATM   19  C   UNL     1      -8.194   2.533  68.247  1.00  0.00    -0.057 C  
BRANCH  19  20
HETATM   20  C   UNL     1      -9.401   2.988  69.080  1.00  0.00    -0.156 C  
BRANCH  20  21
HETATM   21  N   UNL     1      -9.131   4.137  70.062  1.00  0.00    -0.102 N  
HETATM   22  C   UNL     1      -9.794   3.747  71.390  1.00  0.00    -0.155 C  
HETATM   23  C   UNL     1      -7.634   4.283  70.309  1.00  0.00    -0.046 C  
BRANCH  21  24
HETATM   24  C   UNL     1      -9.753   5.456  69.533  1.00  0.00    -0.176 C  
BRANCH  24  25
HETATM   25  C   UNL     1     -10.334   6.361  70.586  1.00  0.00    -0.243 A  
HETATM   26  C   UNL     1     -11.717   6.593  70.627  1.00  0.00    -0.452 A  
HETATM   27  C   UNL     1     -12.247   7.544  71.497  1.00  0.00    -0.359 A  
HETATM   28  C   UNL     1     -11.405   8.256  72.346  1.00  0.00    -0.457 A  
HETATM   29  C   UNL     1     -10.037   7.993  72.358  1.00  0.00    -0.332 A  
HETATM   30  C   UNL     1      -9.503   7.039  71.492  1.00  0.00    -0.155 A  
ENDBRANCH  24  25
ENDBRANCH  21  24
ENDBRANCH  20  21
ENDBRANCH  19  20
ENDBRANCH  18  19
ENDBRANCH  17  18
ENDBRANCH  16  17
ENDBRANCH  15  16
ENDBRANCH  12  15
ENDBRANCH   6   9
ENDBRANCH   5   6
ENDBRANCH   2   5
TORSDOF 12
ENDMDL
MODEL      263
REMARK 921   NORMALIZED FREE ENERGY PREDICTED BY IDOCK:   -3.21 KCAL/MOL
REMARK 922        TOTAL FREE ENERGY PREDICTED BY IDOCK:   -6.73 KCAL/MOL
REMARK 923 INTER-LIGAND FREE ENERGY PREDICTED BY IDOCK:   -5.49 KCAL/MOL
REMARK 924 INTRA-LIGAND FREE ENERGY PREDICTED BY IDOCK:   -1.24 KCAL/MOL
REMARK 927      BINDING AFFINITY PREDICTED BY RF-SCORE:    0.00 PKD
ROOT
HETATM    1  C   UNL     1     -10.121  13.451  65.678  1.00  0.00    -0.285 C  
HETATM    2  C   UNL     1     -10.125  12.078  66.363  1.00  0.00    -0.242 C  
HETATM    3  C   UNL     1     -11.350  11.954  67.280  1.00  0.00    -0.393 C  
HETATM    4  C   UNL     1     -10.304  11.025  65.236  1.00  0.00    -0.338 C  
ENDROOT
BRANCH   2   5
HETATM    5  C   UNL     1      -8.782  11.751  67.093  1.00  0.00    -0.169 C  
BRANCH   5   6
HETATM    6  C   UNL     1      -8.238  10.297  67.366  1.00  0.00    -0.114 C  
HETATM    7  C   UNL     1      -6.832  10.291  68.006  1.00  0.00    -0.070 C  
HETATM    8  C   UNL     1      -8.143   9.458  66.075  1.00  0.00    -0.111 C  
BRANCH   6   9
HETATM    9  C   UNL     1      -9.206   9.637  68.387  1.00  0.00    -0.133 A  
HETATM   10  C   UNL     1      -9.917   8.454  68.118  1.00  0.00    -0.224 A  
HETATM   11  C   UNL     1     -10.774   7.889  69.064  1.00  0.00    -0.113 A  
HETATM   12  C   UNL     1     -10.959   8.494  70.300  1.00  0.00    -0.235 A  
HETATM   13  C   UNL     1      -9.418  10.237  69.645  1.00  0.00    -0.180 A  
HETATM   14  C   UNL     1     -10.288   9.678  70.589  1.00  0.00    -0.365 A  
BRANCH  12  15
HETATM   15  O   UNL     1     -11.846   7.854  71.123  1.00  0.00    -0.288 OA 
BRANCH  15  16
HETATM   16  C   UNL     1     -11.507   7.821  72.502  1.00  0.00    -0.373 C  
BRANCH  16  17
HETATM   17  C   UNL     1     -10.368   6.816  72.686  1.00  0.00    -0.201 C  
BRANCH  17  18
HETATM   18  O   UNL     1     -10.703   5.449  72.419  1.00  0.00    -0.215 OA 
BRANCH  18  19
HETATM   19  C   UNL     1      -9.970   4.790  71.391  1.00  0.00    -0.197 C  
BRANCH  19  20
HETATM   20  C   UNL     1      -8.792   5.643  70.899  1.00  0.00    -0.140 C  
BRANCH  20  21
HETATM   21  N   UNL     1      -7.660   4.870  70.206  1.00  0.00    -0.061 N  
HETATM   22  C   UNL     1      -7.003   5.842  69.218  1.00  0.00    -0.064 C  
HETATM   23  C   UNL     1      -6.606   4.449  71.224  1.00  0.00    -0.030 C  
BRANCH  21  24
HETATM   24  C   UNL     1      -8.232   3.648  69.439  1.00  0.00    -0.053 C  
BRANCH  24  25
HETATM   25  C   UNL     1      -8.596   3.905  68.001  1.00  0.00    -0.112 A  
HETATM   26  C   UNL     1      -7.734   3.489  66.975  1.00  0.00    -0.080 A  
HETATM   27  C   UNL     1      -7.984   3.854  65.654  1.00  0.00    -0.093 A  
HETATM   28  C   UNL     1      -9.105   4.618  65.343  1.00  0.00    -0.149 A  
HETATM   29  C   UNL     1     -10.001   4.987  66.344  1.00  0.00    -0.249 A  
HETATM   30  C   UNL     1      -9.756   4.620  67.667  1.00  0.00    -0.207 A  
ENDBRANCH  24  25
ENDBRANCH  21  24
ENDBRANCH  20  21
ENDBRANCH  19  20
ENDBRANCH  18  19
ENDBRANCH  17  18
ENDBRANCH  16  17
ENDBRANCH  15  16
ENDBRANCH  12  15
ENDBRANCH   6   9
ENDBRANCH   5   6
ENDBRANCH   2   5
TORSDOF 12
ENDMDL
MODEL      264
REMARK 921   NORMALIZED FREE ENERGY PREDICTED BY IDOCK:   -3.20 KCAL/MOL
REMARK 922        TOTAL FREE ENERGY PREDICTED BY IDOCK:   -6.72 KCAL/MOL
REMARK 923 INTER-LIGAND FREE ENERGY PREDICTED BY IDOCK:   -6.29 KCAL/MOL
REMARK 924 INTRA-LIGAND FREE ENERGY PREDICTED BY IDOCK:   -0.43 KCAL/MOL
REMARK 927      BINDING AFFINITY PREDICTED BY RF-SCORE:    0.00 PKD
ROOT
HETATM    1  C   UNL     1      -8.212  20.052  66.110  1.00  0.00    -0.302 C  
HETATM    2  C   UNL     1      -9.408  19.294  66.700  1.00  0.00    -0.387 C  
HETATM    3  C   UNL     1      -9.712  19.814  68.111  1.00  0.00    -0.506 C  
HETATM    4  C   UNL     1     -10.635  19.652  65.819  1.00  0.00    -0.537 C  
ENDROOT
BRANCH   2   5
HETATM    5  C   UNL     1      -9.237  17.740  66.648  1.00  0.00    -0.280 C  
BRANCH   5   6
HETATM    6  C   UNL     1      -9.360  16.781  67.893  1.00  0.00    -0.229 C  
HETATM    7  C   UNL     1     -10.702  16.938  68.642  1.00  0.00    -0.345 C  
HETATM    8  C   UNL     1      -8.242  17.022  68.928  1.00  0.00    -0.204 C  
BRANCH   6   9
HETATM    9  C   UNL     1      -9.309  15.326  67.350  1.00  0.00    -0.202 A  
HETATM   10  C   UNL     1     -10.282  14.793  66.486  1.00  0.00    -0.281 A  
HETATM   11  C   UNL     1     -10.197  13.482  66.015  1.00  0.00    -0.308 A  
HETATM   12  C   UNL     1      -9.148  12.658  66.405  1.00  0.00    -0.110 A  
HETATM   13  C   UNL     1      -8.260  14.467  67.738  1.00  0.00    -0.173 A  
HETATM   14  C   UNL     1      -8.182  13.147  67.277  1.00  0.00    -0.172 A  
BRANCH  12  15
HETATM   15  O   UNL     1      -9.200  11.389  65.896  1.00  0.00    -0.212 OA 
BRANCH  15  16
HETATM   16  C   UNL     1     -10.346  10.623  66.240  1.00  0.00    -0.234 C  
BRANCH  16  17
HETATM   17  C   UNL     1     -10.039   9.870  67.536  1.00  0.00    -0.197 C  
BRANCH  17  18
HETATM   18  O   UNL     1      -9.604   8.514  67.373  1.00  0.00    -0.148 OA 
BRANCH  18  19
HETATM   19  C   UNL     1     -10.536   7.490  67.704  1.00  0.00    -0.250 C  
BRANCH  19  20
HETATM   20  C   UNL     1      -9.899   6.096  67.622  1.00  0.00    -0.120 C  
BRANCH  20  21
HETATM   21  N   UNL     1      -9.107   5.656  68.862  1.00  0.00    -0.114 N  
HETATM   22  C   UNL     1      -9.340   4.148  69.022  1.00  0.00    -0.165 C  
HETATM   23  C   UNL     1      -7.615   5.881  68.645  1.00  0.00    -0.090 C  
BRANCH  21  24
HETATM   24  C   UNL     1      -9.620   6.404  70.122  1.00  0.00    -0.160 C  
BRANCH  24  25
HETATM   25  C   UNL     1      -8.560   7.103  70.930  1.00  0.00    -0.138 A  
HETATM   26  C   UNL     1      -8.125   6.551  72.145  1.00  0.00    -0.106 A  
HETATM   27  C   UNL     1      -7.260   7.263  72.973  1.00  0.00    -0.077 A  
HETATM   28  C   UNL     1      -6.805   8.521  72.587  1.00  0.00    -0.069 A  
HETATM   29  C   UNL     1      -7.181   9.054  71.356  1.00  0.00    -0.065 A  
HETATM   30  C   UNL     1      -8.044   8.343  70.523  1.00  0.00    -0.107 A  
ENDBRANCH  24  25
ENDBRANCH  21  24
ENDBRANCH  20  21
ENDBRANCH  19  20
ENDBRANCH  18  19
ENDBRANCH  17  18
ENDBRANCH  16  17
ENDBRANCH  15  16
ENDBRANCH  12  15
ENDBRANCH   6   9
ENDBRANCH   5   6
ENDBRANCH   2   5
TORSDOF 12
ENDMDL
MODEL      265
REMARK 921   NORMALIZED FREE ENERGY PREDICTED BY IDOCK:   -3.18 KCAL/MOL
REMARK 922        TOTAL FREE ENERGY PREDICTED BY IDOCK:   -6.67 KCAL/MOL
REMARK 923 INTER-LIGAND FREE ENERGY PREDICTED BY IDOCK:   -5.75 KCAL/MOL
REMARK 924 INTRA-LIGAND FREE ENERGY PREDICTED BY IDOCK:   -0.93 KCAL/MOL
REMARK 927      BINDING AFFINITY PREDICTED BY RF-SCORE:    0.00 PKD
ROOT
HETATM    1  C   UNL     1      -8.712   7.216  66.606  1.00  0.00    -0.131 C  
HETATM    2  C   UNL     1      -8.404   6.050  67.554  1.00  0.00    -0.108 C  
HETATM    3  C   UNL     1      -9.496   4.977  67.435  1.00  0.00    -0.151 C  
HETATM    4  C   UNL     1      -7.087   5.404  67.045  1.00  0.00    -0.070 C  
ENDROOT
BRANCH   2   5
HETATM    5  C   UNL     1      -8.158   6.506  69.029  1.00  0.00    -0.112 C  
BRANCH   5   6
HETATM    6  C   UNL     1      -8.942   7.667  69.753  1.00  0.00    -0.140 C  
HETATM    7  C   UNL     1      -9.054   7.455  71.280  1.00  0.00    -0.145 C  
HETATM    8  C   UNL     1     -10.380   7.822  69.218  1.00  0.00    -0.220 C  
BRANCH   6   9
HETATM    9  C   UNL     1      -8.124   8.969  69.533  1.00  0.00    -0.105 A  
HETATM   10  C   UNL     1      -6.763   9.088  69.862  1.00  0.00    -0.046 A  
HETATM   11  C   UNL     1      -6.061  10.275  69.643  1.00  0.00    -0.049 A  
HETATM   12  C   UNL     1      -6.702  11.385  69.105  1.00  0.00    -0.106 A  
HETATM   13  C   UNL     1      -8.753  10.113  68.996  1.00  0.00    -0.161 A  
HETATM   14  C   UNL     1      -8.054  11.308  68.790  1.00  0.00    -0.130 A  
BRANCH  12  15
HETATM   15  O   UNL     1      -5.909  12.491  68.969  1.00  0.00    -0.064 OA 
BRANCH  15  16
HETATM   16  C   UNL     1      -6.533  13.743  69.221  1.00  0.00    -0.112 C  
BRANCH  16  17
HETATM   17  C   UNL     1      -6.094  14.719  68.126  1.00  0.00    -0.141 C  
BRANCH  17  18
HETATM   18  O   UNL     1      -6.496  16.080  68.319  1.00  0.00    -0.111 OA 
BRANCH  18  19
HETATM   19  C   UNL     1      -7.342  16.653  67.327  1.00  0.00    -0.171 C  
BRANCH  19  20
HETATM   20  C   UNL     1      -8.477  17.473  67.956  1.00  0.00    -0.242 C  
BRANCH  20  21
HETATM   21  N   UNL     1      -9.863  17.280  67.322  1.00  0.00    -0.260 N  
HETATM   22  C   UNL     1     -10.698  16.474  68.325  1.00  0.00    -0.345 C  
HETATM   23  C   UNL     1     -10.544  18.628  67.117  1.00  0.00    -0.417 C  
BRANCH  21  24
HETATM   24  C   UNL     1      -9.741  16.494  65.989  1.00  0.00    -0.301 C  
BRANCH  24  25
HETATM   25  C   UNL     1     -10.423  15.153  65.970  1.00  0.00    -0.330 A  
HETATM   26  C   UNL     1     -11.815  15.076  65.805  1.00  0.00    -0.029 A  
HETATM   27  C   UNL     1     -12.474  13.855  65.937  1.00  0.00    -0.519 A  
HETATM   28  C   UNL     1     -11.749  12.699  66.215  1.00  0.00    -0.460 A  
HETATM   29  C   UNL     1     -10.361  12.752  66.322  1.00  0.00    -0.271 A  
HETATM   30  C   UNL     1      -9.698  13.971  66.186  1.00  0.00    -0.300 A  
ENDBRANCH  24  25
ENDBRANCH  21  24
ENDBRANCH  20  21
ENDBRANCH  19  20
ENDBRANCH  18  19
ENDBRANCH  17  18
ENDBRANCH  16  17
ENDBRANCH  15  16
ENDBRANCH  12  15
ENDBRANCH   6   9
ENDBRANCH   5   6
ENDBRANCH   2   5
TORSDOF 12
ENDMDL
MODEL      266
REMARK 921   NORMALIZED FREE ENERGY PREDICTED BY IDOCK:   -3.15 KCAL/MOL
REMARK 922        TOTAL FREE ENERGY PREDICTED BY IDOCK:   -6.63 KCAL/MOL
REMARK 923 INTER-LIGAND FREE ENERGY PREDICTED BY IDOCK:   -6.13 KCAL/MOL
REMARK 924 INTRA-LIGAND FREE ENERGY PREDICTED BY IDOCK:   -0.51 KCAL/MOL
REMARK 927      BINDING AFFINITY PREDICTED BY RF-SCORE:    0.00 PKD
ROOT
HETATM    1  C   UNL     1     -10.989   6.169  67.082  1.00  0.00    -0.420 C  
HETATM    2  C   UNL     1      -9.837   5.284  66.588  1.00  0.00    -0.198 C  
HETATM    3  C   UNL     1     -10.326   4.375  65.453  1.00  0.00    -0.238 C  
HETATM    4  C   UNL     1      -8.781   6.240  65.971  1.00  0.00    -0.155 C  
ENDROOT
BRANCH   2   5
HETATM    5  C   UNL     1      -9.132   4.494  67.739  1.00  0.00    -0.142 C  
BRANCH   5   6
HETATM    6  C   UNL     1      -9.101   4.945  69.250  1.00  0.00    -0.145 C  
HETATM    7  C   UNL     1      -8.478   3.881  70.181  1.00  0.00    -0.091 C  
HETATM    8  C   UNL     1     -10.512   5.245  69.798  1.00  0.00    -0.340 C  
BRANCH   6   9
HETATM    9  C   UNL     1      -8.197   6.205  69.328  1.00  0.00    -0.116 A  
HETATM   10  C   UNL     1      -8.691   7.490  69.612  1.00  0.00    -0.137 A  
HETATM   11  C   UNL     1      -7.843   8.598  69.679  1.00  0.00    -0.094 A  
HETATM   12  C   UNL     1      -6.480   8.459  69.448  1.00  0.00    -0.038 A  
HETATM   13  C   UNL     1      -6.811   6.093  69.088  1.00  0.00    -0.062 A  
HETATM   14  C   UNL     1      -5.963   7.205  69.141  1.00  0.00    -0.022 A  
BRANCH  12  15
HETATM   15  O   UNL     1      -5.768   9.626  69.515  1.00  0.00    -0.034 OA 
BRANCH  15  16
HETATM   16  C   UNL     1      -6.501  10.784  69.889  1.00  0.00    -0.135 C  
BRANCH  16  17
HETATM   17  C   UNL     1      -6.335  11.827  68.780  1.00  0.00    -0.061 C  
BRANCH  17  18
HETATM   18  O   UNL     1      -7.495  12.620  68.503  1.00  0.00    -0.117 OA 
BRANCH  18  19
HETATM   19  C   UNL     1      -7.287  14.005  68.245  1.00  0.00    -0.115 C  
BRANCH  19  20
HETATM   20  C   UNL     1      -8.402  14.593  67.369  1.00  0.00    -0.206 C  
BRANCH  20  21
HETATM   21  N   UNL     1      -9.242  15.700  68.021  1.00  0.00    -0.184 N  
HETATM   22  C   UNL     1      -9.669  15.177  69.398  1.00  0.00    -0.202 C  
HETATM   23  C   UNL     1      -8.397  16.951  68.233  1.00  0.00    -0.224 C  
BRANCH  21  24
HETATM   24  C   UNL     1     -10.499  16.000  67.161  1.00  0.00    -0.308 C  
BRANCH  24  25
HETATM   25  C   UNL     1     -11.042  14.830  66.386  1.00  0.00    -0.340 A  
HETATM   26  C   UNL     1     -11.894  13.908  67.014  1.00  0.00    -0.447 A  
HETATM   27  C   UNL     1     -12.279  12.742  66.355  1.00  0.00    -0.242 A  
HETATM   28  C   UNL     1     -11.835  12.497  65.059  1.00  0.00    -0.445 A  
HETATM   29  C   UNL     1     -11.038  13.432  64.402  1.00  0.00    -0.408 A  
HETATM   30  C   UNL     1     -10.654  14.602  65.057  1.00  0.00    -0.461 A  
ENDBRANCH  24  25
ENDBRANCH  21  24
ENDBRANCH  20  21
ENDBRANCH  19  20
ENDBRANCH  18  19
ENDBRANCH  17  18
ENDBRANCH  16  17
ENDBRANCH  15  16
ENDBRANCH  12  15
ENDBRANCH   6   9
ENDBRANCH   5   6
ENDBRANCH   2   5
TORSDOF 12
ENDMDL
MODEL      267
REMARK 921   NORMALIZED FREE ENERGY PREDICTED BY IDOCK:   -3.15 KCAL/MOL
REMARK 922        TOTAL FREE ENERGY PREDICTED BY IDOCK:   -6.63 KCAL/MOL
REMARK 923 INTER-LIGAND FREE ENERGY PREDICTED BY IDOCK:   -5.76 KCAL/MOL
REMARK 924 INTRA-LIGAND FREE ENERGY PREDICTED BY IDOCK:   -0.86 KCAL/MOL
REMARK 927      BINDING AFFINITY PREDICTED BY RF-SCORE:    0.00 PKD
ROOT
HETATM    1  C   UNL     1      -9.379  15.479  69.036  1.00  0.00    -0.235 C  
HETATM    2  C   UNL     1     -10.428  15.330  67.926  1.00  0.00    -0.253 C  
HETATM    3  C   UNL     1     -11.771  14.896  68.530  1.00  0.00    -0.338 C  
HETATM    4  C   UNL     1     -10.644  16.748  67.331  1.00  0.00    -0.291 C  
ENDROOT
BRANCH   2   5
HETATM    5  C   UNL     1      -9.959  14.403  66.757  1.00  0.00    -0.265 C  
BRANCH   5   6
HETATM    6  C   UNL     1     -10.891  13.398  65.978  1.00  0.00    -0.281 C  
HETATM    7  C   UNL     1     -10.649  13.413  64.452  1.00  0.00    -0.423 C  
HETATM    8  C   UNL     1     -12.388  13.703  66.194  1.00  0.00    -0.476 C  
BRANCH   6   9
HETATM    9  C   UNL     1     -10.538  11.971  66.482  1.00  0.00    -0.269 A  
HETATM   10  C   UNL     1     -10.338  10.879  65.619  1.00  0.00    -0.305 A  
HETATM   11  C   UNL     1     -10.016   9.612  66.111  1.00  0.00    -0.346 A  
HETATM   12  C   UNL     1      -9.900   9.394  67.478  1.00  0.00    -0.173 A  
HETATM   13  C   UNL     1     -10.423  11.721  67.865  1.00  0.00    -0.219 A  
HETATM   14  C   UNL     1     -10.115  10.448  68.359  1.00  0.00    -0.181 A  
BRANCH  12  15
HETATM   15  O   UNL     1      -9.610   8.103  67.827  1.00  0.00    -0.146 OA 
BRANCH  15  16
HETATM   16  C   UNL     1     -10.694   7.186  67.788  1.00  0.00    -0.212 C  
BRANCH  16  17
HETATM   17  C   UNL     1     -11.110   6.884  69.230  1.00  0.00    -0.184 C  
BRANCH  17  18
HETATM   18  O   UNL     1     -10.949   5.522  69.645  1.00  0.00    -0.306 OA 
BRANCH  18  19
HETATM   19  C   UNL     1     -10.122   5.284  70.779  1.00  0.00    -0.224 C  
BRANCH  19  20
HETATM   20  C   UNL     1      -8.780   6.020  70.668  1.00  0.00    -0.138 C  
BRANCH  20  21
HETATM   21  N   UNL     1      -7.603   5.177  70.155  1.00  0.00    -0.069 N  
HETATM   22  C   UNL     1      -7.604   3.877  70.969  1.00  0.00    -0.048 C  
HETATM   23  C   UNL     1      -7.809   4.815  68.689  1.00  0.00    -0.077 C  
BRANCH  21  24
HETATM   24  C   UNL     1      -6.264   5.932  70.374  1.00  0.00    -0.031 C  
BRANCH  24  25
HETATM   25  C   UNL     1      -6.219   7.333  69.824  1.00  0.00    -0.031 A  
HETATM   26  C   UNL     1      -6.544   8.421  70.649  1.00  0.00    -0.037 A  
HETATM   27  C   UNL     1      -6.654   9.702  70.113  1.00  0.00    -0.081 A  
HETATM   28  C   UNL     1      -6.420   9.913  68.757  1.00  0.00    -0.045 A  
HETATM   29  C   UNL     1      -6.038   8.851  67.940  1.00  0.00    -0.051 A  
HETATM   30  C   UNL     1      -5.923   7.568  68.473  1.00  0.00    -0.027 A  
ENDBRANCH  24  25
ENDBRANCH  21  24
ENDBRANCH  20  21
ENDBRANCH  19  20
ENDBRANCH  18  19
ENDBRANCH  17  18
ENDBRANCH  16  17
ENDBRANCH  15  16
ENDBRANCH  12  15
ENDBRANCH   6   9
ENDBRANCH   5   6
ENDBRANCH   2   5
TORSDOF 12
ENDMDL
MODEL      268
REMARK 921   NORMALIZED FREE ENERGY PREDICTED BY IDOCK:   -3.14 KCAL/MOL
REMARK 922        TOTAL FREE ENERGY PREDICTED BY IDOCK:   -6.62 KCAL/MOL
REMARK 923 INTER-LIGAND FREE ENERGY PREDICTED BY IDOCK:   -6.41 KCAL/MOL
REMARK 924 INTRA-LIGAND FREE ENERGY PREDICTED BY IDOCK:   -0.21 KCAL/MOL
REMARK 927      BINDING AFFINITY PREDICTED BY RF-SCORE:    0.00 PKD
ROOT
HETATM    1  C   UNL     1      -9.389  15.482  69.062  1.00  0.00    -0.235 C  
HETATM    2  C   UNL     1     -10.503  15.344  68.016  1.00  0.00    -0.257 C  
HETATM    3  C   UNL     1     -11.771  14.783  68.674  1.00  0.00    -0.356 C  
HETATM    4  C   UNL     1     -10.845  16.783  67.544  1.00  0.00    -0.216 C  
ENDROOT
BRANCH   2   5
HETATM    5  C   UNL     1     -10.063  14.534  66.753  1.00  0.00    -0.264 C  
BRANCH   5   6
HETATM    6  C   UNL     1     -10.976  13.503  65.984  1.00  0.00    -0.281 C  
HETATM    7  C   UNL     1     -10.871  13.637  64.448  1.00  0.00    -0.374 C  
HETATM    8  C   UNL     1     -12.467  13.663  66.344  1.00  0.00    -0.377 C  
BRANCH   6   9
HETATM    9  C   UNL     1     -10.465  12.083  66.354  1.00  0.00    -0.267 A  
HETATM   10  C   UNL     1      -9.373  11.468  65.716  1.00  0.00    -0.238 A  
HETATM   11  C   UNL     1      -8.941  10.192  66.081  1.00  0.00    -0.171 A  
HETATM   12  C   UNL     1      -9.595   9.485  67.083  1.00  0.00    -0.160 A  
HETATM   13  C   UNL     1     -11.117  11.341  67.361  1.00  0.00    -0.358 A  
HETATM   14  C   UNL     1     -10.693  10.056  67.718  1.00  0.00    -0.333 A  
BRANCH  12  15
HETATM   15  O   UNL     1      -9.089   8.236  67.323  1.00  0.00    -0.134 OA 
BRANCH  15  16
HETATM   16  C   UNL     1      -9.390   7.243  66.353  1.00  0.00    -0.150 C  
BRANCH  16  17
HETATM   17  C   UNL     1     -10.344   6.230  66.992  1.00  0.00    -0.240 C  
BRANCH  17  18
HETATM   18  O   UNL     1      -9.827   4.901  67.132  1.00  0.00    -0.162 OA 
BRANCH  18  19
HETATM   19  C   UNL     1      -9.858   4.327  68.435  1.00  0.00    -0.034 C  
BRANCH  19  20
HETATM   20  C   UNL     1      -9.368   5.316  69.502  1.00  0.00    -0.130 C  
BRANCH  20  21
HETATM   21  N   UNL     1      -7.897   5.168  69.915  1.00  0.00    -0.074 N  
HETATM   22  C   UNL     1      -7.282   4.113  68.987  1.00  0.00    -0.054 C  
HETATM   23  C   UNL     1      -7.151   6.479  69.697  1.00  0.00    -0.072 C  
BRANCH  21  24
HETATM   24  C   UNL     1      -7.796   4.693  71.389  1.00  0.00    -0.087 C  
BRANCH  24  25
HETATM   25  C   UNL     1      -8.678   5.428  72.363  1.00  0.00    -0.125 A  
HETATM   26  C   UNL     1      -9.944   4.916  72.686  1.00  0.00    -0.210 A  
HETATM   27  C   UNL     1     -10.828   5.662  73.464  1.00  0.00    -0.295 A  
HETATM   28  C   UNL     1     -10.448   6.912  73.943  1.00  0.00    -0.352 A  
HETATM   29  C   UNL     1      -9.172   7.405  73.680  1.00  0.00    -0.291 A  
HETATM   30  C   UNL     1      -8.284   6.661  72.905  1.00  0.00    -0.108 A  
ENDBRANCH  24  25
ENDBRANCH  21  24
ENDBRANCH  20  21
ENDBRANCH  19  20
ENDBRANCH  18  19
ENDBRANCH  17  18
ENDBRANCH  16  17
ENDBRANCH  15  16
ENDBRANCH  12  15
ENDBRANCH   6   9
ENDBRANCH   5   6
ENDBRANCH   2   5
TORSDOF 12
ENDMDL
MODEL      269
REMARK 921   NORMALIZED FREE ENERGY PREDICTED BY IDOCK:   -3.11 KCAL/MOL
REMARK 922        TOTAL FREE ENERGY PREDICTED BY IDOCK:   -6.56 KCAL/MOL
REMARK 923 INTER-LIGAND FREE ENERGY PREDICTED BY IDOCK:   -6.32 KCAL/MOL
REMARK 924 INTRA-LIGAND FREE ENERGY PREDICTED BY IDOCK:   -0.24 KCAL/MOL
REMARK 927      BINDING AFFINITY PREDICTED BY RF-SCORE:    0.00 PKD
ROOT
HETATM    1  C   UNL     1      -6.345  17.387  69.355  1.00  0.00    -0.246 C  
HETATM    2  C   UNL     1      -7.455  17.350  68.297  1.00  0.00    -0.227 C  
HETATM    3  C   UNL     1      -8.045  18.754  68.109  1.00  0.00    -0.327 C  
HETATM    4  C   UNL     1      -6.772  16.970  66.955  1.00  0.00    -0.238 C  
ENDROOT
BRANCH   2   5
HETATM    5  C   UNL     1      -8.544  16.266  68.586  1.00  0.00    -0.222 C  
BRANCH   5   6
HETATM    6  C   UNL     1      -9.961  16.211  67.897  1.00  0.00    -0.239 C  
HETATM    7  C   UNL     1      -9.884  16.298  66.356  1.00  0.00    -0.310 C  
HETATM    8  C   UNL     1     -10.882  17.358  68.362  1.00  0.00    -0.234 C  
BRANCH   6   9
HETATM    9  C   UNL     1     -10.579  14.828  68.245  1.00  0.00    -0.241 A  
HETATM   10  C   UNL     1     -11.582  14.656  69.216  1.00  0.00    -0.335 A  
HETATM   11  C   UNL     1     -12.115  13.397  69.495  1.00  0.00    -0.334 A  
HETATM   12  C   UNL     1     -11.654  12.269  68.826  1.00  0.00    -0.330 A  
HETATM   13  C   UNL     1     -10.122  13.667  67.586  1.00  0.00    -0.242 A  
HETATM   14  C   UNL     1     -10.647  12.403  67.877  1.00  0.00    -0.231 A  
BRANCH  12  15
HETATM   15  O   UNL     1     -12.240  11.096  69.215  1.00  0.00    -0.345 OA 
BRANCH  15  16
HETATM   16  C   UNL     1     -12.537  10.973  70.599  1.00  0.00    -0.338 C  
BRANCH  16  17
HETATM   17  C   UNL     1     -11.529   9.998  71.214  1.00  0.00    -0.314 C  
BRANCH  17  18
HETATM   18  O   UNL     1     -10.927   9.077  70.297  1.00  0.00    -0.237 OA 
BRANCH  18  19
HETATM   19  C   UNL     1      -9.560   8.742  70.519  1.00  0.00    -0.191 C  
BRANCH  19  20
HETATM   20  C   UNL     1      -9.237   7.324  70.029  1.00  0.00    -0.148 C  
BRANCH  20  21
HETATM   21  N   UNL     1      -9.243   6.233  71.110  1.00  0.00    -0.153 N  
HETATM   22  C   UNL     1      -9.785   6.883  72.390  1.00  0.00    -0.153 C  
HETATM   23  C   UNL     1     -10.189   5.104  70.718  1.00  0.00    -0.238 C  
BRANCH  21  24
HETATM   24  C   UNL     1      -7.802   5.711  71.356  1.00  0.00    -0.111 C  
BRANCH  24  25
HETATM   25  C   UNL     1      -7.706   4.280  71.813  1.00  0.00    -0.075 A  
HETATM   26  C   UNL     1      -7.561   3.251  70.870  1.00  0.00    -0.040 A  
HETATM   27  C   UNL     1      -7.624   1.917  71.268  1.00  0.00    -0.036 A  
HETATM   28  C   UNL     1      -7.812   1.598  72.610  1.00  0.00    -0.044 A  
HETATM   29  C   UNL     1      -7.898   2.610  73.564  1.00  0.00    -0.055 A  
HETATM   30  C   UNL     1      -7.831   3.946  73.171  1.00  0.00    -0.083 A  
ENDBRANCH  24  25
ENDBRANCH  21  24
ENDBRANCH  20  21
ENDBRANCH  19  20
ENDBRANCH  18  19
ENDBRANCH  17  18
ENDBRANCH  16  17
ENDBRANCH  15  16
ENDBRANCH  12  15
ENDBRANCH   6   9
ENDBRANCH   5   6
ENDBRANCH   2   5
TORSDOF 12
ENDMDL
MODEL      270
REMARK 921   NORMALIZED FREE ENERGY PREDICTED BY IDOCK:   -3.11 KCAL/MOL
REMARK 922        TOTAL FREE ENERGY PREDICTED BY IDOCK:   -6.55 KCAL/MOL
REMARK 923 INTER-LIGAND FREE ENERGY PREDICTED BY IDOCK:   -6.04 KCAL/MOL
REMARK 924 INTRA-LIGAND FREE ENERGY PREDICTED BY IDOCK:   -0.51 KCAL/MOL
REMARK 927      BINDING AFFINITY PREDICTED BY RF-SCORE:    0.00 PKD
ROOT
HETATM    1  C   UNL     1     -11.152  15.751  67.571  1.00  0.00    -0.258 C  
HETATM    2  C   UNL     1     -10.508  14.485  68.151  1.00  0.00    -0.239 C  
HETATM    3  C   UNL     1      -9.293  14.863  69.009  1.00  0.00    -0.179 C  
HETATM    4  C   UNL     1     -11.555  13.859  69.111  1.00  0.00    -0.359 C  
ENDROOT
BRANCH   2   5
HETATM    5  C   UNL     1     -10.175  13.411  67.064  1.00  0.00    -0.249 C  
BRANCH   5   6
HETATM    6  C   UNL     1     -10.853  13.332  65.643  1.00  0.00    -0.291 C  
HETATM    7  C   UNL     1     -10.604  14.594  64.787  1.00  0.00    -0.379 C  
HETATM    8  C   UNL     1     -12.382  13.151  65.735  1.00  0.00    -0.496 C  
BRANCH   6   9
HETATM    9  C   UNL     1     -10.198  12.138  64.896  1.00  0.00    -0.309 A  
HETATM   10  C   UNL     1      -9.599  11.051  65.557  1.00  0.00    -0.263 A  
HETATM   11  C   UNL     1      -9.025   9.994  64.849  1.00  0.00    -0.241 A  
HETATM   12  C   UNL     1      -9.016   9.996  63.460  1.00  0.00    -0.256 A  
HETATM   13  C   UNL     1     -10.167  12.121  63.485  1.00  0.00    -0.453 A  
HETATM   14  C   UNL     1      -9.579  11.068  62.775  1.00  0.00    -0.337 A  
BRANCH  12  15
HETATM   15  O   UNL     1      -8.398   8.917  62.891  1.00  0.00    -0.185 OA 
BRANCH  15  16
HETATM   16  C   UNL     1      -7.864   7.956  63.791  1.00  0.00    -0.141 C  
BRANCH  16  17
HETATM   17  C   UNL     1      -6.341   8.116  63.804  1.00  0.00    -0.071 C  
BRANCH  17  18
HETATM   18  O   UNL     1      -5.717   7.955  65.084  1.00  0.00    -0.037 OA 
BRANCH  18  19
HETATM   19  C   UNL     1      -6.319   7.035  65.988  1.00  0.00    -0.046 C  
BRANCH  19  20
HETATM   20  C   UNL     1      -6.506   7.650  67.382  1.00  0.00    -0.058 C  
BRANCH  20  21
HETATM   21  N   UNL     1      -7.701   7.116  68.186  1.00  0.00    -0.114 N  
HETATM   22  C   UNL     1      -8.102   8.223  69.169  1.00  0.00    -0.120 C  
HETATM   23  C   UNL     1      -8.885   6.853  67.264  1.00  0.00    -0.118 C  
BRANCH  21  24
HETATM   24  C   UNL     1      -7.294   5.839  68.971  1.00  0.00    -0.083 C  
BRANCH  24  25
HETATM   25  C   UNL     1      -7.791   4.543  68.390  1.00  0.00    -0.079 A  
HETATM   26  C   UNL     1      -7.089   3.929  67.341  1.00  0.00    -0.063 A  
HETATM   27  C   UNL     1      -7.620   2.814  66.696  1.00  0.00    -0.075 A  
HETATM   28  C   UNL     1      -8.843   2.290  67.104  1.00  0.00    -0.153 A  
HETATM   29  C   UNL     1      -9.521   2.853  68.183  1.00  0.00    -0.220 A  
HETATM   30  C   UNL     1      -8.992   3.967  68.834  1.00  0.00    -0.168 A  
ENDBRANCH  24  25
ENDBRANCH  21  24
ENDBRANCH  20  21
ENDBRANCH  19  20
ENDBRANCH  18  19
ENDBRANCH  17  18
ENDBRANCH  16  17
ENDBRANCH  15  16
ENDBRANCH  12  15
ENDBRANCH   6   9
ENDBRANCH   5   6
ENDBRANCH   2   5
TORSDOF 12
ENDMDL
MODEL      271
REMARK 921   NORMALIZED FREE ENERGY PREDICTED BY IDOCK:   -3.08 KCAL/MOL
REMARK 922        TOTAL FREE ENERGY PREDICTED BY IDOCK:   -6.50 KCAL/MOL
REMARK 923 INTER-LIGAND FREE ENERGY PREDICTED BY IDOCK:   -6.38 KCAL/MOL
REMARK 924 INTRA-LIGAND FREE ENERGY PREDICTED BY IDOCK:   -0.12 KCAL/MOL
REMARK 927      BINDING AFFINITY PREDICTED BY RF-SCORE:    0.00 PKD
ROOT
HETATM    1  C   UNL     1      -9.305  15.174  66.069  1.00  0.00    -0.326 C  
HETATM    2  C   UNL     1      -8.648  14.882  67.425  1.00  0.00    -0.208 C  
HETATM    3  C   UNL     1      -7.368  14.061  67.218  1.00  0.00    -0.022 C  
HETATM    4  C   UNL     1      -8.208  16.254  68.005  1.00  0.00    -0.157 C  
ENDROOT
BRANCH   2   5
HETATM    5  C   UNL     1      -9.628  14.234  68.456  1.00  0.00    -0.220 C  
BRANCH   5   6
HETATM    6  C   UNL     1     -10.995  13.543  68.084  1.00  0.00    -0.275 C  
HETATM    7  C   UNL     1     -11.016  12.991  66.641  1.00  0.00    -0.301 C  
HETATM    8  C   UNL     1     -12.190  14.510  68.207  1.00  0.00    -0.126 C  
BRANCH   6   9
HETATM    9  C   UNL     1     -11.163  12.329  69.039  1.00  0.00    -0.319 A  
HETATM   10  C   UNL     1     -12.228  12.208  69.949  1.00  0.00    -0.240 A  
HETATM   11  C   UNL     1     -12.347  11.098  70.787  1.00  0.00    -0.504 A  
HETATM   12  C   UNL     1     -11.399  10.083  70.754  1.00  0.00    -0.360 A  
HETATM   13  C   UNL     1     -10.209  11.290  69.031  1.00  0.00    -0.169 A  
HETATM   14  C   UNL     1     -10.320  10.184  69.881  1.00  0.00    -0.308 A  
BRANCH  12  15
HETATM   15  O   UNL     1     -11.617   9.069  71.645  1.00  0.00    -0.307 OA 
BRANCH  15  16
HETATM   16  C   UNL     1     -12.861   8.392  71.530  1.00  0.00    -0.303 C  
BRANCH  16  17
HETATM   17  C   UNL     1     -12.595   7.012  70.926  1.00  0.00    -0.221 C  
BRANCH  17  18
HETATM   18  O   UNL     1     -11.214   6.657  70.787  1.00  0.00    -0.274 OA 
BRANCH  18  19
HETATM   19  C   UNL     1     -10.630   6.814  69.498  1.00  0.00    -0.232 C  
BRANCH  19  20
HETATM   20  C   UNL     1     -10.588   5.487  68.728  1.00  0.00    -0.166 C  
BRANCH  20  21
HETATM   21  N   UNL     1      -9.186   4.980  68.359  1.00  0.00    -0.115 N  
HETATM   22  C   UNL     1      -8.208   5.631  69.345  1.00  0.00    -0.103 C  
HETATM   23  C   UNL     1      -9.104   3.469  68.542  1.00  0.00    -0.147 C  
BRANCH  21  24
HETATM   24  C   UNL     1      -8.826   5.399  66.908  1.00  0.00    -0.111 C  
BRANCH  24  25
HETATM   25  C   UNL     1      -9.140   4.378  65.848  1.00  0.00    -0.133 A  
HETATM   26  C   UNL     1      -8.175   3.428  65.480  1.00  0.00    -0.097 A  
HETATM   27  C   UNL     1      -8.397   2.579  64.399  1.00  0.00    -0.083 A  
HETATM   28  C   UNL     1      -9.592   2.656  63.687  1.00  0.00    -0.113 A  
HETATM   29  C   UNL     1     -10.583   3.554  64.079  1.00  0.00    -0.245 A  
HETATM   30  C   UNL     1     -10.365   4.402  65.164  1.00  0.00    -0.196 A  
ENDBRANCH  24  25
ENDBRANCH  21  24
ENDBRANCH  20  21
ENDBRANCH  19  20
ENDBRANCH  18  19
ENDBRANCH  17  18
ENDBRANCH  16  17
ENDBRANCH  15  16
ENDBRANCH  12  15
ENDBRANCH   6   9
ENDBRANCH   5   6
ENDBRANCH   2   5
TORSDOF 12
ENDMDL
MODEL      272
REMARK 921   NORMALIZED FREE ENERGY PREDICTED BY IDOCK:   -3.05 KCAL/MOL
REMARK 922        TOTAL FREE ENERGY PREDICTED BY IDOCK:   -6.45 KCAL/MOL
REMARK 923 INTER-LIGAND FREE ENERGY PREDICTED BY IDOCK:   -5.62 KCAL/MOL
REMARK 924 INTRA-LIGAND FREE ENERGY PREDICTED BY IDOCK:   -0.83 KCAL/MOL
REMARK 927      BINDING AFFINITY PREDICTED BY RF-SCORE:    0.00 PKD
ROOT
HETATM    1  C   UNL     1     -10.259  13.121  64.545  1.00  0.00    -0.333 C  
HETATM    2  C   UNL     1     -10.108  12.005  65.588  1.00  0.00    -0.272 C  
HETATM    3  C   UNL     1     -11.276  11.017  65.469  1.00  0.00     0.105 C  
HETATM    4  C   UNL     1      -8.821  11.222  65.210  1.00  0.00    -0.015 C  
ENDROOT
BRANCH   2   5
HETATM    5  C   UNL     1      -9.913  12.545  67.042  1.00  0.00    -0.217 C  
BRANCH   5   6
HETATM    6  C   UNL     1     -10.985  13.380  67.841  1.00  0.00    -0.276 C  
HETATM    7  C   UNL     1     -12.105  13.941  66.937  1.00  0.00    -0.467 C  
HETATM    8  C   UNL     1     -10.359  14.585  68.573  1.00  0.00    -0.242 C  
BRANCH   6   9
HETATM    9  C   UNL     1     -11.656  12.407  68.849  1.00  0.00    -0.364 A  
HETATM   10  C   UNL     1     -11.975  11.074  68.535  1.00  0.00    -0.206 A  
HETATM   11  C   UNL     1     -12.573  10.229  69.471  1.00  0.00     0.398 A  
HETATM   12  C   UNL     1     -12.888  10.692  70.742  1.00  0.00    -0.352 A  
HETATM   13  C   UNL     1     -11.994  12.856  70.143  1.00  0.00    -0.373 A  
HETATM   14  C   UNL     1     -12.607  12.013  71.077  1.00  0.00    -0.370 A  
BRANCH  12  15
HETATM   15  O   UNL     1     -13.497   9.772  71.551  1.00  0.00    -0.373 OA 
BRANCH  15  16
HETATM   16  C   UNL     1     -12.700   9.235  72.598  1.00  0.00    -0.136 C  
BRANCH  16  17
HETATM   17  C   UNL     1     -11.530   8.480  71.962  1.00  0.00    -0.361 C  
BRANCH  17  18
HETATM   18  O   UNL     1     -11.747   7.081  71.743  1.00  0.00    -0.271 OA 
BRANCH  18  19
HETATM   19  C   UNL     1     -11.501   6.584  70.431  1.00  0.00    -0.404 C  
BRANCH  19  20
HETATM   20  C   UNL     1     -10.065   6.065  70.281  1.00  0.00    -0.194 C  
BRANCH  20  21
HETATM   21  N   UNL     1      -9.358   6.444  68.971  1.00  0.00    -0.128 N  
HETATM   22  C   UNL     1      -9.751   5.384  67.934  1.00  0.00    -0.136 C  
HETATM   23  C   UNL     1      -9.854   7.797  68.474  1.00  0.00    -0.172 C  
BRANCH  21  24
HETATM   24  C   UNL     1      -7.818   6.439  69.169  1.00  0.00    -0.109 C  
BRANCH  24  25
HETATM   25  C   UNL     1      -7.049   7.346  68.247  1.00  0.00    -0.084 A  
HETATM   26  C   UNL     1      -6.601   8.596  68.705  1.00  0.00    -0.055 A  
HETATM   27  C   UNL     1      -6.024   9.504  67.821  1.00  0.00    -0.052 A  
HETATM   28  C   UNL     1      -5.869   9.168  66.479  1.00  0.00    -0.058 A  
HETATM   29  C   UNL     1      -6.254   7.909  66.024  1.00  0.00    -0.042 A  
HETATM   30  C   UNL     1      -6.829   6.994  66.907  1.00  0.00    -0.064 A  
ENDBRANCH  24  25
ENDBRANCH  21  24
ENDBRANCH  20  21
ENDBRANCH  19  20
ENDBRANCH  18  19
ENDBRANCH  17  18
ENDBRANCH  16  17
ENDBRANCH  15  16
ENDBRANCH  12  15
ENDBRANCH   6   9
ENDBRANCH   5   6
ENDBRANCH   2   5
TORSDOF 12
ENDMDL
MODEL      273
REMARK 921   NORMALIZED FREE ENERGY PREDICTED BY IDOCK:   -3.04 KCAL/MOL
REMARK 922        TOTAL FREE ENERGY PREDICTED BY IDOCK:   -6.44 KCAL/MOL
REMARK 923 INTER-LIGAND FREE ENERGY PREDICTED BY IDOCK:   -5.77 KCAL/MOL
REMARK 924 INTRA-LIGAND FREE ENERGY PREDICTED BY IDOCK:   -0.67 KCAL/MOL
REMARK 927      BINDING AFFINITY PREDICTED BY RF-SCORE:    0.00 PKD
ROOT
HETATM    1  C   UNL     1     -11.190   8.500  71.313  1.00  0.00    -0.321 C  
HETATM    2  C   UNL     1     -11.732   7.065  71.318  1.00  0.00    -0.356 C  
HETATM    3  C   UNL     1     -13.209   7.066  71.736  1.00  0.00    -0.326 C  
HETATM    4  C   UNL     1     -11.686   6.571  69.847  1.00  0.00    -0.349 C  
ENDROOT
BRANCH   2   5
HETATM    5  C   UNL     1     -10.860   6.081  72.165  1.00  0.00    -0.297 C  
BRANCH   5   6
HETATM    6  C   UNL     1      -9.412   6.400  72.702  1.00  0.00    -0.150 C  
HETATM    7  C   UNL     1      -8.815   5.247  73.541  1.00  0.00    -0.116 C  
HETATM    8  C   UNL     1      -9.384   7.659  73.593  1.00  0.00    -0.344 C  
BRANCH   6   9
HETATM    9  C   UNL     1      -8.498   6.579  71.459  1.00  0.00    -0.125 A  
HETATM   10  C   UNL     1      -8.392   5.619  70.437  1.00  0.00    -0.119 A  
HETATM   11  C   UNL     1      -7.563   5.820  69.332  1.00  0.00    -0.088 A  
HETATM   12  C   UNL     1      -6.802   6.978  69.221  1.00  0.00    -0.054 A  
HETATM   13  C   UNL     1      -7.709   7.741  71.327  1.00  0.00    -0.085 A  
HETATM   14  C   UNL     1      -6.866   7.937  70.227  1.00  0.00    -0.038 A  
BRANCH  12  15
HETATM   15  O   UNL     1      -6.012   7.036  68.106  1.00  0.00    -0.026 OA 
BRANCH  15  16
HETATM   16  C   UNL     1      -6.011   8.272  67.405  1.00  0.00    -0.047 C  
BRANCH  16  17
HETATM   17  C   UNL     1      -7.326   8.377  66.629  1.00  0.00    -0.082 C  
BRANCH  17  18
HETATM   18  O   UNL     1      -8.244   9.368  67.106  1.00  0.00    -0.112 OA 
BRANCH  18  19
HETATM   19  C   UNL     1      -7.793  10.719  67.115  1.00  0.00    -0.124 C  
BRANCH  19  20
HETATM   20  C   UNL     1      -8.569  11.583  66.111  1.00  0.00    -0.094 C  
BRANCH  20  21
HETATM   21  N   UNL     1      -9.880  12.188  66.633  1.00  0.00    -0.207 N  
HETATM   22  C   UNL     1     -11.020  11.469  65.900  1.00  0.00    -0.243 C  
HETATM   23  C   UNL     1     -10.033  11.915  68.124  1.00  0.00    -0.197 C  
BRANCH  21  24
HETATM   24  C   UNL     1      -9.933  13.708  66.322  1.00  0.00    -0.300 C  
BRANCH  24  25
HETATM   25  C   UNL     1     -10.055  14.605  67.524  1.00  0.00    -0.224 A  
HETATM   26  C   UNL     1      -8.907  14.979  68.240  1.00  0.00    -0.172 A  
HETATM   27  C   UNL     1      -9.021  15.681  69.438  1.00  0.00    -0.265 A  
HETATM   28  C   UNL     1     -10.277  16.033  69.922  1.00  0.00    -0.188 A  
HETATM   29  C   UNL     1     -11.422  15.721  69.191  1.00  0.00    -0.383 A  
HETATM   30  C   UNL     1     -11.312  15.022  67.989  1.00  0.00    -0.339 A  
ENDBRANCH  24  25
ENDBRANCH  21  24
ENDBRANCH  20  21
ENDBRANCH  19  20
ENDBRANCH  18  19
ENDBRANCH  17  18
ENDBRANCH  16  17
ENDBRANCH  15  16
ENDBRANCH  12  15
ENDBRANCH   6   9
ENDBRANCH   5   6
ENDBRANCH   2   5
TORSDOF 12
ENDMDL
MODEL      274
REMARK 921   NORMALIZED FREE ENERGY PREDICTED BY IDOCK:   -3.03 KCAL/MOL
REMARK 922        TOTAL FREE ENERGY PREDICTED BY IDOCK:   -6.43 KCAL/MOL
REMARK 923 INTER-LIGAND FREE ENERGY PREDICTED BY IDOCK:   -6.20 KCAL/MOL
REMARK 924 INTRA-LIGAND FREE ENERGY PREDICTED BY IDOCK:   -0.23 KCAL/MOL
REMARK 927      BINDING AFFINITY PREDICTED BY RF-SCORE:    0.00 PKD
ROOT
HETATM    1  C   UNL     1      -6.345  17.387  69.355  1.00  0.00    -0.246 C  
HETATM    2  C   UNL     1      -7.455  17.350  68.297  1.00  0.00    -0.227 C  
HETATM    3  C   UNL     1      -8.045  18.754  68.109  1.00  0.00    -0.327 C  
HETATM    4  C   UNL     1      -6.772  16.970  66.955  1.00  0.00    -0.238 C  
ENDROOT
BRANCH   2   5
HETATM    5  C   UNL     1      -8.544  16.266  68.586  1.00  0.00    -0.222 C  
BRANCH   5   6
HETATM    6  C   UNL     1      -9.961  16.211  67.897  1.00  0.00    -0.239 C  
HETATM    7  C   UNL     1      -9.884  16.298  66.356  1.00  0.00    -0.310 C  
HETATM    8  C   UNL     1     -10.882  17.358  68.362  1.00  0.00    -0.234 C  
BRANCH   6   9
HETATM    9  C   UNL     1     -10.579  14.828  68.245  1.00  0.00    -0.241 A  
HETATM   10  C   UNL     1     -11.582  14.656  69.216  1.00  0.00    -0.335 A  
HETATM   11  C   UNL     1     -12.115  13.397  69.495  1.00  0.00    -0.334 A  
HETATM   12  C   UNL     1     -11.654  12.269  68.826  1.00  0.00    -0.330 A  
HETATM   13  C   UNL     1     -10.122  13.667  67.586  1.00  0.00    -0.242 A  
HETATM   14  C   UNL     1     -10.647  12.403  67.877  1.00  0.00    -0.231 A  
BRANCH  12  15
HETATM   15  O   UNL     1     -12.240  11.096  69.215  1.00  0.00    -0.345 OA 
BRANCH  15  16
HETATM   16  C   UNL     1     -12.537  10.973  70.599  1.00  0.00    -0.338 C  
BRANCH  16  17
HETATM   17  C   UNL     1     -11.529   9.998  71.214  1.00  0.00    -0.314 C  
BRANCH  17  18
HETATM   18  O   UNL     1     -10.927   9.077  70.297  1.00  0.00    -0.237 OA 
BRANCH  18  19
HETATM   19  C   UNL     1      -9.560   8.742  70.519  1.00  0.00    -0.191 C  
BRANCH  19  20
HETATM   20  C   UNL     1      -9.237   7.324  70.029  1.00  0.00    -0.148 C  
BRANCH  20  21
HETATM   21  N   UNL     1      -9.243   6.233  71.110  1.00  0.00    -0.153 N  
HETATM   22  C   UNL     1      -9.785   6.883  72.390  1.00  0.00    -0.153 C  
HETATM   23  C   UNL     1     -10.189   5.104  70.718  1.00  0.00    -0.238 C  
BRANCH  21  24
HETATM   24  C   UNL     1      -7.802   5.711  71.356  1.00  0.00    -0.111 C  
BRANCH  24  25
HETATM   25  C   UNL     1      -7.027   5.354  70.117  1.00  0.00    -0.057 A  
HETATM   26  C   UNL     1      -6.215   6.316  69.495  1.00  0.00    -0.033 A  
HETATM   27  C   UNL     1      -5.616   6.045  68.267  1.00  0.00    -0.011 A  
HETATM   28  C   UNL     1      -5.804   4.807  67.659  1.00  0.00    -0.022 A  
HETATM   29  C   UNL     1      -6.558   3.822  68.293  1.00  0.00    -0.045 A  
HETATM   30  C   UNL     1      -7.156   4.088  69.524  1.00  0.00    -0.046 A  
ENDBRANCH  24  25
ENDBRANCH  21  24
ENDBRANCH  20  21
ENDBRANCH  19  20
ENDBRANCH  18  19
ENDBRANCH  17  18
ENDBRANCH  16  17
ENDBRANCH  15  16
ENDBRANCH  12  15
ENDBRANCH   6   9
ENDBRANCH   5   6
ENDBRANCH   2   5
TORSDOF 12
ENDMDL
MODEL      275
REMARK 921   NORMALIZED FREE ENERGY PREDICTED BY IDOCK:   -3.03 KCAL/MOL
REMARK 922        TOTAL FREE ENERGY PREDICTED BY IDOCK:   -6.42 KCAL/MOL
REMARK 923 INTER-LIGAND FREE ENERGY PREDICTED BY IDOCK:   -6.68 KCAL/MOL
REMARK 924 INTRA-LIGAND FREE ENERGY PREDICTED BY IDOCK:    0.26 KCAL/MOL
REMARK 927      BINDING AFFINITY PREDICTED BY RF-SCORE:    0.00 PKD
ROOT
HETATM    1  C   UNL     1     -11.029   6.273  67.122  1.00  0.00    -0.453 C  
HETATM    2  C   UNL     1      -9.650   5.748  67.544  1.00  0.00    -0.118 C  
HETATM    3  C   UNL     1      -9.476   4.299  67.070  1.00  0.00    -0.205 C  
HETATM    4  C   UNL     1      -8.602   6.597  66.776  1.00  0.00    -0.118 C  
ENDROOT
BRANCH   2   5
HETATM    5  C   UNL     1      -9.365   5.928  69.070  1.00  0.00    -0.138 C  
BRANCH   5   6
HETATM    6  C   UNL     1     -10.112   6.952  70.009  1.00  0.00    -0.195 C  
HETATM    7  C   UNL     1      -9.819   6.717  71.508  1.00  0.00    -0.179 C  
HETATM    8  C   UNL     1     -11.644   6.889  69.840  1.00  0.00    -0.255 C  
BRANCH   6   9
HETATM    9  C   UNL     1      -9.573   8.365  69.655  1.00  0.00    -0.163 A  
HETATM   10  C   UNL     1     -10.405   9.432  69.272  1.00  0.00    -0.217 A  
HETATM   11  C   UNL     1      -9.882  10.690  68.967  1.00  0.00    -0.218 A  
HETATM   12  C   UNL     1      -8.512  10.917  69.019  1.00  0.00    -0.105 A  
HETATM   13  C   UNL     1      -8.186   8.619  69.691  1.00  0.00    -0.114 A  
HETATM   14  C   UNL     1      -7.660   9.876  69.371  1.00  0.00    -0.113 A  
BRANCH  12  15
HETATM   15  O   UNL     1      -8.130  12.183  68.669  1.00  0.00    -0.127 OA 
BRANCH  15  16
HETATM   16  C   UNL     1      -9.180  13.100  68.393  1.00  0.00    -0.141 C  
BRANCH  16  17
HETATM   17  C   UNL     1      -9.269  13.273  66.875  1.00  0.00    -0.241 C  
BRANCH  17  18
HETATM   18  O   UNL     1     -10.021  14.408  66.428  1.00  0.00    -0.272 OA 
BRANCH  18  19
HETATM   19  C   UNL     1      -9.289  15.486  65.853  1.00  0.00    -0.319 C  
BRANCH  19  20
HETATM   20  C   UNL     1     -10.089  16.796  65.887  1.00  0.00    -0.304 C  
BRANCH  20  21
HETATM   21  N   UNL     1      -9.766  17.738  67.055  1.00  0.00    -0.279 N  
HETATM   22  C   UNL     1     -10.174  19.148  66.611  1.00  0.00    -0.411 C  
HETATM   23  C   UNL     1     -10.599  17.370  68.278  1.00  0.00    -0.366 C  
BRANCH  21  24
HETATM   24  C   UNL     1      -8.246  17.706  67.370  1.00  0.00    -0.212 C  
BRANCH  24  25
HETATM   25  C   UNL     1      -7.365  18.377  66.351  1.00  0.00    -0.279 A  
HETATM   26  C   UNL     1      -6.332  17.656  65.732  1.00  0.00    -0.142 A  
HETATM   27  C   UNL     1      -5.417  18.304  64.906  1.00  0.00    -0.105 A  
HETATM   28  C   UNL     1      -5.536  19.672  64.673  1.00  0.00    -0.248 A  
HETATM   29  C   UNL     1      -6.592  20.388  65.233  1.00  0.00    -0.312 A  
HETATM   30  C   UNL     1      -7.512  19.742  66.058  1.00  0.00    -0.330 A  
ENDBRANCH  24  25
ENDBRANCH  21  24
ENDBRANCH  20  21
ENDBRANCH  19  20
ENDBRANCH  18  19
ENDBRANCH  17  18
ENDBRANCH  16  17
ENDBRANCH  15  16
ENDBRANCH  12  15
ENDBRANCH   6   9
ENDBRANCH   5   6
ENDBRANCH   2   5
TORSDOF 12
ENDMDL
MODEL      276
REMARK 921   NORMALIZED FREE ENERGY PREDICTED BY IDOCK:   -3.02 KCAL/MOL
REMARK 922        TOTAL FREE ENERGY PREDICTED BY IDOCK:   -6.41 KCAL/MOL
REMARK 923 INTER-LIGAND FREE ENERGY PREDICTED BY IDOCK:   -6.17 KCAL/MOL
REMARK 924 INTRA-LIGAND FREE ENERGY PREDICTED BY IDOCK:   -0.24 KCAL/MOL
REMARK 927      BINDING AFFINITY PREDICTED BY RF-SCORE:    0.00 PKD
ROOT
HETATM    1  C   UNL     1     -11.630  14.890  67.482  1.00  0.00    -0.355 C  
HETATM    2  C   UNL     1     -11.210  13.490  67.946  1.00  0.00    -0.302 C  
HETATM    3  C   UNL     1      -9.697  13.457  68.205  1.00  0.00    -0.226 C  
HETATM    4  C   UNL     1     -11.902  13.254  69.316  1.00  0.00    -0.383 C  
ENDROOT
BRANCH   2   5
HETATM    5  C   UNL     1     -11.686  12.354  66.983  1.00  0.00    -0.423 C  
BRANCH   5   6
HETATM    6  C   UNL     1     -11.153  12.139  65.515  1.00  0.00    -0.361 C  
HETATM    7  C   UNL     1     -10.164  13.238  65.068  1.00  0.00    -0.313 C  
HETATM    8  C   UNL     1     -12.294  12.118  64.477  1.00  0.00    -0.395 C  
BRANCH   6   9
HETATM    9  C   UNL     1     -10.374  10.795  65.509  1.00  0.00    -0.308 A  
HETATM   10  C   UNL     1      -9.730  10.284  64.369  1.00  0.00    -0.381 A  
HETATM   11  C   UNL     1      -9.035   9.074  64.405  1.00  0.00    -0.034 A  
HETATM   12  C   UNL     1      -8.975   8.329  65.577  1.00  0.00    -0.064 A  
HETATM   13  C   UNL     1     -10.306  10.015  66.683  1.00  0.00    -0.281 A  
HETATM   14  C   UNL     1      -9.621   8.795  66.717  1.00  0.00    -0.267 A  
BRANCH  12  15
HETATM   15  O   UNL     1      -8.287   7.151  65.470  1.00  0.00    -0.131 OA 
BRANCH  15  16
HETATM   16  C   UNL     1      -7.013   7.111  66.097  1.00  0.00    -0.065 C  
BRANCH  16  17
HETATM   17  C   UNL     1      -6.835   5.724  66.719  1.00  0.00    -0.063 C  
BRANCH  17  18
HETATM   18  O   UNL     1      -7.794   5.372  67.723  1.00  0.00    -0.095 OA 
BRANCH  18  19
HETATM   19  C   UNL     1      -8.296   4.040  67.702  1.00  0.00    -0.094 C  
BRANCH  19  20
HETATM   20  C   UNL     1      -8.727   3.573  69.099  1.00  0.00    -0.089 C  
BRANCH  20  21
HETATM   21  N   UNL     1      -7.583   3.209  70.057  1.00  0.00    -0.044 N  
HETATM   22  C   UNL     1      -7.725   1.713  70.366  1.00  0.00    -0.035 C  
HETATM   23  C   UNL     1      -6.235   3.423  69.378  1.00  0.00    -0.028 C  
BRANCH  21  24
HETATM   24  C   UNL     1      -7.697   4.029  71.369  1.00  0.00    -0.064 C  
BRANCH  24  25
HETATM   25  C   UNL     1      -9.082   4.121  71.952  1.00  0.00    -0.165 A  
HETATM   26  C   UNL     1      -9.848   5.281  71.761  1.00  0.00    -0.222 A  
HETATM   27  C   UNL     1     -11.065   5.438  72.420  1.00  0.00    -0.289 A  
HETATM   28  C   UNL     1     -11.538   4.432  73.258  1.00  0.00    -0.218 A  
HETATM   29  C   UNL     1     -10.816   3.251  73.410  1.00  0.00    -0.307 A  
HETATM   30  C   UNL     1      -9.599   3.088  72.748  1.00  0.00    -0.167 A  
ENDBRANCH  24  25
ENDBRANCH  21  24
ENDBRANCH  20  21
ENDBRANCH  19  20
ENDBRANCH  18  19
ENDBRANCH  17  18
ENDBRANCH  16  17
ENDBRANCH  15  16
ENDBRANCH  12  15
ENDBRANCH   6   9
ENDBRANCH   5   6
ENDBRANCH   2   5
TORSDOF 12
ENDMDL
MODEL      277
REMARK 921   NORMALIZED FREE ENERGY PREDICTED BY IDOCK:   -2.95 KCAL/MOL
REMARK 922        TOTAL FREE ENERGY PREDICTED BY IDOCK:   -6.28 KCAL/MOL
REMARK 923 INTER-LIGAND FREE ENERGY PREDICTED BY IDOCK:   -6.84 KCAL/MOL
REMARK 924 INTRA-LIGAND FREE ENERGY PREDICTED BY IDOCK:    0.55 KCAL/MOL
REMARK 927      BINDING AFFINITY PREDICTED BY RF-SCORE:    0.00 PKD
ROOT
HETATM    1  C   UNL     1     -10.799  19.521  67.589  1.00  0.00    -0.442 C  
HETATM    2  C   UNL     1      -9.432  18.824  67.553  1.00  0.00    -0.326 C  
HETATM    3  C   UNL     1      -8.807  18.971  66.159  1.00  0.00    -0.194 C  
HETATM    4  C   UNL     1      -8.516  19.602  68.537  1.00  0.00    -0.334 C  
ENDROOT
BRANCH   2   5
HETATM    5  C   UNL     1      -9.486  17.341  68.043  1.00  0.00    -0.271 C  
BRANCH   5   6
HETATM    6  C   UNL     1      -8.406  16.243  67.703  1.00  0.00    -0.172 C  
HETATM    7  C   UNL     1      -7.758  15.628  68.964  1.00  0.00    -0.199 C  
HETATM    8  C   UNL     1      -7.257  16.802  66.840  1.00  0.00    -0.258 C  
BRANCH   6   9
HETATM    9  C   UNL     1      -9.146  15.094  66.965  1.00  0.00    -0.249 A  
HETATM   10  C   UNL     1      -9.073  13.749  67.366  1.00  0.00    -0.221 A  
HETATM   11  C   UNL     1      -9.758  12.745  66.678  1.00  0.00    -0.252 A  
HETATM   12  C   UNL     1     -10.523  13.052  65.560  1.00  0.00    -0.285 A  
HETATM   13  C   UNL     1      -9.922  15.378  65.821  1.00  0.00    -0.393 A  
HETATM   14  C   UNL     1     -10.597  14.370  65.123  1.00  0.00    -0.429 A  
BRANCH  12  15
HETATM   15  O   UNL     1     -11.118  11.974  64.963  1.00  0.00    -0.303 OA 
BRANCH  15  16
HETATM   16  C   UNL     1     -10.388  11.362  63.908  1.00  0.00    -0.379 C  
BRANCH  16  17
HETATM   17  C   UNL     1      -9.694  10.120  64.473  1.00  0.00    -0.293 C  
BRANCH  17  18
HETATM   18  O   UNL     1      -8.262  10.145  64.434  1.00  0.00    -0.156 OA 
BRANCH  18  19
HETATM   19  C   UNL     1      -7.575   9.830  65.641  1.00  0.00    -0.109 C  
BRANCH  19  20
HETATM   20  C   UNL     1      -8.533   9.300  66.717  1.00  0.00    -0.127 C  
BRANCH  20  21
HETATM   21  N   UNL     1      -7.895   8.398  67.784  1.00  0.00    -0.106 N  
HETATM   22  C   UNL     1      -6.813   9.233  68.479  1.00  0.00    -0.062 C  
HETATM   23  C   UNL     1      -8.930   8.003  68.831  1.00  0.00    -0.141 C  
BRANCH  21  24
HETATM   24  C   UNL     1      -7.251   7.151  67.120  1.00  0.00    -0.085 C  
BRANCH  24  25
HETATM   25  C   UNL     1      -8.215   6.208  66.452  1.00  0.00    -0.113 A  
HETATM   26  C   UNL     1      -9.588   6.293  66.732  1.00  0.00    -0.183 A  
HETATM   27  C   UNL     1     -10.469   5.332  66.240  1.00  0.00    -0.311 A  
HETATM   28  C   UNL     1      -9.992   4.291  65.449  1.00  0.00    -0.233 A  
HETATM   29  C   UNL     1      -8.641   4.228  65.114  1.00  0.00    -0.123 A  
HETATM   30  C   UNL     1      -7.757   5.190  65.601  1.00  0.00    -0.087 A  
ENDBRANCH  24  25
ENDBRANCH  21  24
ENDBRANCH  20  21
ENDBRANCH  19  20
ENDBRANCH  18  19
ENDBRANCH  17  18
ENDBRANCH  16  17
ENDBRANCH  15  16
ENDBRANCH  12  15
ENDBRANCH   6   9
ENDBRANCH   5   6
ENDBRANCH   2   5
TORSDOF 12
ENDMDL
MODEL      278
REMARK 921   NORMALIZED FREE ENERGY PREDICTED BY IDOCK:   -2.94 KCAL/MOL
REMARK 922        TOTAL FREE ENERGY PREDICTED BY IDOCK:   -6.27 KCAL/MOL
REMARK 923 INTER-LIGAND FREE ENERGY PREDICTED BY IDOCK:   -6.73 KCAL/MOL
REMARK 924 INTRA-LIGAND FREE ENERGY PREDICTED BY IDOCK:    0.45 KCAL/MOL
REMARK 927      BINDING AFFINITY PREDICTED BY RF-SCORE:    0.00 PKD
ROOT
HETATM    1  C   UNL     1     -11.181  16.299  68.615  1.00  0.00    -0.354 C  
HETATM    2  C   UNL     1     -10.282  15.129  68.194  1.00  0.00    -0.227 C  
HETATM    3  C   UNL     1      -8.920  15.239  68.894  1.00  0.00    -0.209 C  
HETATM    4  C   UNL     1     -10.956  13.838  68.732  1.00  0.00    -0.289 C  
ENDROOT
BRANCH   2   5
HETATM    5  C   UNL     1     -10.158  14.976  66.643  1.00  0.00    -0.267 C  
BRANCH   5   6
HETATM    6  C   UNL     1     -11.228  14.274  65.722  1.00  0.00    -0.317 C  
HETATM    7  C   UNL     1     -11.640  15.140  64.510  1.00  0.00    -0.330 C  
HETATM    8  C   UNL     1     -12.525  13.935  66.487  1.00  0.00    -0.364 C  
BRANCH   6   9
HETATM    9  C   UNL     1     -10.565  12.987  65.158  1.00  0.00    -0.327 A  
HETATM   10  C   UNL     1      -9.662  12.201  65.895  1.00  0.00    -0.253 A  
HETATM   11  C   UNL     1      -9.090  11.048  65.355  1.00  0.00    -0.213 A  
HETATM   12  C   UNL     1      -9.390  10.653  64.057  1.00  0.00    -0.266 A  
HETATM   13  C   UNL     1     -10.846  12.570  63.840  1.00  0.00    -0.472 A  
HETATM   14  C   UNL     1     -10.262  11.422  63.292  1.00  0.00    -0.430 A  
BRANCH  12  15
HETATM   15  O   UNL     1      -8.742   9.523  63.639  1.00  0.00    -0.207 OA 
BRANCH  15  16
HETATM   16  C   UNL     1      -8.505   8.535  64.633  1.00  0.00    -0.108 C  
BRANCH  16  17
HETATM   17  C   UNL     1      -7.055   8.677  65.103  1.00  0.00    -0.086 C  
BRANCH  17  18
HETATM   18  O   UNL     1      -6.705   7.907  66.260  1.00  0.00    -0.053 OA 
BRANCH  18  19
HETATM   19  C   UNL     1      -7.043   6.524  66.245  1.00  0.00    -0.067 C  
BRANCH  19  20
HETATM   20  C   UNL     1      -8.188   6.210  67.219  1.00  0.00    -0.106 C  
BRANCH  20  21
HETATM   21  N   UNL     1      -8.870   4.849  67.021  1.00  0.00    -0.107 N  
HETATM   22  C   UNL     1      -9.313   4.787  65.553  1.00  0.00    -0.159 C  
HETATM   23  C   UNL     1      -7.877   3.718  67.261  1.00  0.00    -0.079 C  
BRANCH  21  24
HETATM   24  C   UNL     1     -10.109   4.727  67.949  1.00  0.00    -0.056 C  
BRANCH  24  25
HETATM   25  C   UNL     1      -9.804   4.647  69.420  1.00  0.00    -0.272 A  
HETATM   26  C   UNL     1      -9.433   3.421  69.995  1.00  0.00    -0.243 A  
HETATM   27  C   UNL     1      -9.298   3.302  71.376  1.00  0.00    -0.206 A  
HETATM   28  C   UNL     1      -9.510   4.408  72.194  1.00  0.00    -0.186 A  
HETATM   29  C   UNL     1      -9.820   5.645  71.632  1.00  0.00    -0.213 A  
HETATM   30  C   UNL     1      -9.952   5.769  70.250  1.00  0.00    -0.258 A  
ENDBRANCH  24  25
ENDBRANCH  21  24
ENDBRANCH  20  21
ENDBRANCH  19  20
ENDBRANCH  18  19
ENDBRANCH  17  18
ENDBRANCH  16  17
ENDBRANCH  15  16
ENDBRANCH  12  15
ENDBRANCH   6   9
ENDBRANCH   5   6
ENDBRANCH   2   5
TORSDOF 12
ENDMDL
MODEL      279
REMARK 921   NORMALIZED FREE ENERGY PREDICTED BY IDOCK:   -2.94 KCAL/MOL
REMARK 922        TOTAL FREE ENERGY PREDICTED BY IDOCK:   -6.27 KCAL/MOL
REMARK 923 INTER-LIGAND FREE ENERGY PREDICTED BY IDOCK:   -6.20 KCAL/MOL
REMARK 924 INTRA-LIGAND FREE ENERGY PREDICTED BY IDOCK:   -0.06 KCAL/MOL
REMARK 927      BINDING AFFINITY PREDICTED BY RF-SCORE:    0.00 PKD
ROOT
HETATM    1  C   UNL     1     -11.595   2.032  73.526  1.00  0.00    -0.294 C  
HETATM    2  C   UNL     1     -10.398   2.975  73.349  1.00  0.00    -0.231 C  
HETATM    3  C   UNL     1      -9.405   2.782  74.503  1.00  0.00    -0.107 C  
HETATM    4  C   UNL     1      -9.669   2.523  72.054  1.00  0.00    -0.212 C  
ENDROOT
BRANCH   2   5
HETATM    5  C   UNL     1     -10.816   4.468  73.149  1.00  0.00    -0.331 C  
BRANCH   5   6
HETATM    6  C   UNL     1      -9.830   5.696  73.236  1.00  0.00    -0.178 C  
HETATM    7  C   UNL     1      -8.343   5.275  73.220  1.00  0.00    -0.111 C  
HETATM    8  C   UNL     1     -10.043   6.527  74.518  1.00  0.00    -0.332 C  
BRANCH   6   9
HETATM    9  C   UNL     1     -10.072   6.561  71.968  1.00  0.00    -0.201 A  
HETATM   10  C   UNL     1     -11.345   7.010  71.575  1.00  0.00    -0.290 A  
HETATM   11  C   UNL     1     -11.521   7.790  70.431  1.00  0.00    -0.171 A  
HETATM   12  C   UNL     1     -10.434   8.133  69.636  1.00  0.00    -0.224 A  
HETATM   13  C   UNL     1      -8.987   6.915  71.140  1.00  0.00    -0.143 A  
HETATM   14  C   UNL     1      -9.164   7.685  69.985  1.00  0.00    -0.151 A  
BRANCH  12  15
HETATM   15  O   UNL     1     -10.747   8.875  68.531  1.00  0.00    -0.178 OA 
BRANCH  15  16
HETATM   16  C   UNL     1     -10.618  10.284  68.666  1.00  0.00    -0.208 C  
BRANCH  16  17
HETATM   17  C   UNL     1     -10.391  10.874  67.272  1.00  0.00    -0.216 C  
BRANCH  17  18
HETATM   18  O   UNL     1      -9.186  11.634  67.114  1.00  0.00    -0.170 OA 
BRANCH  18  19
HETATM   19  C   UNL     1      -8.889  12.593  68.123  1.00  0.00    -0.194 C  
BRANCH  19  20
HETATM   20  C   UNL     1      -9.742  13.860  67.970  1.00  0.00    -0.226 C  
BRANCH  20  21
HETATM   21  N   UNL     1      -8.987  15.189  68.124  1.00  0.00    -0.171 N  
HETATM   22  C   UNL     1     -10.043  16.301  68.098  1.00  0.00    -0.244 C  
HETATM   23  C   UNL     1      -8.279  15.243  69.473  1.00  0.00    -0.188 C  
BRANCH  21  24
HETATM   24  C   UNL     1      -7.992  15.383  66.949  1.00  0.00    -0.195 C  
BRANCH  24  25
HETATM   25  C   UNL     1      -7.317  16.727  66.894  1.00  0.00    -0.257 A  
HETATM   26  C   UNL     1      -7.791  17.714  66.015  1.00  0.00    -0.201 A  
HETATM   27  C   UNL     1      -7.085  18.903  65.845  1.00  0.00    -0.294 A  
HETATM   28  C   UNL     1      -5.913  19.126  66.563  1.00  0.00    -0.178 A  
HETATM   29  C   UNL     1      -5.465  18.181  67.482  1.00  0.00    -0.141 A  
HETATM   30  C   UNL     1      -6.171  16.991  67.659  1.00  0.00    -0.165 A  
ENDBRANCH  24  25
ENDBRANCH  21  24
ENDBRANCH  20  21
ENDBRANCH  19  20
ENDBRANCH  18  19
ENDBRANCH  17  18
ENDBRANCH  16  17
ENDBRANCH  15  16
ENDBRANCH  12  15
ENDBRANCH   6   9
ENDBRANCH   5   6
ENDBRANCH   2   5
TORSDOF 12
ENDMDL
MODEL      280
REMARK 921   NORMALIZED FREE ENERGY PREDICTED BY IDOCK:   -2.94 KCAL/MOL
REMARK 922        TOTAL FREE ENERGY PREDICTED BY IDOCK:   -6.27 KCAL/MOL
REMARK 923 INTER-LIGAND FREE ENERGY PREDICTED BY IDOCK:   -5.78 KCAL/MOL
REMARK 924 INTRA-LIGAND FREE ENERGY PREDICTED BY IDOCK:   -0.49 KCAL/MOL
REMARK 927      BINDING AFFINITY PREDICTED BY RF-SCORE:    0.00 PKD
ROOT
HETATM    1  C   UNL     1      -5.444   4.024  65.708  1.00  0.00    -0.013 C  
HETATM    2  C   UNL     1      -6.254   3.214  66.728  1.00  0.00    -0.025 C  
HETATM    3  C   UNL     1      -6.932   2.026  66.032  1.00  0.00    -0.043 C  
HETATM    4  C   UNL     1      -5.230   2.618  67.731  1.00  0.00    -0.012 C  
ENDROOT
BRANCH   2   5
HETATM    5  C   UNL     1      -7.255   4.089  67.551  1.00  0.00    -0.067 C  
BRANCH   5   6
HETATM    6  C   UNL     1      -8.606   4.677  66.990  1.00  0.00    -0.104 C  
HETATM    7  C   UNL     1      -9.596   3.580  66.537  1.00  0.00    -0.122 C  
HETATM    8  C   UNL     1      -8.381   5.601  65.776  1.00  0.00    -0.132 C  
BRANCH   6   9
HETATM    9  C   UNL     1      -9.283   5.448  68.156  1.00  0.00    -0.122 A  
HETATM   10  C   UNL     1      -8.751   5.497  69.457  1.00  0.00    -0.105 A  
HETATM   11  C   UNL     1      -9.387   6.206  70.478  1.00  0.00    -0.173 A  
HETATM   12  C   UNL     1     -10.581   6.875  70.235  1.00  0.00    -0.218 A  
HETATM   13  C   UNL     1     -10.500   6.128  67.939  1.00  0.00    -0.286 A  
HETATM   14  C   UNL     1     -11.145   6.827  68.965  1.00  0.00    -0.254 A  
BRANCH  12  15
HETATM   15  O   UNL     1     -11.113   7.506  71.326  1.00  0.00    -0.241 OA 
BRANCH  15  16
HETATM   16  C   UNL     1     -10.455   8.693  71.745  1.00  0.00    -0.324 C  
BRANCH  16  17
HETATM   17  C   UNL     1     -10.468   9.679  70.575  1.00  0.00    -0.303 C  
BRANCH  17  18
HETATM   18  O   UNL     1      -9.277   9.708  69.780  1.00  0.00    -0.188 OA 
BRANCH  18  19
HETATM   19  C   UNL     1      -9.154  10.764  68.834  1.00  0.00    -0.164 C  
BRANCH  19  20
HETATM   20  C   UNL     1     -10.065  10.545  67.618  1.00  0.00    -0.179 C  
BRANCH  20  21
HETATM   21  N   UNL     1      -9.348  10.449  66.263  1.00  0.00    -0.162 N  
HETATM   22  C   UNL     1      -7.845  10.543  66.551  1.00  0.00    -0.134 C  
HETATM   23  C   UNL     1      -9.620   9.097  65.615  1.00  0.00    -0.217 C  
BRANCH  21  24
HETATM   24  C   UNL     1      -9.780  11.621  65.341  1.00  0.00    -0.229 C  
BRANCH  24  25
HETATM   25  C   UNL     1     -10.418  12.790  66.043  1.00  0.00    -0.291 A  
HETATM   26  C   UNL     1      -9.615  13.808  66.581  1.00  0.00    -0.295 A  
HETATM   27  C   UNL     1     -10.182  14.813  67.362  1.00  0.00    -0.236 A  
HETATM   28  C   UNL     1     -11.554  14.822  67.597  1.00  0.00    -0.374 A  
HETATM   29  C   UNL     1     -12.369  13.852  67.019  1.00  0.00    -0.287 A  
HETATM   30  C   UNL     1     -11.807  12.846  66.233  1.00  0.00    -0.477 A  
ENDBRANCH  24  25
ENDBRANCH  21  24
ENDBRANCH  20  21
ENDBRANCH  19  20
ENDBRANCH  18  19
ENDBRANCH  17  18
ENDBRANCH  16  17
ENDBRANCH  15  16
ENDBRANCH  12  15
ENDBRANCH   6   9
ENDBRANCH   5   6
ENDBRANCH   2   5
TORSDOF 12
ENDMDL
MODEL      281
REMARK 921   NORMALIZED FREE ENERGY PREDICTED BY IDOCK:   -2.93 KCAL/MOL
REMARK 922        TOTAL FREE ENERGY PREDICTED BY IDOCK:   -6.26 KCAL/MOL
REMARK 923 INTER-LIGAND FREE ENERGY PREDICTED BY IDOCK:   -5.89 KCAL/MOL
REMARK 924 INTRA-LIGAND FREE ENERGY PREDICTED BY IDOCK:   -0.36 KCAL/MOL
REMARK 927      BINDING AFFINITY PREDICTED BY RF-SCORE:    0.00 PKD
ROOT
HETATM    1  C   UNL     1     -11.008   6.055  70.356  1.00  0.00    -0.399 C  
HETATM    2  C   UNL     1      -9.959   5.930  71.469  1.00  0.00    -0.221 C  
HETATM    3  C   UNL     1     -10.166   7.040  72.509  1.00  0.00    -0.207 C  
HETATM    4  C   UNL     1     -10.241   4.585  72.191  1.00  0.00    -0.256 C  
ENDROOT
BRANCH   2   5
HETATM    5  C   UNL     1      -8.493   5.868  70.928  1.00  0.00    -0.127 C  
BRANCH   5   6
HETATM    6  C   UNL     1      -8.055   5.132  69.604  1.00  0.00    -0.089 C  
HETATM    7  C   UNL     1      -9.134   4.164  69.070  1.00  0.00    -0.187 C  
HETATM    8  C   UNL     1      -6.769   4.304  69.795  1.00  0.00    -0.034 C  
BRANCH   6   9
HETATM    9  C   UNL     1      -7.853   6.230  68.523  1.00  0.00    -0.105 A  
HETATM   10  C   UNL     1      -7.521   5.942  67.187  1.00  0.00    -0.084 A  
HETATM   11  C   UNL     1      -7.353   6.957  66.244  1.00  0.00    -0.076 A  
HETATM   12  C   UNL     1      -7.495   8.291  66.608  1.00  0.00    -0.086 A  
HETATM   13  C   UNL     1      -7.983   7.591  68.869  1.00  0.00    -0.126 A  
HETATM   14  C   UNL     1      -7.801   8.610  67.927  1.00  0.00    -0.103 A  
BRANCH  12  15
HETATM   15  O   UNL     1      -7.276   9.185  65.596  1.00  0.00    -0.081 OA 
BRANCH  15  16
HETATM   16  C   UNL     1      -8.152   9.094  64.481  1.00  0.00    -0.139 C  
BRANCH  16  17
HETATM   17  C   UNL     1      -9.467   9.782  64.855  1.00  0.00    -0.265 C  
BRANCH  17  18
HETATM   18  O   UNL     1      -9.339  10.959  65.661  1.00  0.00    -0.190 OA 
BRANCH  18  19
HETATM   19  C   UNL     1     -10.505  11.408  66.344  1.00  0.00    -0.254 C  
BRANCH  19  20
HETATM   20  C   UNL     1     -10.831  12.870  66.010  1.00  0.00    -0.279 C  
BRANCH  20  21
HETATM   21  N   UNL     1     -10.427  13.898  67.077  1.00  0.00    -0.276 N  
HETATM   22  C   UNL     1     -11.674  14.743  67.370  1.00  0.00    -0.350 C  
HETATM   23  C   UNL     1     -10.023  13.193  68.367  1.00  0.00    -0.223 C  
BRANCH  21  24
HETATM   24  C   UNL     1      -9.289  14.809  66.544  1.00  0.00    -0.290 C  
BRANCH  24  25
HETATM   25  C   UNL     1      -9.609  16.279  66.502  1.00  0.00    -0.286 A  
HETATM   26  C   UNL     1      -9.271  17.102  67.587  1.00  0.00    -0.238 A  
HETATM   27  C   UNL     1      -9.697  18.428  67.625  1.00  0.00    -0.306 A  
HETATM   28  C   UNL     1     -10.444  18.950  66.573  1.00  0.00    -0.500 A  
HETATM   29  C   UNL     1     -10.736  18.161  65.463  1.00  0.00     0.051 A  
HETATM   30  C   UNL     1     -10.308  16.834  65.419  1.00  0.00    -0.169 A  
ENDBRANCH  24  25
ENDBRANCH  21  24
ENDBRANCH  20  21
ENDBRANCH  19  20
ENDBRANCH  18  19
ENDBRANCH  17  18
ENDBRANCH  16  17
ENDBRANCH  15  16
ENDBRANCH  12  15
ENDBRANCH   6   9
ENDBRANCH   5   6
ENDBRANCH   2   5
TORSDOF 12
ENDMDL
MODEL      282
REMARK 921   NORMALIZED FREE ENERGY PREDICTED BY IDOCK:   -2.91 KCAL/MOL
REMARK 922        TOTAL FREE ENERGY PREDICTED BY IDOCK:   -6.21 KCAL/MOL
REMARK 923 INTER-LIGAND FREE ENERGY PREDICTED BY IDOCK:   -5.78 KCAL/MOL
REMARK 924 INTRA-LIGAND FREE ENERGY PREDICTED BY IDOCK:   -0.43 KCAL/MOL
REMARK 927      BINDING AFFINITY PREDICTED BY RF-SCORE:    0.00 PKD
ROOT
HETATM    1  C   UNL     1     -10.228  13.186  64.283  1.00  0.00    -0.283 C  
HETATM    2  C   UNL     1     -10.330  11.829  64.992  1.00  0.00    -0.325 C  
HETATM    3  C   UNL     1     -11.749  11.264  64.838  1.00  0.00     0.303 C  
HETATM    4  C   UNL     1      -9.381  10.863  64.233  1.00  0.00    -0.259 C  
ENDROOT
BRANCH   2   5
HETATM    5  C   UNL     1      -9.852  11.876  66.480  1.00  0.00    -0.225 C  
BRANCH   5   6
HETATM    6  C   UNL     1     -10.338  12.930  67.547  1.00  0.00    -0.223 C  
HETATM    7  C   UNL     1     -11.289  13.993  66.951  1.00  0.00    -0.343 C  
HETATM    8  C   UNL     1      -9.163  13.695  68.190  1.00  0.00    -0.204 C  
BRANCH   6   9
HETATM    9  C   UNL     1     -11.144  12.148  68.620  1.00  0.00    -0.297 A  
HETATM   10  C   UNL     1     -11.532  10.806  68.465  1.00  0.00    -0.362 A  
HETATM   11  C   UNL     1     -12.252  10.136  69.456  1.00  0.00     0.149 A  
HETATM   12  C   UNL     1     -12.620  10.790  70.625  1.00  0.00    -0.357 A  
HETATM   13  C   UNL     1     -11.539  12.792  69.812  1.00  0.00    -0.288 A  
HETATM   14  C   UNL     1     -12.273  12.125  70.800  1.00  0.00    -0.367 A  
BRANCH  12  15
HETATM   15  O   UNL     1     -13.347  10.029  71.500  1.00  0.00    -0.378 OA 
BRANCH  15  16
HETATM   16  C   UNL     1     -12.630   9.483  72.598  1.00  0.00     0.117 C  
BRANCH  16  17
HETATM   17  C   UNL     1     -11.587   8.508  72.045  1.00  0.00    -0.362 C  
BRANCH  17  18
HETATM   18  O   UNL     1     -12.074   7.197  71.735  1.00  0.00    -0.298 OA 
BRANCH  18  19
HETATM   19  C   UNL     1     -11.896   6.738  70.399  1.00  0.00    -0.338 C  
BRANCH  19  20
HETATM   20  C   UNL     1     -10.659   5.839  70.268  1.00  0.00    -0.299 C  
BRANCH  20  21
HETATM   21  N   UNL     1      -9.884   5.968  68.948  1.00  0.00    -0.134 N  
HETATM   22  C   UNL     1     -10.065   7.415  68.470  1.00  0.00    -0.175 C  
HETATM   23  C   UNL     1      -8.396   5.732  69.182  1.00  0.00    -0.105 C  
BRANCH  21  24
HETATM   24  C   UNL     1     -10.458   4.990  67.889  1.00  0.00     0.032 C  
BRANCH  24  25
HETATM   25  C   UNL     1      -9.432   4.294  67.035  1.00  0.00    -0.205 A  
HETATM   26  C   UNL     1      -8.985   3.010  67.382  1.00  0.00    -0.187 A  
HETATM   27  C   UNL     1      -7.929   2.420  66.690  1.00  0.00    -0.080 A  
HETATM   28  C   UNL     1      -7.325   3.096  65.634  1.00  0.00    -0.072 A  
HETATM   29  C   UNL     1      -7.799   4.346  65.240  1.00  0.00    -0.086 A  
HETATM   30  C   UNL     1      -8.858   4.938  65.928  1.00  0.00    -0.130 A  
ENDBRANCH  24  25
ENDBRANCH  21  24
ENDBRANCH  20  21
ENDBRANCH  19  20
ENDBRANCH  18  19
ENDBRANCH  17  18
ENDBRANCH  16  17
ENDBRANCH  15  16
ENDBRANCH  12  15
ENDBRANCH   6   9
ENDBRANCH   5   6
ENDBRANCH   2   5
TORSDOF 12
ENDMDL
MODEL      283
REMARK 921   NORMALIZED FREE ENERGY PREDICTED BY IDOCK:   -2.85 KCAL/MOL
REMARK 922        TOTAL FREE ENERGY PREDICTED BY IDOCK:   -6.12 KCAL/MOL
REMARK 923 INTER-LIGAND FREE ENERGY PREDICTED BY IDOCK:   -6.18 KCAL/MOL
REMARK 924 INTRA-LIGAND FREE ENERGY PREDICTED BY IDOCK:    0.06 KCAL/MOL
REMARK 927      BINDING AFFINITY PREDICTED BY RF-SCORE:    0.00 PKD
ROOT
HETATM    1  C   UNL     1      -9.479   9.339  65.790  1.00  0.00    -0.329 C  
HETATM    2  C   UNL     1      -8.702   8.165  66.400  1.00  0.00    -0.168 C  
HETATM    3  C   UNL     1      -9.610   7.375  67.352  1.00  0.00    -0.184 C  
HETATM    4  C   UNL     1      -8.351   7.212  65.225  1.00  0.00    -0.101 C  
ENDROOT
BRANCH   2   5
HETATM    5  C   UNL     1      -7.354   8.599  67.064  1.00  0.00    -0.080 C  
BRANCH   5   6
HETATM    6  C   UNL     1      -7.233   9.313  68.464  1.00  0.00    -0.072 C  
HETATM    7  C   UNL     1      -6.155   8.678  69.371  1.00  0.00    -0.041 C  
HETATM    8  C   UNL     1      -8.556   9.277  69.255  1.00  0.00    -0.139 C  
BRANCH   6   9
HETATM    9  C   UNL     1      -6.791  10.777  68.188  1.00  0.00    -0.068 A  
HETATM   10  C   UNL     1      -5.560  11.303  68.617  1.00  0.00    -0.042 A  
HETATM   11  C   UNL     1      -5.197  12.623  68.345  1.00  0.00    -0.059 A  
HETATM   12  C   UNL     1      -6.058  13.463  67.650  1.00  0.00    -0.122 A  
HETATM   13  C   UNL     1      -7.651  11.652  67.493  1.00  0.00    -0.128 A  
HETATM   14  C   UNL     1      -7.294  12.980  67.232  1.00  0.00    -0.067 A  
BRANCH  12  15
HETATM   15  O   UNL     1      -5.594  14.738  67.475  1.00  0.00    -0.334 OA 
BRANCH  15  16
HETATM   16  C   UNL     1      -6.312  15.762  68.149  1.00  0.00    -0.124 C  
BRANCH  16  17
HETATM   17  C   UNL     1      -7.716  15.832  67.544  1.00  0.00    -0.161 C  
BRANCH  17  18
HETATM   18  O   UNL     1      -8.681  16.565  68.309  1.00  0.00    -0.196 OA 
BRANCH  18  19
HETATM   19  C   UNL     1      -9.361  15.859  69.342  1.00  0.00    -0.250 C  
BRANCH  19  20
HETATM   20  C   UNL     1      -9.877  14.498  68.854  1.00  0.00    -0.191 C  
BRANCH  20  21
HETATM   21  N   UNL     1     -11.329  14.483  68.353  1.00  0.00    -0.275 N  
HETATM   22  C   UNL     1     -12.211  14.870  69.547  1.00  0.00    -0.233 C  
HETATM   23  C   UNL     1     -11.525  15.530  67.263  1.00  0.00    -0.102 C  
BRANCH  21  24
HETATM   24  C   UNL     1     -11.712  13.063  67.856  1.00  0.00    -0.357 C  
BRANCH  24  25
HETATM   25  C   UNL     1     -11.551  12.835  66.377  1.00  0.00    -0.435 A  
HETATM   26  C   UNL     1     -10.287  12.529  65.848  1.00  0.00    -0.284 A  
HETATM   27  C   UNL     1     -10.096  12.466  64.470  1.00  0.00    -0.276 A  
HETATM   28  C   UNL     1     -11.167  12.688  63.608  1.00  0.00    -0.525 A  
HETATM   29  C   UNL     1     -12.439  12.934  64.120  1.00  0.00    -0.413 A  
HETATM   30  C   UNL     1     -12.635  12.993  65.500  1.00  0.00    -0.422 A  
ENDBRANCH  24  25
ENDBRANCH  21  24
ENDBRANCH  20  21
ENDBRANCH  19  20
ENDBRANCH  18  19
ENDBRANCH  17  18
ENDBRANCH  16  17
ENDBRANCH  15  16
ENDBRANCH  12  15
ENDBRANCH   6   9
ENDBRANCH   5   6
ENDBRANCH   2   5
TORSDOF 12
ENDMDL
MODEL      284
REMARK 921   NORMALIZED FREE ENERGY PREDICTED BY IDOCK:   -2.85 KCAL/MOL
REMARK 922        TOTAL FREE ENERGY PREDICTED BY IDOCK:   -6.11 KCAL/MOL
REMARK 923 INTER-LIGAND FREE ENERGY PREDICTED BY IDOCK:   -4.58 KCAL/MOL
REMARK 924 INTRA-LIGAND FREE ENERGY PREDICTED BY IDOCK:   -1.53 KCAL/MOL
REMARK 927      BINDING AFFINITY PREDICTED BY RF-SCORE:    0.00 PKD
ROOT
HETATM    1  C   UNL     1      -9.340   2.220  64.322  1.00  0.00    -0.131 C  
HETATM    2  C   UNL     1      -8.977   3.669  63.970  1.00  0.00    -0.108 C  
HETATM    3  C   UNL     1      -7.578   3.718  63.340  1.00  0.00    -0.059 C  
HETATM    4  C   UNL     1      -9.977   4.119  62.871  1.00  0.00    -0.114 C  
ENDROOT
BRANCH   2   5
HETATM    5  C   UNL     1      -9.136   4.652  65.175  1.00  0.00    -0.155 C  
BRANCH   5   6
HETATM    6  C   UNL     1      -8.323   4.561  66.522  1.00  0.00    -0.106 C  
HETATM    7  C   UNL     1      -6.881   5.102  66.391  1.00  0.00    -0.062 C  
HETATM    8  C   UNL     1      -8.208   3.112  67.039  1.00  0.00    -0.084 C  
BRANCH   6   9
HETATM    9  C   UNL     1      -9.056   5.461  67.555  1.00  0.00    -0.107 A  
HETATM   10  C   UNL     1     -10.456   5.516  67.670  1.00  0.00    -0.256 A  
HETATM   11  C   UNL     1     -11.077   6.335  68.615  1.00  0.00    -0.409 A  
HETATM   12  C   UNL     1     -10.321   7.135  69.463  1.00  0.00    -0.215 A  
HETATM   13  C   UNL     1      -8.311   6.289  68.421  1.00  0.00    -0.115 A  
HETATM   14  C   UNL     1      -8.934   7.121  69.359  1.00  0.00    -0.136 A  
BRANCH  12  15
HETATM   15  O   UNL     1     -11.053   7.909  70.321  1.00  0.00    -0.257 OA 
BRANCH  15  16
HETATM   16  C   UNL     1     -10.381   9.029  70.880  1.00  0.00    -0.256 C  
BRANCH  16  17
HETATM   17  C   UNL     1     -10.986  10.296  70.270  1.00  0.00    -0.309 C  
BRANCH  17  18
HETATM   18  O   UNL     1     -10.605  10.570  68.917  1.00  0.00    -0.189 OA 
BRANCH  18  19
HETATM   19  C   UNL     1      -9.382  11.270  68.717  1.00  0.00    -0.128 C  
BRANCH  19  20
HETATM   20  C   UNL     1      -8.446  10.515  67.763  1.00  0.00    -0.114 C  
BRANCH  20  21
HETATM   21  N   UNL     1      -8.903  10.453  66.299  1.00  0.00    -0.149 N  
HETATM   22  C   UNL     1      -9.591   9.095  66.109  1.00  0.00    -0.266 C  
HETATM   23  C   UNL     1      -9.929  11.544  66.017  1.00  0.00    -0.224 C  
BRANCH  21  24
HETATM   24  C   UNL     1      -7.681  10.559  65.347  1.00  0.00    -0.106 C  
BRANCH  24  25
HETATM   25  C   UNL     1      -7.294   9.282  64.652  1.00  0.00    -0.101 A  
HETATM   26  C   UNL     1      -6.082   8.650  64.968  1.00  0.00    -0.060 A  
HETATM   27  C   UNL     1      -5.643   7.555  64.227  1.00  0.00    -0.033 A  
HETATM   28  C   UNL     1      -6.418   7.069  63.177  1.00  0.00    -0.044 A  
HETATM   29  C   UNL     1      -7.652   7.650  62.891  1.00  0.00    -0.118 A  
HETATM   30  C   UNL     1      -8.096   8.743  63.634  1.00  0.00    -0.169 A  
ENDBRANCH  24  25
ENDBRANCH  21  24
ENDBRANCH  20  21
ENDBRANCH  19  20
ENDBRANCH  18  19
ENDBRANCH  17  18
ENDBRANCH  16  17
ENDBRANCH  15  16
ENDBRANCH  12  15
ENDBRANCH   6   9
ENDBRANCH   5   6
ENDBRANCH   2   5
TORSDOF 12
ENDMDL
MODEL      285
REMARK 921   NORMALIZED FREE ENERGY PREDICTED BY IDOCK:   -2.83 KCAL/MOL
REMARK 922        TOTAL FREE ENERGY PREDICTED BY IDOCK:   -6.08 KCAL/MOL
REMARK 923 INTER-LIGAND FREE ENERGY PREDICTED BY IDOCK:   -5.93 KCAL/MOL
REMARK 924 INTRA-LIGAND FREE ENERGY PREDICTED BY IDOCK:   -0.14 KCAL/MOL
REMARK 927      BINDING AFFINITY PREDICTED BY RF-SCORE:    0.00 PKD
ROOT
HETATM    1  C   UNL     1     -10.749   2.894  73.041  1.00  0.00    -0.222 C  
HETATM    2  C   UNL     1      -9.704   3.635  72.197  1.00  0.00    -0.231 C  
HETATM    3  C   UNL     1      -8.326   3.535  72.865  1.00  0.00    -0.082 C  
HETATM    4  C   UNL     1      -9.603   2.870  70.850  1.00  0.00    -0.208 C  
ENDROOT
BRANCH   2   5
HETATM    5  C   UNL     1     -10.114   5.107  71.865  1.00  0.00    -0.255 C  
BRANCH   5   6
HETATM    6  C   UNL     1      -9.104   6.258  71.488  1.00  0.00    -0.145 C  
HETATM    7  C   UNL     1      -8.236   5.915  70.256  1.00  0.00    -0.114 C  
HETATM    8  C   UNL     1      -8.132   6.582  72.640  1.00  0.00    -0.103 C  
BRANCH   6   9
HETATM    9  C   UNL     1      -9.956   7.502  71.113  1.00  0.00    -0.187 A  
HETATM   10  C   UNL     1     -10.700   8.236  72.054  1.00  0.00    -0.366 A  
HETATM   11  C   UNL     1     -11.449   9.352  71.678  1.00  0.00    -0.463 A  
HETATM   12  C   UNL     1     -11.491   9.761  70.351  1.00  0.00    -0.280 A  
HETATM   13  C   UNL     1     -10.022   7.932  69.771  1.00  0.00    -0.186 A  
HETATM   14  C   UNL     1     -10.784   9.043  69.392  1.00  0.00    -0.202 A  
BRANCH  12  15
HETATM   15  O   UNL     1     -12.283  10.850  70.113  1.00  0.00    -0.300 OA 
BRANCH  15  16
HETATM   16  C   UNL     1     -11.617  12.102  70.029  1.00  0.00    -0.171 C  
BRANCH  16  17
HETATM   17  C   UNL     1     -12.630  13.146  69.552  1.00  0.00     0.322 C  
BRANCH  17  18
HETATM   18  O   UNL     1     -12.507  13.541  68.180  1.00  0.00    -0.062 OA 
BRANCH  18  19
HETATM   19  C   UNL     1     -11.207  13.894  67.721  1.00  0.00    -0.293 C  
BRANCH  19  20
HETATM   20  C   UNL     1     -11.254  15.063  66.727  1.00  0.00    -0.322 C  
BRANCH  20  21
HETATM   21  N   UNL     1     -10.150  16.117  66.893  1.00  0.00    -0.265 N  
HETATM   22  C   UNL     1      -8.835  15.451  66.467  1.00  0.00    -0.312 C  
HETATM   23  C   UNL     1     -10.402  17.299  65.964  1.00  0.00    -0.305 C  
BRANCH  21  24
HETATM   24  C   UNL     1     -10.053  16.568  68.375  1.00  0.00    -0.255 C  
BRANCH  24  25
HETATM   25  C   UNL     1      -8.713  16.354  69.026  1.00  0.00    -0.233 A  
HETATM   26  C   UNL     1      -7.780  17.401  69.074  1.00  0.00    -0.148 A  
HETATM   27  C   UNL     1      -6.486  17.172  69.535  1.00  0.00    -0.210 A  
HETATM   28  C   UNL     1      -6.116  15.903  69.970  1.00  0.00    -0.138 A  
HETATM   29  C   UNL     1      -7.049  14.868  69.984  1.00  0.00    -0.045 A  
HETATM   30  C   UNL     1      -8.348  15.095  69.528  1.00  0.00    -0.151 A  
ENDBRANCH  24  25
ENDBRANCH  21  24
ENDBRANCH  20  21
ENDBRANCH  19  20
ENDBRANCH  18  19
ENDBRANCH  17  18
ENDBRANCH  16  17
ENDBRANCH  15  16
ENDBRANCH  12  15
ENDBRANCH   6   9
ENDBRANCH   5   6
ENDBRANCH   2   5
TORSDOF 12
ENDMDL
MODEL      286
REMARK 921   NORMALIZED FREE ENERGY PREDICTED BY IDOCK:   -2.83 KCAL/MOL
REMARK 922        TOTAL FREE ENERGY PREDICTED BY IDOCK:   -6.07 KCAL/MOL
REMARK 923 INTER-LIGAND FREE ENERGY PREDICTED BY IDOCK:   -6.24 KCAL/MOL
REMARK 924 INTRA-LIGAND FREE ENERGY PREDICTED BY IDOCK:    0.16 KCAL/MOL
REMARK 927      BINDING AFFINITY PREDICTED BY RF-SCORE:    0.00 PKD
ROOT
HETATM    1  C   UNL     1     -10.589   8.428  71.148  1.00  0.00    -0.266 C  
HETATM    2  C   UNL     1     -11.432   7.149  71.061  1.00  0.00    -0.331 C  
HETATM    3  C   UNL     1     -12.875   7.445  71.494  1.00  0.00    -0.416 C  
HETATM    4  C   UNL     1     -11.488   6.759  69.560  1.00  0.00    -0.247 C  
ENDROOT
BRANCH   2   5
HETATM    5  C   UNL     1     -10.800   5.944  71.832  1.00  0.00    -0.307 C  
BRANCH   5   6
HETATM    6  C   UNL     1      -9.563   6.048  72.804  1.00  0.00    -0.161 C  
HETATM    7  C   UNL     1      -8.980   4.669  73.184  1.00  0.00    -0.119 C  
HETATM    8  C   UNL     1      -9.917   6.762  74.125  1.00  0.00    -0.373 C  
BRANCH   6   9
HETATM    9  C   UNL     1      -8.451   6.818  72.039  1.00  0.00    -0.112 A  
HETATM   10  C   UNL     1      -7.945   6.403  70.794  1.00  0.00    -0.111 A  
HETATM   11  C   UNL     1      -6.949   7.125  70.136  1.00  0.00    -0.061 A  
HETATM   12  C   UNL     1      -6.415   8.275  70.706  1.00  0.00    -0.037 A  
HETATM   13  C   UNL     1      -7.887   7.982  72.601  1.00  0.00    -0.169 A  
HETATM   14  C   UNL     1      -6.878   8.699  71.948  1.00  0.00    -0.088 A  
BRANCH  12  15
HETATM   15  O   UNL     1      -5.427   8.870  69.972  1.00  0.00    -0.028 OA 
BRANCH  15  16
HETATM   16  C   UNL     1      -5.547  10.274  69.784  1.00  0.00    -0.039 C  
BRANCH  16  17
HETATM   17  C   UNL     1      -6.747  10.527  68.869  1.00  0.00    -0.060 C  
BRANCH  17  18
HETATM   18  O   UNL     1      -7.383  11.801  69.027  1.00  0.00    -0.108 OA 
BRANCH  18  19
HETATM   19  C   UNL     1      -6.597  12.957  68.754  1.00  0.00    -0.090 C  
BRANCH  19  20
HETATM   20  C   UNL     1      -7.146  13.746  67.558  1.00  0.00    -0.157 C  
BRANCH  20  21
HETATM   21  N   UNL     1      -7.799  15.094  67.897  1.00  0.00    -0.126 N  
HETATM   22  C   UNL     1      -9.050  14.782  68.728  1.00  0.00    -0.191 C  
HETATM   23  C   UNL     1      -6.861  15.935  68.756  1.00  0.00    -0.128 C  
BRANCH  21  24
HETATM   24  C   UNL     1      -8.205  15.839  66.598  1.00  0.00    -0.270 C  
BRANCH  24  25
HETATM   25  C   UNL     1      -8.655  17.263  66.787  1.00  0.00    -0.275 A  
HETATM   26  C   UNL     1      -9.981  17.537  67.156  1.00  0.00    -0.314 A  
HETATM   27  C   UNL     1     -10.448  18.849  67.186  1.00  0.00    -0.509 A  
HETATM   28  C   UNL     1      -9.592  19.900  66.867  1.00  0.00    -0.517 A  
HETATM   29  C   UNL     1      -8.258  19.646  66.557  1.00  0.00    -0.350 A  
HETATM   30  C   UNL     1      -7.786  18.335  66.530  1.00  0.00    -0.279 A  
ENDBRANCH  24  25
ENDBRANCH  21  24
ENDBRANCH  20  21
ENDBRANCH  19  20
ENDBRANCH  18  19
ENDBRANCH  17  18
ENDBRANCH  16  17
ENDBRANCH  15  16
ENDBRANCH  12  15
ENDBRANCH   6   9
ENDBRANCH   5   6
ENDBRANCH   2   5
TORSDOF 12
ENDMDL
MODEL      287
REMARK 921   NORMALIZED FREE ENERGY PREDICTED BY IDOCK:   -2.81 KCAL/MOL
REMARK 922        TOTAL FREE ENERGY PREDICTED BY IDOCK:   -6.04 KCAL/MOL
REMARK 923 INTER-LIGAND FREE ENERGY PREDICTED BY IDOCK:   -6.44 KCAL/MOL
REMARK 924 INTRA-LIGAND FREE ENERGY PREDICTED BY IDOCK:    0.40 KCAL/MOL
REMARK 927      BINDING AFFINITY PREDICTED BY RF-SCORE:    0.00 PKD
ROOT
HETATM    1  C   UNL     1     -12.830  14.348  73.161  1.00  0.00    -0.492 C  
HETATM    2  C   UNL     1     -12.905  14.962  71.757  1.00  0.00    -0.404 C  
HETATM    3  C   UNL     1     -14.339  15.424  71.465  1.00  0.00    -0.572 C  
HETATM    4  C   UNL     1     -12.022  16.239  71.786  1.00  0.00    -0.473 C  
ENDROOT
BRANCH   2   5
HETATM    5  C   UNL     1     -12.328  14.025  70.646  1.00  0.00    -0.446 C  
BRANCH   5   6
HETATM    6  C   UNL     1     -11.341  14.485  69.506  1.00  0.00    -0.313 C  
HETATM    7  C   UNL     1     -10.018  15.064  70.056  1.00  0.00     0.033 C  
HETATM    8  C   UNL     1     -11.959  15.570  68.601  1.00  0.00    -0.231 C  
BRANCH   6   9
HETATM    9  C   UNL     1     -10.977  13.218  68.684  1.00  0.00    -0.294 A  
HETATM   10  C   UNL     1     -10.068  13.232  67.611  1.00  0.00    -0.229 A  
HETATM   11  C   UNL     1      -9.764  12.071  66.900  1.00  0.00    -0.213 A  
HETATM   12  C   UNL     1     -10.368  10.863  67.227  1.00  0.00    -0.216 A  
HETATM   13  C   UNL     1     -11.584  11.982  68.990  1.00  0.00    -0.370 A  
HETATM   14  C   UNL     1     -11.290  10.820  68.268  1.00  0.00    -0.376 A  
BRANCH  12  15
HETATM   15  O   UNL     1     -10.004   9.809  66.434  1.00  0.00    -0.217 OA 
BRANCH  15  16
HETATM   16  C   UNL     1      -9.285  10.134  65.253  1.00  0.00    -0.209 C  
BRANCH  16  17
HETATM   17  C   UNL     1      -8.225   9.052  65.032  1.00  0.00    -0.153 C  
BRANCH  17  18
HETATM   18  O   UNL     1      -8.732   7.738  64.769  1.00  0.00     0.053 OA 
BRANCH  18  19
HETATM   19  C   UNL     1      -7.839   6.647  64.965  1.00  0.00    -0.113 C  
BRANCH  19  20
HETATM   20  C   UNL     1      -8.557   5.426  65.555  1.00  0.00    -0.148 C  
BRANCH  20  21
HETATM   21  N   UNL     1      -7.785   4.666  66.644  1.00  0.00    -0.090 N  
HETATM   22  C   UNL     1      -6.335   4.552  66.158  1.00  0.00    -0.036 C  
HETATM   23  C   UNL     1      -7.785   5.460  67.945  1.00  0.00    -0.092 C  
BRANCH  21  24
HETATM   24  C   UNL     1      -8.386   3.249  66.841  1.00  0.00    -0.097 C  
BRANCH  24  25
HETATM   25  C   UNL     1      -8.587   2.829  68.273  1.00  0.00    -0.115 A  
HETATM   26  C   UNL     1      -9.527   3.495  69.074  1.00  0.00    -0.213 A  
HETATM   27  C   UNL     1      -9.613   3.219  70.437  1.00  0.00    -0.211 A  
HETATM   28  C   UNL     1      -8.778   2.263  71.007  1.00  0.00    -0.112 A  
HETATM   29  C   UNL     1      -7.882   1.552  70.212  1.00  0.00    -0.042 A  
HETATM   30  C   UNL     1      -7.795   1.822  68.847  1.00  0.00    -0.051 A  
ENDBRANCH  24  25
ENDBRANCH  21  24
ENDBRANCH  20  21
ENDBRANCH  19  20
ENDBRANCH  18  19
ENDBRANCH  17  18
ENDBRANCH  16  17
ENDBRANCH  15  16
ENDBRANCH  12  15
ENDBRANCH   6   9
ENDBRANCH   5   6
ENDBRANCH   2   5
TORSDOF 12
ENDMDL
MODEL      288
REMARK 921   NORMALIZED FREE ENERGY PREDICTED BY IDOCK:   -2.77 KCAL/MOL
REMARK 922        TOTAL FREE ENERGY PREDICTED BY IDOCK:   -5.98 KCAL/MOL
REMARK 923 INTER-LIGAND FREE ENERGY PREDICTED BY IDOCK:   -5.83 KCAL/MOL
REMARK 924 INTRA-LIGAND FREE ENERGY PREDICTED BY IDOCK:   -0.15 KCAL/MOL
REMARK 927      BINDING AFFINITY PREDICTED BY RF-SCORE:    0.00 PKD
ROOT
HETATM    1  C   UNL     1      -9.084  15.004  68.794  1.00  0.00    -0.197 C  
HETATM    2  C   UNL     1     -10.458  14.738  68.164  1.00  0.00    -0.239 C  
HETATM    3  C   UNL     1     -11.127  13.542  68.855  1.00  0.00    -0.305 C  
HETATM    4  C   UNL     1     -11.334  15.981  68.478  1.00  0.00    -0.382 C  
ENDROOT
BRANCH   2   5
HETATM    5  C   UNL     1     -10.403  14.590  66.608  1.00  0.00    -0.274 C  
BRANCH   5   6
HETATM    6  C   UNL     1     -10.892  13.322  65.809  1.00  0.00    -0.286 C  
HETATM    7  C   UNL     1     -10.715  13.470  64.281  1.00  0.00    -0.324 C  
HETATM    8  C   UNL     1     -12.384  13.016  66.056  1.00  0.00    -0.387 C  
BRANCH   6   9
HETATM    9  C   UNL     1     -10.000  12.132  66.259  1.00  0.00    -0.249 A  
HETATM   10  C   UNL     1      -8.598  12.209  66.337  1.00  0.00    -0.002 A  
HETATM   11  C   UNL     1      -7.832  11.118  66.752  1.00  0.00    -0.153 A  
HETATM   12  C   UNL     1      -8.439   9.913  67.084  1.00  0.00    -0.121 A  
HETATM   13  C   UNL     1     -10.592  10.896  66.593  1.00  0.00    -0.305 A  
HETATM   14  C   UNL     1      -9.823   9.798  66.995  1.00  0.00    -0.245 A  
BRANCH  12  15
HETATM   15  O   UNL     1      -7.573   8.918  67.446  1.00  0.00    -0.088 OA 
BRANCH  15  16
HETATM   16  C   UNL     1      -7.277   7.953  66.445  1.00  0.00    -0.082 C  
BRANCH  16  17
HETATM   17  C   UNL     1      -6.349   6.903  67.061  1.00  0.00    -0.045 C  
BRANCH  17  18
HETATM   18  O   UNL     1      -6.579   6.614  68.445  1.00  0.00    -0.053 OA 
BRANCH  18  19
HETATM   19  C   UNL     1      -6.254   5.304  68.897  1.00  0.00    -0.030 C  
BRANCH  19  20
HETATM   20  C   UNL     1      -6.305   5.202  70.428  1.00  0.00    -0.030 C  
BRANCH  20  21
HETATM   21  N   UNL     1      -7.706   5.285  71.050  1.00  0.00    -0.094 N  
HETATM   22  C   UNL     1      -7.565   4.849  72.514  1.00  0.00    -0.091 C  
HETATM   23  C   UNL     1      -8.209   6.724  71.034  1.00  0.00    -0.119 C  
BRANCH  21  24
HETATM   24  C   UNL     1      -8.682   4.331  70.311  1.00  0.00    -0.077 C  
BRANCH  24  25
HETATM   25  C   UNL     1      -9.582   4.990  69.300  1.00  0.00    -0.230 A  
HETATM   26  C   UNL     1      -9.358   4.794  67.928  1.00  0.00    -0.164 A  
HETATM   27  C   UNL     1     -10.086   5.517  66.985  1.00  0.00    -0.226 A  
HETATM   28  C   UNL     1     -11.056   6.425  67.401  1.00  0.00    -0.412 A  
HETATM   29  C   UNL     1     -11.329   6.585  68.758  1.00  0.00    -0.237 A  
HETATM   30  C   UNL     1     -10.606   5.860  69.705  1.00  0.00    -0.383 A  
ENDBRANCH  24  25
ENDBRANCH  21  24
ENDBRANCH  20  21
ENDBRANCH  19  20
ENDBRANCH  18  19
ENDBRANCH  17  18
ENDBRANCH  16  17
ENDBRANCH  15  16
ENDBRANCH  12  15
ENDBRANCH   6   9
ENDBRANCH   5   6
ENDBRANCH   2   5
TORSDOF 12
ENDMDL
MODEL      289
REMARK 921   NORMALIZED FREE ENERGY PREDICTED BY IDOCK:   -2.74 KCAL/MOL
REMARK 922        TOTAL FREE ENERGY PREDICTED BY IDOCK:   -5.93 KCAL/MOL
REMARK 923 INTER-LIGAND FREE ENERGY PREDICTED BY IDOCK:   -5.49 KCAL/MOL
REMARK 924 INTRA-LIGAND FREE ENERGY PREDICTED BY IDOCK:   -0.44 KCAL/MOL
REMARK 927      BINDING AFFINITY PREDICTED BY RF-SCORE:    0.00 PKD
ROOT
HETATM    1  C   UNL     1      -8.173   4.556  69.839  1.00  0.00    -0.070 C  
HETATM    2  C   UNL     1      -8.074   5.899  70.576  1.00  0.00    -0.111 C  
HETATM    3  C   UNL     1      -7.178   5.751  71.814  1.00  0.00    -0.091 C  
HETATM    4  C   UNL     1      -7.346   6.876  69.614  1.00  0.00    -0.086 C  
ENDROOT
BRANCH   2   5
HETATM    5  C   UNL     1      -9.469   6.524  70.905  1.00  0.00    -0.179 C  
BRANCH   5   6
HETATM    6  C   UNL     1     -10.677   6.605  69.895  1.00  0.00    -0.297 C  
HETATM    7  C   UNL     1     -12.036   6.812  70.601  1.00  0.00    -0.371 C  
HETATM    8  C   UNL     1     -10.810   5.329  69.040  1.00  0.00     0.130 C  
BRANCH   6   9
HETATM    9  C   UNL     1     -10.434   7.851  68.999  1.00  0.00    -0.210 A  
HETATM   10  C   UNL     1     -10.496   9.170  69.483  1.00  0.00    -0.226 A  
HETATM   11  C   UNL     1     -10.266  10.263  68.646  1.00  0.00    -0.196 A  
HETATM   12  C   UNL     1      -9.983  10.075  67.299  1.00  0.00    -0.197 A  
HETATM   13  C   UNL     1     -10.155   7.686  67.626  1.00  0.00    -0.249 A  
HETATM   14  C   UNL     1      -9.938   8.783  66.784  1.00  0.00    -0.338 A  
BRANCH  12  15
HETATM   15  O   UNL     1      -9.808  11.229  66.585  1.00  0.00    -0.198 OA 
BRANCH  15  16
HETATM   16  C   UNL     1     -10.676  11.417  65.476  1.00  0.00    -0.253 C  
BRANCH  16  17
HETATM   17  C   UNL     1     -11.093  12.889  65.447  1.00  0.00    -0.281 C  
BRANCH  17  18
HETATM   18  O   UNL     1     -10.670  13.671  66.570  1.00  0.00    -0.282 OA 
BRANCH  18  19
HETATM   19  C   UNL     1      -9.768  14.742  66.312  1.00  0.00    -0.303 C  
BRANCH  19  20
HETATM   20  C   UNL     1      -8.548  14.692  67.242  1.00  0.00    -0.214 C  
BRANCH  20  21
HETATM   21  N   UNL     1      -8.395  15.883  68.199  1.00  0.00    -0.159 N  
HETATM   22  C   UNL     1      -9.075  15.483  69.514  1.00  0.00    -0.260 C  
HETATM   23  C   UNL     1      -6.922  16.144  68.490  1.00  0.00    -0.137 C  
BRANCH  21  24
HETATM   24  C   UNL     1      -9.091  17.140  67.610  1.00  0.00    -0.227 C  
BRANCH  24  25
HETATM   25  C   UNL     1      -8.178  18.115  66.918  1.00  0.00    -0.258 A  
HETATM   26  C   UNL     1      -7.745  17.862  65.607  1.00  0.00     0.196 A  
HETATM   27  C   UNL     1      -6.782  18.675  65.013  1.00  0.00     0.127 A  
HETATM   28  C   UNL     1      -6.259  19.759  65.712  1.00  0.00    -0.219 A  
HETATM   29  C   UNL     1      -6.724  20.057  66.991  1.00  0.00    -0.246 A  
HETATM   30  C   UNL     1      -7.690  19.248  67.588  1.00  0.00    -0.288 A  
ENDBRANCH  24  25
ENDBRANCH  21  24
ENDBRANCH  20  21
ENDBRANCH  19  20
ENDBRANCH  18  19
ENDBRANCH  17  18
ENDBRANCH  16  17
ENDBRANCH  15  16
ENDBRANCH  12  15
ENDBRANCH   6   9
ENDBRANCH   5   6
ENDBRANCH   2   5
TORSDOF 12
ENDMDL
MODEL      290
REMARK 921   NORMALIZED FREE ENERGY PREDICTED BY IDOCK:   -2.72 KCAL/MOL
REMARK 922        TOTAL FREE ENERGY PREDICTED BY IDOCK:   -5.90 KCAL/MOL
REMARK 923 INTER-LIGAND FREE ENERGY PREDICTED BY IDOCK:   -5.32 KCAL/MOL
REMARK 924 INTRA-LIGAND FREE ENERGY PREDICTED BY IDOCK:   -0.57 KCAL/MOL
REMARK 927      BINDING AFFINITY PREDICTED BY RF-SCORE:    0.00 PKD
ROOT
HETATM    1  C   UNL     1     -10.290  13.992  66.655  1.00  0.00    -0.278 C  
HETATM    2  C   UNL     1     -11.200  13.267  65.655  1.00  0.00    -0.304 C  
HETATM    3  C   UNL     1     -12.607  13.878  65.690  1.00  0.00    -0.553 C  
HETATM    4  C   UNL     1     -10.622  13.557  64.244  1.00  0.00    -0.304 C  
ENDROOT
BRANCH   2   5
HETATM    5  C   UNL     1     -11.206  11.714  65.844  1.00  0.00    -0.296 C  
BRANCH   5   6
HETATM    6  C   UNL     1      -9.956  10.778  65.627  1.00  0.00    -0.317 C  
HETATM    7  C   UNL     1      -8.627  11.442  66.052  1.00  0.00    -0.094 C  
HETATM    8  C   UNL     1      -9.791  10.358  64.151  1.00  0.00    -0.379 C  
BRANCH   6   9
HETATM    9  C   UNL     1     -10.157   9.536  66.538  1.00  0.00    -0.326 A  
HETATM   10  C   UNL     1      -9.871   8.224  66.123  1.00  0.00    -0.138 A  
HETATM   11  C   UNL     1     -10.061   7.133  66.974  1.00  0.00    -0.308 A  
HETATM   12  C   UNL     1     -10.556   7.318  68.259  1.00  0.00    -0.172 A  
HETATM   13  C   UNL     1     -10.668   9.696  67.843  1.00  0.00    -0.302 A  
HETATM   14  C   UNL     1     -10.871   8.602  68.692  1.00  0.00    -0.003 A  
BRANCH  12  15
HETATM   15  O   UNL     1     -10.721   6.166  68.978  1.00  0.00    -0.243 OA 
BRANCH  15  16
HETATM   16  C   UNL     1      -9.574   5.338  69.105  1.00  0.00    -0.145 C  
BRANCH  16  17
HETATM   17  C   UNL     1      -9.011   5.524  70.516  1.00  0.00    -0.136 C  
BRANCH  17  18
HETATM   18  O   UNL     1      -8.041   6.568  70.660  1.00  0.00    -0.110 OA 
BRANCH  18  19
HETATM   19  C   UNL     1      -8.027   7.275  71.896  1.00  0.00    -0.091 C  
BRANCH  19  20
HETATM   20  C   UNL     1      -7.346   8.644  71.759  1.00  0.00    -0.080 C  
BRANCH  20  21
HETATM   21  N   UNL     1      -5.815   8.635  71.876  1.00  0.00    -0.051 N  
HETATM   22  C   UNL     1      -5.464   9.448  73.129  1.00  0.00    -0.009 C  
HETATM   23  C   UNL     1      -5.307   7.213  72.079  1.00  0.00    -0.036 C  
BRANCH  21  24
HETATM   24  C   UNL     1      -5.175   9.296  70.625  1.00  0.00    -0.027 C  
BRANCH  24  25
HETATM   25  C   UNL     1      -5.762  10.625  70.230  1.00  0.00    -0.085 A  
HETATM   26  C   UNL     1      -6.657  10.704  69.152  1.00  0.00    -0.061 A  
HETATM   27  C   UNL     1      -7.086  11.943  68.682  1.00  0.00    -0.102 A  
HETATM   28  C   UNL     1      -6.643  13.112  69.294  1.00  0.00    -0.091 A  
HETATM   29  C   UNL     1      -5.801  13.045  70.402  1.00  0.00    -0.152 A  
HETATM   30  C   UNL     1      -5.372  11.807  70.878  1.00  0.00    -0.130 A  
ENDBRANCH  24  25
ENDBRANCH  21  24
ENDBRANCH  20  21
ENDBRANCH  19  20
ENDBRANCH  18  19
ENDBRANCH  17  18
ENDBRANCH  16  17
ENDBRANCH  15  16
ENDBRANCH  12  15
ENDBRANCH   6   9
ENDBRANCH   5   6
ENDBRANCH   2   5
TORSDOF 12
ENDMDL
MODEL      291
REMARK 921   NORMALIZED FREE ENERGY PREDICTED BY IDOCK:   -2.71 KCAL/MOL
REMARK 922        TOTAL FREE ENERGY PREDICTED BY IDOCK:   -5.89 KCAL/MOL
REMARK 923 INTER-LIGAND FREE ENERGY PREDICTED BY IDOCK:   -6.30 KCAL/MOL
REMARK 924 INTRA-LIGAND FREE ENERGY PREDICTED BY IDOCK:    0.41 KCAL/MOL
REMARK 927      BINDING AFFINITY PREDICTED BY RF-SCORE:    0.00 PKD
ROOT
HETATM    1  C   UNL     1     -11.466  11.796  66.076  1.00  0.00    -0.281 C  
HETATM    2  C   UNL     1     -10.441  12.234  65.022  1.00  0.00    -0.322 C  
HETATM    3  C   UNL     1     -11.061  12.145  63.621  1.00  0.00    -0.528 C  
HETATM    4  C   UNL     1     -10.152  13.736  65.287  1.00  0.00    -0.312 C  
ENDROOT
BRANCH   2   5
HETATM    5  C   UNL     1      -9.080  11.472  65.135  1.00  0.00     0.008 C  
BRANCH   5   6
HETATM    6  C   UNL     1      -8.615  10.317  64.168  1.00  0.00    -0.198 C  
HETATM    7  C   UNL     1      -7.136  10.451  63.740  1.00  0.00     0.019 C  
HETATM    8  C   UNL     1      -9.451  10.268  62.873  1.00  0.00    -0.333 C  
BRANCH   6   9
HETATM    9  C   UNL     1      -8.741   8.986  64.960  1.00  0.00    -0.217 A  
HETATM   10  C   UNL     1      -8.077   7.804  64.589  1.00  0.00    -0.123 A  
HETATM   11  C   UNL     1      -8.211   6.629  65.331  1.00  0.00    -0.138 A  
HETATM   12  C   UNL     1      -9.025   6.594  66.456  1.00  0.00    -0.145 A  
HETATM   13  C   UNL     1      -9.568   8.922  66.101  1.00  0.00    -0.335 A  
HETATM   14  C   UNL     1      -9.715   7.741  66.837  1.00  0.00    -0.282 A  
BRANCH  12  15
HETATM   15  O   UNL     1      -9.092   5.375  67.074  1.00  0.00    -0.113 OA 
BRANCH  15  16
HETATM   16  C   UNL     1      -8.855   5.371  68.475  1.00  0.00    -0.100 C  
BRANCH  16  17
HETATM   17  C   UNL     1     -10.128   4.879  69.169  1.00  0.00    -0.159 C  
BRANCH  17  18
HETATM   18  O   UNL     1     -10.001   4.612  70.571  1.00  0.00    -0.215 OA 
BRANCH  18  19
HETATM   19  C   UNL     1     -10.767   5.422  71.457  1.00  0.00    -0.192 C  
BRANCH  19  20
HETATM   20  C   UNL     1     -10.913   6.857  70.931  1.00  0.00    -0.253 C  
BRANCH  20  21
HETATM   21  N   UNL     1     -10.771   7.965  71.984  1.00  0.00    -0.227 N  
HETATM   22  C   UNL     1      -9.934   9.079  71.343  1.00  0.00    -0.318 C  
HETATM   23  C   UNL     1     -12.138   8.544  72.332  1.00  0.00    -0.367 C  
BRANCH  21  24
HETATM   24  C   UNL     1     -10.045   7.422  73.244  1.00  0.00    -0.316 C  
BRANCH  24  25
HETATM   25  C   UNL     1      -8.548   7.580  73.242  1.00  0.00    -0.203 A  
HETATM   26  C   UNL     1      -7.915   8.284  74.278  1.00  0.00    -0.293 A  
HETATM   27  C   UNL     1      -6.553   8.568  74.208  1.00  0.00    -0.159 A  
HETATM   28  C   UNL     1      -5.807   8.135  73.115  1.00  0.00    -0.064 A  
HETATM   29  C   UNL     1      -6.411   7.384  72.109  1.00  0.00    -0.043 A  
HETATM   30  C   UNL     1      -7.773   7.094  72.177  1.00  0.00    -0.090 A  
ENDBRANCH  24  25
ENDBRANCH  21  24
ENDBRANCH  20  21
ENDBRANCH  19  20
ENDBRANCH  18  19
ENDBRANCH  17  18
ENDBRANCH  16  17
ENDBRANCH  15  16
ENDBRANCH  12  15
ENDBRANCH   6   9
ENDBRANCH   5   6
ENDBRANCH   2   5
TORSDOF 12
ENDMDL
MODEL      292
REMARK 921   NORMALIZED FREE ENERGY PREDICTED BY IDOCK:   -2.71 KCAL/MOL
REMARK 922        TOTAL FREE ENERGY PREDICTED BY IDOCK:   -5.88 KCAL/MOL
REMARK 923 INTER-LIGAND FREE ENERGY PREDICTED BY IDOCK:   -4.92 KCAL/MOL
REMARK 924 INTRA-LIGAND FREE ENERGY PREDICTED BY IDOCK:   -0.96 KCAL/MOL
REMARK 927      BINDING AFFINITY PREDICTED BY RF-SCORE:    0.00 PKD
ROOT
HETATM    1  C   UNL     1      -8.721   9.765  67.555  1.00  0.00    -0.125 C  
HETATM    2  C   UNL     1      -8.921   9.059  66.207  1.00  0.00    -0.199 C  
HETATM    3  C   UNL     1      -9.886   7.877  66.375  1.00  0.00    -0.217 C  
HETATM    4  C   UNL     1      -9.626  10.081  65.275  1.00  0.00    -0.355 C  
ENDROOT
BRANCH   2   5
HETATM    5  C   UNL     1      -7.576   8.654  65.520  1.00  0.00    -0.087 C  
BRANCH   5   6
HETATM    6  C   UNL     1      -7.171   7.179  65.140  1.00  0.00    -0.073 C  
HETATM    7  C   UNL     1      -5.723   7.071  64.612  1.00  0.00    -0.032 C  
HETATM    8  C   UNL     1      -8.087   6.584  64.050  1.00  0.00    -0.029 C  
BRANCH   6   9
HETATM    9  C   UNL     1      -7.244   6.339  66.444  1.00  0.00    -0.069 A  
HETATM   10  C   UNL     1      -7.979   5.145  66.551  1.00  0.00    -0.104 A  
HETATM   11  C   UNL     1      -8.016   4.416  67.740  1.00  0.00    -0.088 A  
HETATM   12  C   UNL     1      -7.332   4.864  68.865  1.00  0.00    -0.057 A  
HETATM   13  C   UNL     1      -6.567   6.777  67.602  1.00  0.00    -0.058 A  
HETATM   14  C   UNL     1      -6.615   6.053  68.799  1.00  0.00    -0.055 A  
BRANCH  12  15
HETATM   15  O   UNL     1      -7.474   4.072  69.971  1.00  0.00    -0.045 OA 
BRANCH  15  16
HETATM   16  C   UNL     1      -7.572   2.675  69.733  1.00  0.00    -0.043 C  
BRANCH  16  17
HETATM   17  C   UNL     1      -7.948   1.995  71.052  1.00  0.00    -0.046 C  
BRANCH  17  18
HETATM   18  O   UNL     1      -7.539   2.686  72.239  1.00  0.00    -0.049 OA 
BRANCH  18  19
HETATM   19  C   UNL     1      -8.551   2.990  73.193  1.00  0.00    -0.080 C  
BRANCH  19  20
HETATM   20  C   UNL     1      -8.516   4.469  73.603  1.00  0.00    -0.104 C  
BRANCH  20  21
HETATM   21  N   UNL     1      -9.859   5.209  73.526  1.00  0.00    -0.152 N  
HETATM   22  C   UNL     1     -10.940   4.209  73.954  1.00  0.00    -0.218 C  
HETATM   23  C   UNL     1      -9.880   6.374  74.509  1.00  0.00    -0.337 C  
BRANCH  21  24
HETATM   24  C   UNL     1     -10.130   5.684  72.073  1.00  0.00    -0.185 C  
BRANCH  24  25
HETATM   25  C   UNL     1     -11.038   6.877  71.945  1.00  0.00    -0.278 A  
HETATM   26  C   UNL     1     -12.431   6.702  71.945  1.00  0.00    -0.334 A  
HETATM   27  C   UNL     1     -13.276   7.776  71.675  1.00  0.00    -0.381 A  
HETATM   28  C   UNL     1     -12.742   9.037  71.424  1.00  0.00    -0.361 A  
HETATM   29  C   UNL     1     -11.364   9.237  71.480  1.00  0.00    -0.455 A  
HETATM   30  C   UNL     1     -10.515   8.165  71.754  1.00  0.00    -0.304 A  
ENDBRANCH  24  25
ENDBRANCH  21  24
ENDBRANCH  20  21
ENDBRANCH  19  20
ENDBRANCH  18  19
ENDBRANCH  17  18
ENDBRANCH  16  17
ENDBRANCH  15  16
ENDBRANCH  12  15
ENDBRANCH   6   9
ENDBRANCH   5   6
ENDBRANCH   2   5
TORSDOF 12
ENDMDL
MODEL      293
REMARK 921   NORMALIZED FREE ENERGY PREDICTED BY IDOCK:   -2.71 KCAL/MOL
REMARK 922        TOTAL FREE ENERGY PREDICTED BY IDOCK:   -5.88 KCAL/MOL
REMARK 923 INTER-LIGAND FREE ENERGY PREDICTED BY IDOCK:   -5.95 KCAL/MOL
REMARK 924 INTRA-LIGAND FREE ENERGY PREDICTED BY IDOCK:    0.07 KCAL/MOL
REMARK 927      BINDING AFFINITY PREDICTED BY RF-SCORE:    0.00 PKD
ROOT
HETATM    1  C   UNL     1     -11.357  15.661  67.857  1.00  0.00    -0.302 C  
HETATM    2  C   UNL     1     -11.104  14.174  68.134  1.00  0.00    -0.276 C  
HETATM    3  C   UNL     1      -9.594  13.904  68.195  1.00  0.00    -0.218 C  
HETATM    4  C   UNL     1     -11.665  13.888  69.553  1.00  0.00    -0.369 C  
ENDROOT
BRANCH   2   5
HETATM    5  C   UNL     1     -11.851  13.227  67.139  1.00  0.00    -0.424 C  
BRANCH   5   6
HETATM    6  C   UNL     1     -11.592  13.173  65.585  1.00  0.00    -0.371 C  
HETATM    7  C   UNL     1     -10.894  14.443  65.048  1.00  0.00    -0.420 C  
HETATM    8  C   UNL     1     -12.898  13.010  64.780  1.00  0.00    -0.336 C  
BRANCH   6   9
HETATM    9  C   UNL     1     -10.630  11.980  65.328  1.00  0.00    -0.328 A  
HETATM   10  C   UNL     1     -10.046  11.719  64.076  1.00  0.00    -0.360 A  
HETATM   11  C   UNL     1      -9.182  10.640  63.887  1.00  0.00    -0.271 A  
HETATM   12  C   UNL     1      -8.887   9.778  64.937  1.00  0.00    -0.197 A  
HETATM   13  C   UNL     1     -10.323  11.086  66.375  1.00  0.00    -0.302 A  
HETATM   14  C   UNL     1      -9.468   9.995  66.182  1.00  0.00    -0.242 A  
BRANCH  12  15
HETATM   15  O   UNL     1      -8.051   8.746  64.610  1.00  0.00    -0.140 OA 
BRANCH  15  16
HETATM   16  C   UNL     1      -7.020   8.457  65.544  1.00  0.00    -0.070 C  
BRANCH  16  17
HETATM   17  C   UNL     1      -7.331   7.104  66.189  1.00  0.00    -0.075 C  
BRANCH  17  18
HETATM   18  O   UNL     1      -7.693   7.150  67.574  1.00  0.00    -0.107 OA 
BRANCH  18  19
HETATM   19  C   UNL     1      -7.915   5.905  68.228  1.00  0.00    -0.109 C  
BRANCH  19  20
HETATM   20  C   UNL     1      -8.690   6.084  69.541  1.00  0.00    -0.125 C  
BRANCH  20  21
HETATM   21  N   UNL     1      -7.837   6.095  70.817  1.00  0.00    -0.101 N  
HETATM   22  C   UNL     1      -6.441   6.583  70.411  1.00  0.00    -0.044 C  
HETATM   23  C   UNL     1      -8.407   7.085  71.827  1.00  0.00    -0.110 C  
BRANCH  21  24
HETATM   24  C   UNL     1      -7.740   4.664  71.413  1.00  0.00    -0.086 C  
BRANCH  24  25
HETATM   25  C   UNL     1      -7.973   3.544  70.436  1.00  0.00    -0.051 A  
HETATM   26  C   UNL     1      -6.904   3.042  69.676  1.00  0.00    -0.034 A  
HETATM   27  C   UNL     1      -7.134   2.114  68.663  1.00  0.00    -0.043 A  
HETATM   28  C   UNL     1      -8.427   1.664  68.412  1.00  0.00    -0.083 A  
HETATM   29  C   UNL     1      -9.488   2.108  69.198  1.00  0.00    -0.143 A  
HETATM   30  C   UNL     1      -9.262   3.034  70.216  1.00  0.00    -0.213 A  
ENDBRANCH  24  25
ENDBRANCH  21  24
ENDBRANCH  20  21
ENDBRANCH  19  20
ENDBRANCH  18  19
ENDBRANCH  17  18
ENDBRANCH  16  17
ENDBRANCH  15  16
ENDBRANCH  12  15
ENDBRANCH   6   9
ENDBRANCH   5   6
ENDBRANCH   2   5
TORSDOF 12
ENDMDL
MODEL      294
REMARK 921   NORMALIZED FREE ENERGY PREDICTED BY IDOCK:   -2.71 KCAL/MOL
REMARK 922        TOTAL FREE ENERGY PREDICTED BY IDOCK:   -5.87 KCAL/MOL
REMARK 923 INTER-LIGAND FREE ENERGY PREDICTED BY IDOCK:   -6.60 KCAL/MOL
REMARK 924 INTRA-LIGAND FREE ENERGY PREDICTED BY IDOCK:    0.73 KCAL/MOL
REMARK 927      BINDING AFFINITY PREDICTED BY RF-SCORE:    0.00 PKD
ROOT
HETATM    1  C   UNL     1      -9.079   4.615  67.456  1.00  0.00    -0.134 C  
HETATM    2  C   UNL     1      -8.821   5.044  68.906  1.00  0.00    -0.111 C  
HETATM    3  C   UNL     1      -9.956   4.542  69.810  1.00  0.00    -0.268 C  
HETATM    4  C   UNL     1      -7.531   4.309  69.361  1.00  0.00    -0.054 C  
ENDROOT
BRANCH   2   5
HETATM    5  C   UNL     1      -8.558   6.578  69.056  1.00  0.00    -0.125 C  
BRANCH   5   6
HETATM    6  C   UNL     1      -7.213   7.301  68.662  1.00  0.00    -0.090 C  
HETATM    7  C   UNL     1      -6.516   6.651  67.446  1.00  0.00    -0.048 C  
HETATM    8  C   UNL     1      -6.189   7.299  69.815  1.00  0.00    -0.031 C  
BRANCH   6   9
HETATM    9  C   UNL     1      -7.584   8.753  68.252  1.00  0.00    -0.096 A  
HETATM   10  C   UNL     1      -7.880   9.764  69.183  1.00  0.00    -0.095 A  
HETATM   11  C   UNL     1      -8.204  11.058  68.775  1.00  0.00    -0.146 A  
HETATM   12  C   UNL     1      -8.258  11.381  67.424  1.00  0.00    -0.145 A  
HETATM   13  C   UNL     1      -7.654   9.103  66.887  1.00  0.00    -0.091 A  
HETATM   14  C   UNL     1      -7.993  10.398  66.476  1.00  0.00    -0.123 A  
BRANCH  12  15
HETATM   15  O   UNL     1      -8.615  12.674  67.160  1.00  0.00    -0.189 OA 
BRANCH  15  16
HETATM   16  C   UNL     1      -9.853  13.106  67.707  1.00  0.00    -0.228 C  
BRANCH  16  17
HETATM   17  C   UNL     1     -10.978  12.525  66.846  1.00  0.00    -0.257 C  
BRANCH  17  18
HETATM   18  O   UNL     1     -11.986  11.799  67.559  1.00  0.00    -0.607 OA 
BRANCH  18  19
HETATM   19  C   UNL     1     -11.725  11.500  68.926  1.00  0.00    -0.339 C  
BRANCH  19  20
HETATM   20  C   UNL     1     -12.987  11.010  69.650  1.00  0.00     0.528 C  
BRANCH  20  21
HETATM   21  N   UNL     1     -12.757  10.395  71.038  1.00  0.00    -0.365 N  
HETATM   22  C   UNL     1     -13.657   9.156  71.127  1.00  0.00    -0.121 C  
HETATM   23  C   UNL     1     -11.310   9.938  71.182  1.00  0.00    -0.370 C  
BRANCH  21  24
HETATM   24  C   UNL     1     -13.148  11.408  72.148  1.00  0.00    -0.170 C  
BRANCH  24  25
HETATM   25  C   UNL     1     -13.207  12.847  71.712  1.00  0.00    -0.479 A  
HETATM   26  C   UNL     1     -12.178  13.385  70.923  1.00  0.00    -0.367 A  
HETATM   27  C   UNL     1     -12.144  14.749  70.642  1.00  0.00    -0.374 A  
HETATM   28  C   UNL     1     -13.146  15.585  71.128  1.00  0.00    -0.573 A  
HETATM   29  C   UNL     1     -14.205  15.055  71.861  1.00  0.00    -0.649 A  
HETATM   30  C   UNL     1     -14.245  13.689  72.141  1.00  0.00    -0.481 A  
ENDBRANCH  24  25
ENDBRANCH  21  24
ENDBRANCH  20  21
ENDBRANCH  19  20
ENDBRANCH  18  19
ENDBRANCH  17  18
ENDBRANCH  16  17
ENDBRANCH  15  16
ENDBRANCH  12  15
ENDBRANCH   6   9
ENDBRANCH   5   6
ENDBRANCH   2   5
TORSDOF 12
ENDMDL
MODEL      295
REMARK 921   NORMALIZED FREE ENERGY PREDICTED BY IDOCK:   -2.69 KCAL/MOL
REMARK 922        TOTAL FREE ENERGY PREDICTED BY IDOCK:   -5.84 KCAL/MOL
REMARK 923 INTER-LIGAND FREE ENERGY PREDICTED BY IDOCK:   -4.79 KCAL/MOL
REMARK 924 INTRA-LIGAND FREE ENERGY PREDICTED BY IDOCK:   -1.06 KCAL/MOL
REMARK 927      BINDING AFFINITY PREDICTED BY RF-SCORE:    0.00 PKD
ROOT
HETATM    1  C   UNL     1      -7.576  12.689  67.651  1.00  0.00    -0.152 C  
HETATM    2  C   UNL     1      -7.831  11.184  67.805  1.00  0.00    -0.114 C  
HETATM    3  C   UNL     1      -6.816  10.580  68.786  1.00  0.00    -0.060 C  
HETATM    4  C   UNL     1      -9.229  11.040  68.465  1.00  0.00    -0.177 C  
ENDROOT
BRANCH   2   5
HETATM    5  C   UNL     1      -7.882  10.427  66.438  1.00  0.00    -0.128 C  
BRANCH   5   6
HETATM    6  C   UNL     1      -8.611   9.049  66.203  1.00  0.00    -0.149 C  
HETATM    7  C   UNL     1      -8.535   8.572  64.735  1.00  0.00    -0.146 C  
HETATM    8  C   UNL     1     -10.107   9.109  66.574  1.00  0.00    -0.357 C  
BRANCH   6   9
HETATM    9  C   UNL     1      -7.869   7.991  67.064  1.00  0.00    -0.104 A  
HETATM   10  C   UNL     1      -6.544   7.589  66.816  1.00  0.00    -0.057 A  
HETATM   11  C   UNL     1      -5.909   6.639  67.617  1.00  0.00    -0.020 A  
HETATM   12  C   UNL     1      -6.581   6.048  68.681  1.00  0.00    -0.058 A  
HETATM   13  C   UNL     1      -8.532   7.370  68.143  1.00  0.00    -0.124 A  
HETATM   14  C   UNL     1      -7.901   6.406  68.938  1.00  0.00    -0.110 A  
BRANCH  12  15
HETATM   15  O   UNL     1      -5.855   5.113  69.366  1.00  0.00    -0.018 OA 
BRANCH  15  16
HETATM   16  C   UNL     1      -6.498   4.522  70.487  1.00  0.00    -0.034 C  
BRANCH  16  17
HETATM   17  C   UNL     1      -6.833   3.071  70.129  1.00  0.00    -0.034 C  
BRANCH  17  18
HETATM   18  O   UNL     1      -8.221   2.725  70.197  1.00  0.00    -0.042 OA 
BRANCH  18  19
HETATM   19  C   UNL     1      -8.757   2.444  71.486  1.00  0.00    -0.065 C  
BRANCH  19  20
HETATM   20  C   UNL     1      -9.757   3.520  71.931  1.00  0.00    -0.164 C  
BRANCH  20  21
HETATM   21  N   UNL     1      -9.311   4.388  73.117  1.00  0.00    -0.120 N  
HETATM   22  C   UNL     1     -10.462   4.375  74.131  1.00  0.00    -0.256 C  
HETATM   23  C   UNL     1      -8.085   3.779  73.788  1.00  0.00    -0.087 C  
BRANCH  21  24
HETATM   24  C   UNL     1      -9.040   5.843  72.648  1.00  0.00    -0.130 C  
BRANCH  24  25
HETATM   25  C   UNL     1     -10.244   6.588  72.139  1.00  0.00    -0.203 A  
HETATM   26  C   UNL     1     -10.796   7.633  72.898  1.00  0.00    -0.446 A  
HETATM   27  C   UNL     1     -11.996   8.226  72.512  1.00  0.00    -0.420 A  
HETATM   28  C   UNL     1     -12.645   7.799  71.357  1.00  0.00    -0.339 A  
HETATM   29  C   UNL     1     -12.078   6.804  70.563  1.00  0.00    -0.332 A  
HETATM   30  C   UNL     1     -10.875   6.210  70.943  1.00  0.00    -0.342 A  
ENDBRANCH  24  25
ENDBRANCH  21  24
ENDBRANCH  20  21
ENDBRANCH  19  20
ENDBRANCH  18  19
ENDBRANCH  17  18
ENDBRANCH  16  17
ENDBRANCH  15  16
ENDBRANCH  12  15
ENDBRANCH   6   9
ENDBRANCH   5   6
ENDBRANCH   2   5
TORSDOF 12
ENDMDL
MODEL      296
REMARK 921   NORMALIZED FREE ENERGY PREDICTED BY IDOCK:   -2.68 KCAL/MOL
REMARK 922        TOTAL FREE ENERGY PREDICTED BY IDOCK:   -5.83 KCAL/MOL
REMARK 923 INTER-LIGAND FREE ENERGY PREDICTED BY IDOCK:   -5.79 KCAL/MOL
REMARK 924 INTRA-LIGAND FREE ENERGY PREDICTED BY IDOCK:   -0.04 KCAL/MOL
REMARK 927      BINDING AFFINITY PREDICTED BY RF-SCORE:    0.00 PKD
ROOT
HETATM    1  C   UNL     1     -12.162  15.125  72.666  1.00  0.00    -0.482 C  
HETATM    2  C   UNL     1     -12.645  14.788  71.249  1.00  0.00    -0.403 C  
HETATM    3  C   UNL     1     -14.161  15.005  71.149  1.00  0.00    -0.398 C  
HETATM    4  C   UNL     1     -11.983  15.824  70.300  1.00  0.00    -0.383 C  
ENDROOT
BRANCH   2   5
HETATM    5  C   UNL     1     -12.200  13.368  70.769  1.00  0.00    -0.409 C  
BRANCH   5   6
HETATM    6  C   UNL     1     -11.489  13.067  69.394  1.00  0.00    -0.323 C  
HETATM    7  C   UNL     1     -10.209  13.906  69.183  1.00  0.00     0.019 C  
HETATM    8  C   UNL     1     -12.408  13.347  68.188  1.00  0.00     0.080 C  
BRANCH   6   9
HETATM    9  C   UNL     1     -11.056  11.575  69.427  1.00  0.00    -0.287 A  
HETATM   10  C   UNL     1     -10.142  11.020  68.513  1.00  0.00    -0.198 A  
HETATM   11  C   UNL     1      -9.774   9.675  68.579  1.00  0.00    -0.161 A  
HETATM   12  C   UNL     1     -10.318   8.840  69.548  1.00  0.00    -0.213 A  
HETATM   13  C   UNL     1     -11.600  10.705  70.394  1.00  0.00    -0.441 A  
HETATM   14  C   UNL     1     -11.242   9.353  70.451  1.00  0.00    -0.309 A  
BRANCH  12  15
HETATM   15  O   UNL     1      -9.895   7.540  69.483  1.00  0.00    -0.167 OA 
BRANCH  15  16
HETATM   16  C   UNL     1     -10.599   6.698  68.582  1.00  0.00    -0.234 C  
BRANCH  16  17
HETATM   17  C   UNL     1      -9.701   6.451  67.367  1.00  0.00    -0.121 C  
BRANCH  17  18
HETATM   18  O   UNL     1      -9.097   5.153  67.301  1.00  0.00    -0.112 OA 
BRANCH  18  19
HETATM   19  C   UNL     1      -9.742   4.178  66.488  1.00  0.00    -0.209 C  
BRANCH  19  20
HETATM   20  C   UNL     1      -9.518   4.448  64.994  1.00  0.00    -0.167 C  
BRANCH  20  21
HETATM   21  N   UNL     1      -8.675   3.402  64.251  1.00  0.00    -0.093 N  
HETATM   22  C   UNL     1      -8.327   2.310  65.271  1.00  0.00    -0.089 C  
HETATM   23  C   UNL     1      -9.491   2.760  63.134  1.00  0.00    -0.094 C  
BRANCH  21  24
HETATM   24  C   UNL     1      -7.372   4.047  63.708  1.00  0.00    -0.051 C  
BRANCH  24  25
HETATM   25  C   UNL     1      -7.390   5.549  63.612  1.00  0.00    -0.053 A  
HETATM   26  C   UNL     1      -6.985   6.327  64.707  1.00  0.00    -0.051 A  
HETATM   27  C   UNL     1      -7.142   7.711  64.685  1.00  0.00    -0.065 A  
HETATM   28  C   UNL     1      -7.683   8.332  63.563  1.00  0.00    -0.142 A  
HETATM   29  C   UNL     1      -8.033   7.578  62.445  1.00  0.00    -0.138 A  
HETATM   30  C   UNL     1      -7.874   6.192  62.462  1.00  0.00    -0.093 A  
ENDBRANCH  24  25
ENDBRANCH  21  24
ENDBRANCH  20  21
ENDBRANCH  19  20
ENDBRANCH  18  19
ENDBRANCH  17  18
ENDBRANCH  16  17
ENDBRANCH  15  16
ENDBRANCH  12  15
ENDBRANCH   6   9
ENDBRANCH   5   6
ENDBRANCH   2   5
TORSDOF 12
ENDMDL
MODEL      297
REMARK 921   NORMALIZED FREE ENERGY PREDICTED BY IDOCK:   -2.68 KCAL/MOL
REMARK 922        TOTAL FREE ENERGY PREDICTED BY IDOCK:   -5.82 KCAL/MOL
REMARK 923 INTER-LIGAND FREE ENERGY PREDICTED BY IDOCK:   -5.46 KCAL/MOL
REMARK 924 INTRA-LIGAND FREE ENERGY PREDICTED BY IDOCK:   -0.37 KCAL/MOL
REMARK 927      BINDING AFFINITY PREDICTED BY RF-SCORE:    0.00 PKD
ROOT
HETATM    1  C   UNL     1      -9.840  14.506  69.314  1.00  0.00    -0.021 C  
HETATM    2  C   UNL     1     -11.322  14.185  69.085  1.00  0.00    -0.318 C  
HETATM    3  C   UNL     1     -11.983  13.790  70.413  1.00  0.00    -0.385 C  
HETATM    4  C   UNL     1     -11.994  15.509  68.630  1.00  0.00    -0.231 C  
ENDROOT
BRANCH   2   5
HETATM    5  C   UNL     1     -11.556  13.133  67.952  1.00  0.00    -0.375 C  
BRANCH   5   6
HETATM    6  C   UNL     1     -11.180  13.348  66.436  1.00  0.00    -0.323 C  
HETATM    7  C   UNL     1     -10.376  14.645  66.194  1.00  0.00    -0.309 C  
HETATM    8  C   UNL     1     -12.426  13.422  65.530  1.00  0.00    -0.534 C  
BRANCH   6   9
HETATM    9  C   UNL     1     -10.265  12.161  66.025  1.00  0.00    -0.265 A  
HETATM   10  C   UNL     1     -10.364  11.509  64.783  1.00  0.00    -0.341 A  
HETATM   11  C   UNL     1      -9.519  10.449  64.449  1.00  0.00    -0.343 A  
HETATM   12  C   UNL     1      -8.561   9.998  65.349  1.00  0.00    -0.151 A  
HETATM   13  C   UNL     1      -9.291  11.679  66.924  1.00  0.00    -0.195 A  
HETATM   14  C   UNL     1      -8.453  10.607  66.594  1.00  0.00    -0.137 A  
BRANCH  12  15
HETATM   15  O   UNL     1      -7.819   8.936  64.908  1.00  0.00    -0.110 OA 
BRANCH  15  16
HETATM   16  C   UNL     1      -8.458   7.668  64.948  1.00  0.00     0.023 C  
BRANCH  16  17
HETATM   17  C   UNL     1      -7.371   6.590  64.931  1.00  0.00    -0.076 C  
BRANCH  17  18
HETATM   18  O   UNL     1      -7.160   5.909  66.174  1.00  0.00    -0.067 OA 
BRANCH  18  19
HETATM   19  C   UNL     1      -8.307   5.362  66.817  1.00  0.00    -0.108 C  
BRANCH  19  20
HETATM   20  C   UNL     1      -8.307   5.654  68.323  1.00  0.00    -0.102 C  
BRANCH  20  21
HETATM   21  N   UNL     1      -9.691   5.828  68.964  1.00  0.00    -0.133 N  
HETATM   22  C   UNL     1     -10.596   6.457  67.897  1.00  0.00    -0.258 C  
HETATM   23  C   UNL     1     -10.276   4.471  69.337  1.00  0.00     0.091 C  
BRANCH  21  24
HETATM   24  C   UNL     1      -9.601   6.769  70.196  1.00  0.00    -0.161 C  
BRANCH  24  25
HETATM   25  C   UNL     1      -8.491   7.785  70.149  1.00  0.00    -0.134 A  
HETATM   26  C   UNL     1      -7.319   7.578  70.892  1.00  0.00    -0.068 A  
HETATM   27  C   UNL     1      -6.353   8.579  70.977  1.00  0.00    -0.043 A  
HETATM   28  C   UNL     1      -6.538   9.784  70.306  1.00  0.00    -0.102 A  
HETATM   29  C   UNL     1      -7.669   9.979  69.516  1.00  0.00    -0.146 A  
HETATM   30  C   UNL     1      -8.637   8.979  69.425  1.00  0.00    -0.137 A  
ENDBRANCH  24  25
ENDBRANCH  21  24
ENDBRANCH  20  21
ENDBRANCH  19  20
ENDBRANCH  18  19
ENDBRANCH  17  18
ENDBRANCH  16  17
ENDBRANCH  15  16
ENDBRANCH  12  15
ENDBRANCH   6   9
ENDBRANCH   5   6
ENDBRANCH   2   5
TORSDOF 12
ENDMDL
MODEL      298
REMARK 921   NORMALIZED FREE ENERGY PREDICTED BY IDOCK:   -2.67 KCAL/MOL
REMARK 922        TOTAL FREE ENERGY PREDICTED BY IDOCK:   -5.82 KCAL/MOL
REMARK 923 INTER-LIGAND FREE ENERGY PREDICTED BY IDOCK:   -5.79 KCAL/MOL
REMARK 924 INTRA-LIGAND FREE ENERGY PREDICTED BY IDOCK:   -0.03 KCAL/MOL
REMARK 927      BINDING AFFINITY PREDICTED BY RF-SCORE:    0.00 PKD
ROOT
HETATM    1  C   UNL     1      -5.962  18.079  69.608  1.00  0.00    -0.247 C  
HETATM    2  C   UNL     1      -7.120  18.529  68.707  1.00  0.00    -0.310 C  
HETATM    3  C   UNL     1      -7.609  19.917  69.140  1.00  0.00    -0.141 C  
HETATM    4  C   UNL     1      -6.530  18.689  67.280  1.00  0.00    -0.200 C  
ENDROOT
BRANCH   2   5
HETATM    5  C   UNL     1      -8.273  17.477  68.617  1.00  0.00    -0.265 C  
BRANCH   5   6
HETATM    6  C   UNL     1      -8.959  17.009  67.277  1.00  0.00    -0.224 C  
HETATM    7  C   UNL     1      -7.946  16.477  66.238  1.00  0.00    -0.307 C  
HETATM    8  C   UNL     1      -9.741  18.148  66.592  1.00  0.00    -0.334 C  
BRANCH   6   9
HETATM    9  C   UNL     1      -9.902  15.829  67.639  1.00  0.00    -0.232 A  
HETATM   10  C   UNL     1     -10.686  15.802  68.806  1.00  0.00    -0.253 A  
HETATM   11  C   UNL     1     -11.526  14.725  69.094  1.00  0.00    -0.323 A  
HETATM   12  C   UNL     1     -11.597  13.635  68.235  1.00  0.00    -0.339 A  
HETATM   13  C   UNL     1      -9.985  14.707  66.788  1.00  0.00    -0.265 A  
HETATM   14  C   UNL     1     -10.816  13.620  67.084  1.00  0.00    -0.292 A  
BRANCH  12  15
HETATM   15  O   UNL     1     -12.435  12.636  68.648  1.00  0.00     0.146 OA 
BRANCH  15  16
HETATM   16  C   UNL     1     -12.446  12.366  70.043  1.00  0.00     0.033 C  
BRANCH  16  17
HETATM   17  C   UNL     1     -11.381  11.305  70.328  1.00  0.00    -0.089 C  
BRANCH  17  18
HETATM   18  O   UNL     1     -11.291  10.248  69.365  1.00  0.00    -0.239 OA 
BRANCH  18  19
HETATM   19  C   UNL     1     -10.170   9.375  69.462  1.00  0.00    -0.209 C  
BRANCH  19  20
HETATM   20  C   UNL     1     -10.603   7.920  69.690  1.00  0.00    -0.234 C  
BRANCH  20  21
HETATM   21  N   UNL     1      -9.878   6.873  68.832  1.00  0.00    -0.146 N  
HETATM   22  C   UNL     1     -10.962   5.968  68.232  1.00  0.00    -0.256 C  
HETATM   23  C   UNL     1      -9.139   7.548  67.683  1.00  0.00    -0.125 C  
BRANCH  21  24
HETATM   24  C   UNL     1      -8.917   6.028  69.711  1.00  0.00    -0.133 C  
BRANCH  24  25
HETATM   25  C   UNL     1      -8.403   6.717  70.946  1.00  0.00    -0.128 A  
HETATM   26  C   UNL     1      -9.055   6.532  72.175  1.00  0.00    -0.139 A  
HETATM   27  C   UNL     1      -8.684   7.280  73.290  1.00  0.00    -0.176 A  
HETATM   28  C   UNL     1      -7.647   8.204  73.194  1.00  0.00    -0.197 A  
HETATM   29  C   UNL     1      -6.952   8.354  71.996  1.00  0.00    -0.100 A  
HETATM   30  C   UNL     1      -7.318   7.604  70.879  1.00  0.00    -0.066 A  
ENDBRANCH  24  25
ENDBRANCH  21  24
ENDBRANCH  20  21
ENDBRANCH  19  20
ENDBRANCH  18  19
ENDBRANCH  17  18
ENDBRANCH  16  17
ENDBRANCH  15  16
ENDBRANCH  12  15
ENDBRANCH   6   9
ENDBRANCH   5   6
ENDBRANCH   2   5
TORSDOF 12
ENDMDL
MODEL      299
REMARK 921   NORMALIZED FREE ENERGY PREDICTED BY IDOCK:   -2.67 KCAL/MOL
REMARK 922        TOTAL FREE ENERGY PREDICTED BY IDOCK:   -5.80 KCAL/MOL
REMARK 923 INTER-LIGAND FREE ENERGY PREDICTED BY IDOCK:   -6.30 KCAL/MOL
REMARK 924 INTRA-LIGAND FREE ENERGY PREDICTED BY IDOCK:    0.50 KCAL/MOL
REMARK 927      BINDING AFFINITY PREDICTED BY RF-SCORE:    0.00 PKD
ROOT
HETATM    1  C   UNL     1     -10.842   6.204  67.170  1.00  0.00    -0.442 C  
HETATM    2  C   UNL     1      -9.541   5.396  67.260  1.00  0.00    -0.140 C  
HETATM    3  C   UNL     1      -9.772   3.974  66.730  1.00  0.00    -0.216 C  
HETATM    4  C   UNL     1      -8.534   6.074  66.292  1.00  0.00    -0.130 C  
ENDROOT
BRANCH   2   5
HETATM    5  C   UNL     1      -8.901   5.418  68.686  1.00  0.00    -0.107 C  
BRANCH   5   6
HETATM    6  C   UNL     1      -9.083   6.582  69.734  1.00  0.00    -0.142 C  
HETATM    7  C   UNL     1      -8.241   6.375  71.013  1.00  0.00    -0.122 C  
HETATM    8  C   UNL     1     -10.550   6.735  70.187  1.00  0.00    -0.254 C  
BRANCH   6   9
HETATM    9  C   UNL     1      -8.573   7.883  69.058  1.00  0.00    -0.135 A  
HETATM   10  C   UNL     1      -9.404   8.983  68.780  1.00  0.00    -0.140 A  
HETATM   11  C   UNL     1      -8.906  10.138  68.175  1.00  0.00    -0.126 A  
HETATM   12  C   UNL     1      -7.567  10.225  67.814  1.00  0.00    -0.089 A  
HETATM   13  C   UNL     1      -7.220   7.993  68.673  1.00  0.00    -0.081 A  
HETATM   14  C   UNL     1      -6.723   9.146  68.054  1.00  0.00    -0.068 A  
BRANCH  12  15
HETATM   15  O   UNL     1      -7.215  11.398  67.205  1.00  0.00    -0.117 OA 
BRANCH  15  16
HETATM   16  C   UNL     1      -8.180  12.440  67.249  1.00  0.00    -0.184 C  
BRANCH  16  17
HETATM   17  C   UNL     1      -9.111  12.275  66.045  1.00  0.00    -0.012 C  
BRANCH  17  18
HETATM   18  O   UNL     1     -10.306  13.065  66.078  1.00  0.00    -0.274 OA 
BRANCH  18  19
HETATM   19  C   UNL     1     -10.150  14.470  66.251  1.00  0.00    -0.295 C  
BRANCH  19  20
HETATM   20  C   UNL     1     -11.222  15.048  67.185  1.00  0.00    -0.336 C  
BRANCH  20  21
HETATM   21  N   UNL     1     -10.904  14.970  68.686  1.00  0.00    -0.241 N  
HETATM   22  C   UNL     1     -12.020  15.731  69.413  1.00  0.00    -0.305 C  
HETATM   23  C   UNL     1     -10.935  13.522  69.160  1.00  0.00    -0.177 C  
BRANCH  21  24
HETATM   24  C   UNL     1      -9.535  15.639  68.981  1.00  0.00    -0.243 C  
BRANCH  24  25
HETATM   25  C   UNL     1      -9.360  17.023  68.417  1.00  0.00    -0.266 A  
HETATM   26  C   UNL     1     -10.301  18.023  68.708  1.00  0.00    -0.294 A  
HETATM   27  C   UNL     1     -10.233  19.261  68.071  1.00  0.00    -0.507 A  
HETATM   28  C   UNL     1      -9.217  19.518  67.156  1.00  0.00    -0.390 A  
HETATM   29  C   UNL     1      -8.243  18.555  66.903  1.00  0.00    -0.266 A  
HETATM   30  C   UNL     1      -8.304  17.317  67.541  1.00  0.00    -0.204 A  
ENDBRANCH  24  25
ENDBRANCH  21  24
ENDBRANCH  20  21
ENDBRANCH  19  20
ENDBRANCH  18  19
ENDBRANCH  17  18
ENDBRANCH  16  17
ENDBRANCH  15  16
ENDBRANCH  12  15
ENDBRANCH   6   9
ENDBRANCH   5   6
ENDBRANCH   2   5
TORSDOF 12
ENDMDL
MODEL      300
REMARK 921   NORMALIZED FREE ENERGY PREDICTED BY IDOCK:   -2.65 KCAL/MOL
REMARK 922        TOTAL FREE ENERGY PREDICTED BY IDOCK:   -5.78 KCAL/MOL
REMARK 923 INTER-LIGAND FREE ENERGY PREDICTED BY IDOCK:   -5.85 KCAL/MOL
REMARK 924 INTRA-LIGAND FREE ENERGY PREDICTED BY IDOCK:    0.06 KCAL/MOL
REMARK 927      BINDING AFFINITY PREDICTED BY RF-SCORE:    0.00 PKD
ROOT
HETATM    1  C   UNL     1      -8.177  20.387  67.157  1.00  0.00    -0.374 C  
HETATM    2  C   UNL     1      -9.373  19.426  67.166  1.00  0.00    -0.390 C  
HETATM    3  C   UNL     1     -10.090  19.498  68.521  1.00  0.00    -0.543 C  
HETATM    4  C   UNL     1     -10.373  19.958  66.104  1.00  0.00    -0.604 C  
ENDROOT
BRANCH   2   5
HETATM    5  C   UNL     1      -8.992  17.966  66.755  1.00  0.00    -0.272 C  
BRANCH   5   6
HETATM    6  C   UNL     1      -7.848  17.114  67.427  1.00  0.00    -0.191 C  
HETATM    7  C   UNL     1      -7.638  17.460  68.918  1.00  0.00    -0.224 C  
HETATM    8  C   UNL     1      -6.487  17.312  66.728  1.00  0.00    -0.244 C  
BRANCH   6   9
HETATM    9  C   UNL     1      -8.294  15.628  67.362  1.00  0.00    -0.198 A  
HETATM   10  C   UNL     1      -9.401  15.189  66.613  1.00  0.00    -0.291 A  
HETATM   11  C   UNL     1      -9.767  13.842  66.576  1.00  0.00    -0.303 A  
HETATM   12  C   UNL     1      -9.050  12.895  67.297  1.00  0.00    -0.208 A  
HETATM   13  C   UNL     1      -7.589  14.648  68.092  1.00  0.00    -0.123 A  
HETATM   14  C   UNL     1      -7.964  13.300  68.067  1.00  0.00    -0.152 A  
BRANCH  12  15
HETATM   15  O   UNL     1      -9.530  11.618  67.198  1.00  0.00    -0.174 OA 
BRANCH  15  16
HETATM   16  C   UNL     1     -10.015  11.230  65.920  1.00  0.00    -0.234 C  
BRANCH  16  17
HETATM   17  C   UNL     1      -9.140  10.081  65.411  1.00  0.00    -0.193 C  
BRANCH  17  18
HETATM   18  O   UNL     1      -7.797  10.063  65.909  1.00  0.00    -0.112 OA 
BRANCH  18  19
HETATM   19  C   UNL     1      -7.393   8.912  66.644  1.00  0.00    -0.085 C  
BRANCH  19  20
HETATM   20  C   UNL     1      -8.200   8.754  67.940  1.00  0.00    -0.111 C  
BRANCH  20  21
HETATM   21  N   UNL     1      -7.437   8.144  69.124  1.00  0.00    -0.085 N  
HETATM   22  C   UNL     1      -7.226   6.661  68.796  1.00  0.00    -0.085 C  
HETATM   23  C   UNL     1      -6.065   8.795  69.264  1.00  0.00    -0.042 C  
BRANCH  21  24
HETATM   24  C   UNL     1      -8.268   8.280  70.429  1.00  0.00    -0.114 C  
BRANCH  24  25
HETATM   25  C   UNL     1      -7.753   7.492  71.603  1.00  0.00    -0.085 A  
HETATM   26  C   UNL     1      -8.651   6.987  72.557  1.00  0.00    -0.132 A  
HETATM   27  C   UNL     1      -8.178   6.391  73.724  1.00  0.00    -0.114 A  
HETATM   28  C   UNL     1      -6.807   6.275  73.940  1.00  0.00    -0.082 A  
HETATM   29  C   UNL     1      -5.906   6.718  72.975  1.00  0.00    -0.042 A  
HETATM   30  C   UNL     1      -6.376   7.312  71.803  1.00  0.00    -0.040 A  
ENDBRANCH  24  25
ENDBRANCH  21  24
ENDBRANCH  20  21
ENDBRANCH  19  20
ENDBRANCH  18  19
ENDBRANCH  17  18
ENDBRANCH  16  17
ENDBRANCH  15  16
ENDBRANCH  12  15
ENDBRANCH   6   9
ENDBRANCH   5   6
ENDBRANCH   2   5
TORSDOF 12
ENDMDL
MODEL      301
REMARK 921   NORMALIZED FREE ENERGY PREDICTED BY IDOCK:   -2.65 KCAL/MOL
REMARK 922        TOTAL FREE ENERGY PREDICTED BY IDOCK:   -5.78 KCAL/MOL
REMARK 923 INTER-LIGAND FREE ENERGY PREDICTED BY IDOCK:   -4.99 KCAL/MOL
REMARK 924 INTRA-LIGAND FREE ENERGY PREDICTED BY IDOCK:   -0.79 KCAL/MOL
REMARK 927      BINDING AFFINITY PREDICTED BY RF-SCORE:    0.00 PKD
ROOT
HETATM    1  C   UNL     1      -7.494   4.723  69.672  1.00  0.00    -0.056 C  
HETATM    2  C   UNL     1      -7.851   3.971  68.383  1.00  0.00    -0.069 C  
HETATM    3  C   UNL     1      -7.020   2.685  68.281  1.00  0.00    -0.048 C  
HETATM    4  C   UNL     1      -9.334   3.534  68.525  1.00  0.00    -0.229 C  
ENDROOT
BRANCH   2   5
HETATM    5  C   UNL     1      -7.750   4.864  67.103  1.00  0.00    -0.092 C  
BRANCH   5   6
HETATM    6  C   UNL     1      -6.399   5.318  66.429  1.00  0.00    -0.039 C  
HETATM    7  C   UNL     1      -5.763   4.214  65.555  1.00  0.00    -0.022 C  
HETATM    8  C   UNL     1      -5.336   5.729  67.469  1.00  0.00    -0.005 C  
BRANCH   6   9
HETATM    9  C   UNL     1      -6.740   6.505  65.487  1.00  0.00    -0.047 A  
HETATM   10  C   UNL     1      -6.456   7.845  65.804  1.00  0.00    -0.042 A  
HETATM   11  C   UNL     1      -6.774   8.884  64.927  1.00  0.00    -0.069 A  
HETATM   12  C   UNL     1      -7.399   8.618  63.715  1.00  0.00    -0.101 A  
HETATM   13  C   UNL     1      -7.383   6.263  64.255  1.00  0.00    -0.074 A  
HETATM   14  C   UNL     1      -7.715   7.305  63.382  1.00  0.00    -0.124 A  
BRANCH  12  15
HETATM   15  O   UNL     1      -7.681   9.726  62.963  1.00  0.00    -0.124 OA 
BRANCH  15  16
HETATM   16  C   UNL     1      -9.040   9.896  62.585  1.00  0.00    -0.286 C  
BRANCH  16  17
HETATM   17  C   UNL     1      -9.647  10.981  63.479  1.00  0.00    -0.313 C  
BRANCH  17  18
HETATM   18  O   UNL     1     -10.313  10.507  64.655  1.00  0.00    -0.344 OA 
BRANCH  18  19
HETATM   19  C   UNL     1     -10.032  11.182  65.877  1.00  0.00    -0.239 C  
BRANCH  19  20
HETATM   20  C   UNL     1     -11.200  11.074  66.867  1.00  0.00    -0.136 C  
BRANCH  20  21
HETATM   21  N   UNL     1     -10.816  11.135  68.352  1.00  0.00    -0.190 N  
HETATM   22  C   UNL     1     -10.771   9.687  68.857  1.00  0.00    -0.206 C  
HETATM   23  C   UNL     1      -9.423  11.734  68.516  1.00  0.00    -0.163 C  
BRANCH  21  24
HETATM   24  C   UNL     1     -11.879  11.937  69.151  1.00  0.00    -0.311 C  
BRANCH  24  25
HETATM   25  C   UNL     1     -11.623  13.416  69.256  1.00  0.00    -0.365 A  
HETATM   26  C   UNL     1     -11.381  14.000  70.509  1.00  0.00     0.065 A  
HETATM   27  C   UNL     1     -11.295  15.384  70.637  1.00  0.00    -0.360 A  
HETATM   28  C   UNL     1     -11.428  16.197  69.515  1.00  0.00    -0.292 A  
HETATM   29  C   UNL     1     -11.608  15.628  68.256  1.00  0.00    -0.326 A  
HETATM   30  C   UNL     1     -11.691  14.242  68.123  1.00  0.00    -0.385 A  
ENDBRANCH  24  25
ENDBRANCH  21  24
ENDBRANCH  20  21
ENDBRANCH  19  20
ENDBRANCH  18  19
ENDBRANCH  17  18
ENDBRANCH  16  17
ENDBRANCH  15  16
ENDBRANCH  12  15
ENDBRANCH   6   9
ENDBRANCH   5   6
ENDBRANCH   2   5
TORSDOF 12
ENDMDL
MODEL      302
REMARK 921   NORMALIZED FREE ENERGY PREDICTED BY IDOCK:   -2.62 KCAL/MOL
REMARK 922        TOTAL FREE ENERGY PREDICTED BY IDOCK:   -5.73 KCAL/MOL
REMARK 923 INTER-LIGAND FREE ENERGY PREDICTED BY IDOCK:   -5.74 KCAL/MOL
REMARK 924 INTRA-LIGAND FREE ENERGY PREDICTED BY IDOCK:    0.01 KCAL/MOL
REMARK 927      BINDING AFFINITY PREDICTED BY RF-SCORE:    0.00 PKD
ROOT
HETATM    1  C   UNL     1     -10.233   5.417  71.049  1.00  0.00    -0.296 C  
HETATM    2  C   UNL     1      -8.743   5.100  71.229  1.00  0.00    -0.137 C  
HETATM    3  C   UNL     1      -8.176   5.905  72.406  1.00  0.00    -0.110 C  
HETATM    4  C   UNL     1      -8.657   3.602  71.631  1.00  0.00    -0.114 C  
ENDROOT
BRANCH   2   5
HETATM    5  C   UNL     1      -7.914   5.276  69.915  1.00  0.00    -0.083 C  
BRANCH   5   6
HETATM    6  C   UNL     1      -8.422   4.887  68.474  1.00  0.00    -0.095 C  
HETATM    7  C   UNL     1      -9.795   4.177  68.492  1.00  0.00    -0.085 C  
HETATM    8  C   UNL     1      -7.444   3.943  67.744  1.00  0.00    -0.067 C  
BRANCH   6   9
HETATM    9  C   UNL     1      -8.605   6.213  67.686  1.00  0.00    -0.106 A  
HETATM   10  C   UNL     1      -9.837   6.625  67.148  1.00  0.00    -0.194 A  
HETATM   11  C   UNL     1      -9.962   7.827  66.450  1.00  0.00    -0.164 A  
HETATM   12  C   UNL     1      -8.857   8.647  66.253  1.00  0.00    -0.157 A  
HETATM   13  C   UNL     1      -7.498   7.059  67.464  1.00  0.00    -0.097 A  
HETATM   14  C   UNL     1      -7.619   8.257  66.752  1.00  0.00    -0.091 A  
BRANCH  12  15
HETATM   15  O   UNL     1      -9.110   9.780  65.529  1.00  0.00    -0.168 OA 
BRANCH  15  16
HETATM   16  C   UNL     1     -10.269  10.513  65.899  1.00  0.00    -0.245 C  
BRANCH  16  17
HETATM   17  C   UNL     1      -9.947  11.297  67.173  1.00  0.00    -0.192 C  
BRANCH  17  18
HETATM   18  O   UNL     1      -8.852  12.215  67.071  1.00  0.00    -0.189 OA 
BRANCH  18  19
HETATM   19  C   UNL     1      -8.544  12.988  68.226  1.00  0.00    -0.167 C  
BRANCH  19  20
HETATM   20  C   UNL     1      -9.330  14.306  68.253  1.00  0.00    -0.208 C  
BRANCH  20  21
HETATM   21  N   UNL     1      -8.521  15.552  68.643  1.00  0.00    -0.163 N  
HETATM   22  C   UNL     1      -9.472  16.470  69.421  1.00  0.00    -0.068 C  
HETATM   23  C   UNL     1      -7.373  15.169  69.570  1.00  0.00    -0.210 C  
BRANCH  21  24
HETATM   24  C   UNL     1      -8.010  16.282  67.372  1.00  0.00    -0.155 C  
BRANCH  24  25
HETATM   25  C   UNL     1      -8.696  17.584  67.059  1.00  0.00    -0.254 A  
HETATM   26  C   UNL     1      -8.014  18.798  67.239  1.00  0.00    -0.251 A  
HETATM   27  C   UNL     1      -8.685  20.010  67.099  1.00  0.00    -0.414 A  
HETATM   28  C   UNL     1     -10.035  20.024  66.759  1.00  0.00    -0.585 A  
HETATM   29  C   UNL     1     -10.708  18.829  66.519  1.00  0.00    -0.335 A  
HETATM   30  C   UNL     1     -10.039  17.612  66.653  1.00  0.00    -0.335 A  
ENDBRANCH  24  25
ENDBRANCH  21  24
ENDBRANCH  20  21
ENDBRANCH  19  20
ENDBRANCH  18  19
ENDBRANCH  17  18
ENDBRANCH  16  17
ENDBRANCH  15  16
ENDBRANCH  12  15
ENDBRANCH   6   9
ENDBRANCH   5   6
ENDBRANCH   2   5
TORSDOF 12
ENDMDL
MODEL      303
REMARK 921   NORMALIZED FREE ENERGY PREDICTED BY IDOCK:   -2.60 KCAL/MOL
REMARK 922        TOTAL FREE ENERGY PREDICTED BY IDOCK:   -5.70 KCAL/MOL
REMARK 923 INTER-LIGAND FREE ENERGY PREDICTED BY IDOCK:   -5.55 KCAL/MOL
REMARK 924 INTRA-LIGAND FREE ENERGY PREDICTED BY IDOCK:   -0.15 KCAL/MOL
REMARK 927      BINDING AFFINITY PREDICTED BY RF-SCORE:    0.00 PKD
ROOT
HETATM    1  C   UNL     1      -7.267  13.012  67.983  1.00  0.00    -0.119 C  
HETATM    2  C   UNL     1      -7.776  11.597  67.683  1.00  0.00    -0.133 C  
HETATM    3  C   UNL     1      -6.638  10.583  67.862  1.00  0.00    -0.061 C  
HETATM    4  C   UNL     1      -8.838  11.271  68.768  1.00  0.00    -0.106 C  
ENDROOT
BRANCH   2   5
HETATM    5  C   UNL     1      -8.482  11.479  66.292  1.00  0.00    -0.108 C  
BRANCH   5   6
HETATM    6  C   UNL     1      -9.795  10.650  66.019  1.00  0.00    -0.280 C  
HETATM    7  C   UNL     1     -10.305  10.793  64.567  1.00  0.00    -0.401 C  
HETATM    8  C   UNL     1     -10.956  11.073  66.942  1.00  0.00    -0.311 C  
BRANCH   6   9
HETATM    9  C   UNL     1      -9.436   9.153  66.230  1.00  0.00    -0.299 A  
HETATM   10  C   UNL     1      -8.579   8.439  65.374  1.00  0.00    -0.193 A  
HETATM   11  C   UNL     1      -8.277   7.096  65.601  1.00  0.00    -0.138 A  
HETATM   12  C   UNL     1      -8.833   6.419  66.680  1.00  0.00    -0.130 A  
HETATM   13  C   UNL     1      -9.994   8.441  67.313  1.00  0.00    -0.291 A  
HETATM   14  C   UNL     1      -9.703   7.090  67.532  1.00  0.00    -0.167 A  
BRANCH  12  15
HETATM   15  O   UNL     1      -8.478   5.101  66.771  1.00  0.00    -0.108 OA 
BRANCH  15  16
HETATM   16  C   UNL     1      -8.152   4.630  68.071  1.00  0.00    -0.088 C  
BRANCH  16  17
HETATM   17  C   UNL     1      -9.327   3.789  68.578  1.00  0.00    -0.166 C  
BRANCH  17  18
HETATM   18  O   UNL     1     -10.197   4.444  69.509  1.00  0.00    -0.115 OA 
BRANCH  18  19
HETATM   19  C   UNL     1      -9.935   4.242  70.894  1.00  0.00    -0.155 C  
BRANCH  19  20
HETATM   20  C   UNL     1      -9.693   5.569  71.625  1.00  0.00    -0.161 C  
BRANCH  20  21
HETATM   21  N   UNL     1     -10.895   6.126  72.402  1.00  0.00    -0.230 N  
HETATM   22  C   UNL     1     -11.731   6.933  71.401  1.00  0.00    -0.316 C  
HETATM   23  C   UNL     1     -11.760   4.986  72.927  1.00  0.00    -0.115 C  
BRANCH  21  24
HETATM   24  C   UNL     1     -10.412   7.053  73.550  1.00  0.00    -0.375 C  
BRANCH  24  25
HETATM   25  C   UNL     1      -8.991   7.533  73.434  1.00  0.00    -0.252 A  
HETATM   26  C   UNL     1      -8.142   7.489  74.552  1.00  0.00    -0.235 A  
HETATM   27  C   UNL     1      -6.877   8.069  74.498  1.00  0.00    -0.158 A  
HETATM   28  C   UNL     1      -6.439   8.678  73.326  1.00  0.00    -0.053 A  
HETATM   29  C   UNL     1      -7.247   8.676  72.192  1.00  0.00    -0.058 A  
HETATM   30  C   UNL     1      -8.513   8.093  72.239  1.00  0.00    -0.227 A  
ENDBRANCH  24  25
ENDBRANCH  21  24
ENDBRANCH  20  21
ENDBRANCH  19  20
ENDBRANCH  18  19
ENDBRANCH  17  18
ENDBRANCH  16  17
ENDBRANCH  15  16
ENDBRANCH  12  15
ENDBRANCH   6   9
ENDBRANCH   5   6
ENDBRANCH   2   5
TORSDOF 12
ENDMDL
MODEL      304
REMARK 921   NORMALIZED FREE ENERGY PREDICTED BY IDOCK:   -2.59 KCAL/MOL
REMARK 922        TOTAL FREE ENERGY PREDICTED BY IDOCK:   -5.67 KCAL/MOL
REMARK 923 INTER-LIGAND FREE ENERGY PREDICTED BY IDOCK:   -5.62 KCAL/MOL
REMARK 924 INTRA-LIGAND FREE ENERGY PREDICTED BY IDOCK:   -0.05 KCAL/MOL
REMARK 927      BINDING AFFINITY PREDICTED BY RF-SCORE:    0.00 PKD
ROOT
HETATM    1  C   UNL     1      -5.920  18.132  69.591  1.00  0.00    -0.244 C  
HETATM    2  C   UNL     1      -7.057  18.659  68.706  1.00  0.00    -0.326 C  
HETATM    3  C   UNL     1      -7.546  20.014  69.236  1.00  0.00     0.005 C  
HETATM    4  C   UNL     1      -6.439  18.924  67.307  1.00  0.00    -0.189 C  
ENDROOT
BRANCH   2   5
HETATM    5  C   UNL     1      -8.215  17.626  68.515  1.00  0.00    -0.292 C  
BRANCH   5   6
HETATM    6  C   UNL     1      -8.907  17.298  67.137  1.00  0.00    -0.237 C  
HETATM    7  C   UNL     1      -7.894  16.946  66.025  1.00  0.00    -0.126 C  
HETATM    8  C   UNL     1      -9.751  18.477  66.612  1.00  0.00    -0.353 C  
BRANCH   6   9
HETATM    9  C   UNL     1      -9.791  16.041  67.363  1.00  0.00    -0.236 A  
HETATM   10  C   UNL     1     -10.479  15.790  68.563  1.00  0.00    -0.236 A  
HETATM   11  C   UNL     1     -11.268  14.650  68.725  1.00  0.00    -0.285 A  
HETATM   12  C   UNL     1     -11.383  13.718  67.701  1.00  0.00    -0.304 A  
HETATM   13  C   UNL     1      -9.916  15.075  66.342  1.00  0.00    -0.295 A  
HETATM   14  C   UNL     1     -10.696  13.925  66.509  1.00  0.00    -0.277 A  
BRANCH  12  15
HETATM   15  O   UNL     1     -12.162  12.634  68.000  1.00  0.00    -0.268 OA 
BRANCH  15  16
HETATM   16  C   UNL     1     -12.026  12.109  69.313  1.00  0.00    -0.262 C  
BRANCH  16  17
HETATM   17  C   UNL     1     -10.845  11.136  69.314  1.00  0.00    -0.229 C  
BRANCH  17  18
HETATM   18  O   UNL     1     -10.686  10.360  68.120  1.00  0.00    -0.201 OA 
BRANCH  18  19
HETATM   19  C   UNL     1      -9.475   9.624  67.981  1.00  0.00    -0.132 C  
BRANCH  19  20
HETATM   20  C   UNL     1      -9.177   9.293  66.512  1.00  0.00    -0.161 C  
BRANCH  20  21
HETATM   21  N   UNL     1      -7.741   9.573  66.048  1.00  0.00    -0.100 N  
HETATM   22  C   UNL     1      -7.846  10.307  64.705  1.00  0.00    -0.130 C  
HETATM   23  C   UNL     1      -7.035  10.496  67.035  1.00  0.00    -0.089 C  
BRANCH  21  24
HETATM   24  C   UNL     1      -6.966   8.241  65.859  1.00  0.00    -0.064 C  
BRANCH  24  25
HETATM   25  C   UNL     1      -7.461   7.086  66.688  1.00  0.00    -0.081 A  
HETATM   26  C   UNL     1      -8.363   6.163  66.138  1.00  0.00    -0.128 A  
HETATM   27  C   UNL     1      -8.943   5.182  66.938  1.00  0.00    -0.109 A  
HETATM   28  C   UNL     1      -8.615   5.100  68.289  1.00  0.00    -0.098 A  
HETATM   29  C   UNL     1      -7.676   5.973  68.834  1.00  0.00    -0.092 A  
HETATM   30  C   UNL     1      -7.089   6.954  68.035  1.00  0.00    -0.086 A  
ENDBRANCH  24  25
ENDBRANCH  21  24
ENDBRANCH  20  21
ENDBRANCH  19  20
ENDBRANCH  18  19
ENDBRANCH  17  18
ENDBRANCH  16  17
ENDBRANCH  15  16
ENDBRANCH  12  15
ENDBRANCH   6   9
ENDBRANCH   5   6
ENDBRANCH   2   5
TORSDOF 12
ENDMDL
MODEL      305
REMARK 921   NORMALIZED FREE ENERGY PREDICTED BY IDOCK:   -2.58 KCAL/MOL
REMARK 922        TOTAL FREE ENERGY PREDICTED BY IDOCK:   -5.65 KCAL/MOL
REMARK 923 INTER-LIGAND FREE ENERGY PREDICTED BY IDOCK:   -6.00 KCAL/MOL
REMARK 924 INTRA-LIGAND FREE ENERGY PREDICTED BY IDOCK:    0.35 KCAL/MOL
REMARK 927      BINDING AFFINITY PREDICTED BY RF-SCORE:    0.00 PKD
ROOT
HETATM    1  C   UNL     1      -9.212   4.423  66.659  1.00  0.00    -0.143 C  
HETATM    2  C   UNL     1      -9.196   5.326  67.900  1.00  0.00    -0.122 C  
HETATM    3  C   UNL     1     -10.606   5.410  68.502  1.00  0.00    -0.153 C  
HETATM    4  C   UNL     1      -8.304   4.614  68.951  1.00  0.00    -0.085 C  
ENDROOT
BRANCH   2   5
HETATM    5  C   UNL     1      -8.566   6.731  67.630  1.00  0.00    -0.121 C  
BRANCH   5   6
HETATM    6  C   UNL     1      -7.116   6.969  67.056  1.00  0.00    -0.079 C  
HETATM    7  C   UNL     1      -6.439   5.667  66.574  1.00  0.00    -0.050 C  
HETATM    8  C   UNL     1      -6.172   7.601  68.099  1.00  0.00    -0.044 C  
BRANCH   6   9
HETATM    9  C   UNL     1      -7.267   7.891  65.815  1.00  0.00    -0.071 A  
HETATM   10  C   UNL     1      -6.875   9.241  65.806  1.00  0.00    -0.084 A  
HETATM   11  C   UNL     1      -7.022  10.035  64.668  1.00  0.00    -0.137 A  
HETATM   12  C   UNL     1      -7.581   9.511  63.509  1.00  0.00    -0.118 A  
HETATM   13  C   UNL     1      -7.840   7.386  64.628  1.00  0.00    -0.123 A  
HETATM   14  C   UNL     1      -8.001   8.185  63.491  1.00  0.00    -0.145 A  
BRANCH  12  15
HETATM   15  O   UNL     1      -7.694  10.402  62.477  1.00  0.00    -0.140 OA 
BRANCH  15  16
HETATM   16  C   UNL     1      -8.865  11.207  62.472  1.00  0.00    -0.281 C  
BRANCH  16  17
HETATM   17  C   UNL     1      -9.999  10.397  63.105  1.00  0.00    -0.034 C  
BRANCH  17  18
HETATM   18  O   UNL     1     -11.034  11.168  63.727  1.00  0.00    -0.363 OA 
BRANCH  18  19
HETATM   19  C   UNL     1     -10.646  12.383  64.359  1.00  0.00    -0.337 C  
BRANCH  19  20
HETATM   20  C   UNL     1     -11.279  12.526  65.750  1.00  0.00    -0.320 C  
BRANCH  20  21
HETATM   21  N   UNL     1     -10.501  11.872  66.902  1.00  0.00    -0.217 N  
HETATM   22  C   UNL     1     -10.785  10.367  66.828  1.00  0.00    -0.168 C  
HETATM   23  C   UNL     1      -9.003  12.079  66.713  1.00  0.00    -0.198 C  
BRANCH  21  24
HETATM   24  C   UNL     1     -10.986  12.432  68.266  1.00  0.00    -0.236 C  
BRANCH  24  25
HETATM   25  C   UNL     1     -11.137  11.412  69.362  1.00  0.00    -0.301 A  
HETATM   26  C   UNL     1     -10.194  10.381  69.497  1.00  0.00    -0.258 A  
HETATM   27  C   UNL     1     -10.404   9.348  70.407  1.00  0.00    -0.318 A  
HETATM   28  C   UNL     1     -11.546   9.343  71.203  1.00  0.00    -0.415 A  
HETATM   29  C   UNL     1     -12.460  10.390  71.122  1.00  0.00    -0.509 A  
HETATM   30  C   UNL     1     -12.251  11.429  70.215  1.00  0.00    -0.433 A  
ENDBRANCH  24  25
ENDBRANCH  21  24
ENDBRANCH  20  21
ENDBRANCH  19  20
ENDBRANCH  18  19
ENDBRANCH  17  18
ENDBRANCH  16  17
ENDBRANCH  15  16
ENDBRANCH  12  15
ENDBRANCH   6   9
ENDBRANCH   5   6
ENDBRANCH   2   5
TORSDOF 12
ENDMDL
MODEL      306
REMARK 921   NORMALIZED FREE ENERGY PREDICTED BY IDOCK:   -2.56 KCAL/MOL
REMARK 922        TOTAL FREE ENERGY PREDICTED BY IDOCK:   -5.63 KCAL/MOL
REMARK 923 INTER-LIGAND FREE ENERGY PREDICTED BY IDOCK:   -5.64 KCAL/MOL
REMARK 924 INTRA-LIGAND FREE ENERGY PREDICTED BY IDOCK:    0.01 KCAL/MOL
REMARK 927      BINDING AFFINITY PREDICTED BY RF-SCORE:    0.00 PKD
ROOT
HETATM    1  C   UNL     1      -9.889   4.755  72.448  1.00  0.00    -0.211 C  
HETATM    2  C   UNL     1      -9.153   3.447  72.763  1.00  0.00    -0.113 C  
HETATM    3  C   UNL     1      -8.800   3.393  74.256  1.00  0.00    -0.091 C  
HETATM    4  C   UNL     1     -10.165   2.298  72.503  1.00  0.00    -0.230 C  
ENDROOT
BRANCH   2   5
HETATM    5  C   UNL     1      -7.919   3.197  71.836  1.00  0.00    -0.058 C  
BRANCH   5   6
HETATM    6  C   UNL     1      -8.004   2.685  70.347  1.00  0.00    -0.051 C  
HETATM    7  C   UNL     1      -9.173   1.702  70.115  1.00  0.00    -0.165 C  
HETATM    8  C   UNL     1      -6.717   1.958  69.905  1.00  0.00    -0.033 C  
BRANCH   6   9
HETATM    9  C   UNL     1      -8.271   3.929  69.456  1.00  0.00    -0.066 A  
HETATM   10  C   UNL     1      -9.481   4.140  68.772  1.00  0.00    -0.231 A  
HETATM   11  C   UNL     1      -9.684   5.274  67.984  1.00  0.00    -0.179 A  
HETATM   12  C   UNL     1      -8.681   6.225  67.843  1.00  0.00    -0.114 A  
HETATM   13  C   UNL     1      -7.265   4.904  69.288  1.00  0.00    -0.056 A  
HETATM   14  C   UNL     1      -7.463   6.035  68.488  1.00  0.00    -0.087 A  
BRANCH  12  15
HETATM   15  O   UNL     1      -8.998   7.272  67.022  1.00  0.00    -0.123 OA 
BRANCH  15  16
HETATM   16  C   UNL     1     -10.362   7.672  67.017  1.00  0.00    -0.330 C  
BRANCH  16  17
HETATM   17  C   UNL     1     -10.522   8.819  68.018  1.00  0.00    -0.204 C  
BRANCH  17  18
HETATM   18  O   UNL     1      -9.789  10.011  67.712  1.00  0.00    -0.151 OA 
BRANCH  18  19
HETATM   19  C   UNL     1     -10.407  11.253  68.032  1.00  0.00    -0.183 C  
BRANCH  19  20
HETATM   20  C   UNL     1     -11.406  11.685  66.951  1.00  0.00    -0.295 C  
BRANCH  20  21
HETATM   21  N   UNL     1     -11.206  13.102  66.393  1.00  0.00    -0.293 N  
HETATM   22  C   UNL     1     -10.165  12.991  65.271  1.00  0.00    -0.279 C  
HETATM   23  C   UNL     1     -12.503  13.619  65.782  1.00  0.00    -0.477 C  
BRANCH  21  24
HETATM   24  C   UNL     1     -10.681  14.049  67.504  1.00  0.00    -0.268 C  
BRANCH  24  25
HETATM   25  C   UNL     1     -10.094  15.347  67.018  1.00  0.00    -0.249 A  
HETATM   26  C   UNL     1      -8.757  15.664  67.306  1.00  0.00    -0.213 A  
HETATM   27  C   UNL     1      -8.249  16.924  66.995  1.00  0.00    -0.228 A  
HETATM   28  C   UNL     1      -9.063  17.869  66.377  1.00  0.00    -0.253 A  
HETATM   29  C   UNL     1     -10.373  17.547  66.032  1.00  0.00    -0.309 A  
HETATM   30  C   UNL     1     -10.885  16.286  66.338  1.00  0.00    -0.100 A  
ENDBRANCH  24  25
ENDBRANCH  21  24
ENDBRANCH  20  21
ENDBRANCH  19  20
ENDBRANCH  18  19
ENDBRANCH  17  18
ENDBRANCH  16  17
ENDBRANCH  15  16
ENDBRANCH  12  15
ENDBRANCH   6   9
ENDBRANCH   5   6
ENDBRANCH   2   5
TORSDOF 12
ENDMDL
MODEL      307
REMARK 921   NORMALIZED FREE ENERGY PREDICTED BY IDOCK:   -2.53 KCAL/MOL
REMARK 922        TOTAL FREE ENERGY PREDICTED BY IDOCK:   -5.57 KCAL/MOL
REMARK 923 INTER-LIGAND FREE ENERGY PREDICTED BY IDOCK:   -6.22 KCAL/MOL
REMARK 924 INTRA-LIGAND FREE ENERGY PREDICTED BY IDOCK:    0.65 KCAL/MOL
REMARK 927      BINDING AFFINITY PREDICTED BY RF-SCORE:    0.00 PKD
ROOT
HETATM    1  C   UNL     1      -5.235   4.185  64.678  1.00  0.00    -0.009 C  
HETATM    2  C   UNL     1      -6.125   4.206  65.927  1.00  0.00    -0.031 C  
HETATM    3  C   UNL     1      -7.193   3.109  65.826  1.00  0.00    -0.071 C  
HETATM    4  C   UNL     1      -5.212   3.831  67.125  1.00  0.00    -0.012 C  
ENDROOT
BRANCH   2   5
HETATM    5  C   UNL     1      -6.729   5.617  66.227  1.00  0.00    -0.057 C  
BRANCH   5   6
HETATM    6  C   UNL     1      -8.034   6.196  65.559  1.00  0.00    -0.117 C  
HETATM    7  C   UNL     1      -8.941   5.097  64.960  1.00  0.00    -0.109 C  
HETATM    8  C   UNL     1      -7.717   7.183  64.416  1.00  0.00    -0.117 C  
BRANCH   6   9
HETATM    9  C   UNL     1      -8.847   6.894  66.684  1.00  0.00    -0.140 A  
HETATM   10  C   UNL     1      -8.770   6.515  68.036  1.00  0.00    -0.116 A  
HETATM   11  C   UNL     1      -9.513   7.171  69.019  1.00  0.00    -0.143 A  
HETATM   12  C   UNL     1     -10.367   8.214  68.681  1.00  0.00    -0.200 A  
HETATM   13  C   UNL     1      -9.728   7.949  66.366  1.00  0.00    -0.235 A  
HETATM   14  C   UNL     1     -10.484   8.597  67.349  1.00  0.00    -0.351 A  
BRANCH  12  15
HETATM   15  O   UNL     1     -11.057   8.750  69.734  1.00  0.00    -0.192 OA 
BRANCH  15  16
HETATM   16  C   UNL     1     -10.533   9.954  70.277  1.00  0.00    -0.291 C  
BRANCH  16  17
HETATM   17  C   UNL     1      -9.773  10.682  69.165  1.00  0.00    -0.189 C  
BRANCH  17  18
HETATM   18  O   UNL     1     -10.382  11.890  68.692  1.00  0.00    -0.214 OA 
BRANCH  18  19
HETATM   19  C   UNL     1     -10.685  11.961  67.302  1.00  0.00    -0.236 C  
BRANCH  19  20
HETATM   20  C   UNL     1     -10.148  13.253  66.671  1.00  0.00    -0.266 C  
BRANCH  20  21
HETATM   21  N   UNL     1     -11.214  14.273  66.243  1.00  0.00    -0.330 N  
HETATM   22  C   UNL     1     -12.285  13.493  65.470  1.00  0.00    -0.451 C  
HETATM   23  C   UNL     1     -11.875  14.894  67.468  1.00  0.00    -0.232 C  
BRANCH  21  24
HETATM   24  C   UNL     1     -10.586  15.355  65.324  1.00  0.00    -0.428 C  
BRANCH  24  25
HETATM   25  C   UNL     1     -10.116  16.600  66.025  1.00  0.00    -0.359 A  
HETATM   26  C   UNL     1     -10.608  17.855  65.633  1.00  0.00    -0.110 A  
HETATM   27  C   UNL     1     -10.069  19.022  66.169  1.00  0.00    -0.462 A  
HETATM   28  C   UNL     1      -9.051  18.949  67.115  1.00  0.00    -0.305 A  
HETATM   29  C   UNL     1      -8.595  17.709  67.557  1.00  0.00    -0.222 A  
HETATM   30  C   UNL     1      -9.134  16.538  67.026  1.00  0.00    -0.228 A  
ENDBRANCH  24  25
ENDBRANCH  21  24
ENDBRANCH  20  21
ENDBRANCH  19  20
ENDBRANCH  18  19
ENDBRANCH  17  18
ENDBRANCH  16  17
ENDBRANCH  15  16
ENDBRANCH  12  15
ENDBRANCH   6   9
ENDBRANCH   5   6
ENDBRANCH   2   5
TORSDOF 12
ENDMDL
MODEL      308
REMARK 921   NORMALIZED FREE ENERGY PREDICTED BY IDOCK:   -2.46 KCAL/MOL
REMARK 922        TOTAL FREE ENERGY PREDICTED BY IDOCK:   -5.45 KCAL/MOL
REMARK 923 INTER-LIGAND FREE ENERGY PREDICTED BY IDOCK:   -4.83 KCAL/MOL
REMARK 924 INTRA-LIGAND FREE ENERGY PREDICTED BY IDOCK:   -0.63 KCAL/MOL
REMARK 927      BINDING AFFINITY PREDICTED BY RF-SCORE:    0.00 PKD
ROOT
HETATM    1  C   UNL     1      -9.095   7.264  66.092  1.00  0.00    -0.160 C  
HETATM    2  C   UNL     1      -8.355   5.938  65.878  1.00  0.00    -0.136 C  
HETATM    3  C   UNL     1      -9.327   4.876  65.345  1.00  0.00    -0.147 C  
HETATM    4  C   UNL     1      -7.312   6.191  64.755  1.00  0.00    -0.075 C  
ENDROOT
BRANCH   2   5
HETATM    5  C   UNL     1      -7.568   5.462  67.143  1.00  0.00    -0.092 C  
BRANCH   5   6
HETATM    6  C   UNL     1      -7.804   6.006  68.604  1.00  0.00    -0.100 C  
HETATM    7  C   UNL     1      -6.977   5.249  69.667  1.00  0.00    -0.058 C  
HETATM    8  C   UNL     1      -9.282   5.902  69.034  1.00  0.00    -0.132 C  
BRANCH   6   9
HETATM    9  C   UNL     1      -7.324   7.483  68.620  1.00  0.00    -0.095 A  
HETATM   10  C   UNL     1      -6.114   7.905  68.043  1.00  0.00    -0.046 A  
HETATM   11  C   UNL     1      -5.720   9.244  68.073  1.00  0.00    -0.038 A  
HETATM   12  C   UNL     1      -6.515  10.200  68.693  1.00  0.00    -0.052 A  
HETATM   13  C   UNL     1      -8.109   8.471  69.251  1.00  0.00    -0.113 A  
HETATM   14  C   UNL     1      -7.708   9.812  69.294  1.00  0.00    -0.101 A  
BRANCH  12  15
HETATM   15  O   UNL     1      -6.001  11.468  68.677  1.00  0.00    -0.046 OA 
BRANCH  15  16
HETATM   16  C   UNL     1      -6.767  12.462  69.343  1.00  0.00    -0.032 C  
BRANCH  16  17
HETATM   17  C   UNL     1      -6.893  13.667  68.407  1.00  0.00    -0.102 C  
BRANCH  17  18
HETATM   18  O   UNL     1      -7.714  14.737  68.890  1.00  0.00    -0.132 OA 
BRANCH  18  19
HETATM   19  C   UNL     1      -9.004  14.880  68.304  1.00  0.00    -0.177 C  
BRANCH  19  20
HETATM   20  C   UNL     1     -10.121  14.726  69.345  1.00  0.00    -0.109 C  
BRANCH  20  21
HETATM   21  N   UNL     1     -11.172  13.650  69.034  1.00  0.00    -0.263 N  
HETATM   22  C   UNL     1     -10.428  12.484  68.371  1.00  0.00    -0.240 C  
HETATM   23  C   UNL     1     -11.801  13.136  70.324  1.00  0.00    -0.224 C  
BRANCH  21  24
HETATM   24  C   UNL     1     -12.244  14.210  68.060  1.00  0.00    -0.146 C  
BRANCH  24  25
HETATM   25  C   UNL     1     -11.990  13.940  66.602  1.00  0.00    -0.474 A  
HETATM   26  C   UNL     1     -12.440  12.743  66.021  1.00  0.00    -0.076 A  
HETATM   27  C   UNL     1     -12.080  12.414  64.716  1.00  0.00    -0.483 A  
HETATM   28  C   UNL     1     -11.287  13.284  63.973  1.00  0.00    -0.403 A  
HETATM   29  C   UNL     1     -10.884  14.501  64.516  1.00  0.00    -0.239 A  
HETATM   30  C   UNL     1     -11.246  14.836  65.820  1.00  0.00    -0.337 A  
ENDBRANCH  24  25
ENDBRANCH  21  24
ENDBRANCH  20  21
ENDBRANCH  19  20
ENDBRANCH  18  19
ENDBRANCH  17  18
ENDBRANCH  16  17
ENDBRANCH  15  16
ENDBRANCH  12  15
ENDBRANCH   6   9
ENDBRANCH   5   6
ENDBRANCH   2   5
TORSDOF 12
ENDMDL
MODEL      309
REMARK 921   NORMALIZED FREE ENERGY PREDICTED BY IDOCK:   -2.45 KCAL/MOL
REMARK 922        TOTAL FREE ENERGY PREDICTED BY IDOCK:   -5.44 KCAL/MOL
REMARK 923 INTER-LIGAND FREE ENERGY PREDICTED BY IDOCK:   -5.98 KCAL/MOL
REMARK 924 INTRA-LIGAND FREE ENERGY PREDICTED BY IDOCK:    0.54 KCAL/MOL
REMARK 927      BINDING AFFINITY PREDICTED BY RF-SCORE:    0.00 PKD
ROOT
HETATM    1  C   UNL     1      -9.264  15.488  68.537  1.00  0.00    -0.197 C  
HETATM    2  C   UNL     1      -9.245  14.706  67.217  1.00  0.00    -0.212 C  
HETATM    3  C   UNL     1      -9.462  15.664  66.039  1.00  0.00    -0.390 C  
HETATM    4  C   UNL     1      -7.810  14.132  67.066  1.00  0.00     0.070 C  
ENDROOT
BRANCH   2   5
HETATM    5  C   UNL     1     -10.233  13.494  67.207  1.00  0.00    -0.242 C  
BRANCH   5   6
HETATM    6  C   UNL     1     -10.712  12.737  65.909  1.00  0.00    -0.294 C  
HETATM    7  C   UNL     1     -10.245  13.424  64.606  1.00  0.00    -0.338 C  
HETATM    8  C   UNL     1     -12.248  12.629  65.829  1.00  0.00    -0.427 C  
BRANCH   6   9
HETATM    9  C   UNL     1     -10.058  11.328  65.941  1.00  0.00    -0.291 A  
HETATM   10  C   UNL     1     -10.227  10.426  67.006  1.00  0.00    -0.277 A  
HETATM   11  C   UNL     1      -9.626   9.166  66.995  1.00  0.00    -0.223 A  
HETATM   12  C   UNL     1      -8.826   8.774  65.929  1.00  0.00    -0.186 A  
HETATM   13  C   UNL     1      -9.233  10.910  64.875  1.00  0.00    -0.230 A  
HETATM   14  C   UNL     1      -8.620   9.652  64.870  1.00  0.00    -0.188 A  
BRANCH  12  15
HETATM   15  O   UNL     1      -8.275   7.528  66.056  1.00  0.00    -0.115 OA 
BRANCH  15  16
HETATM   16  C   UNL     1      -9.188   6.458  66.258  1.00  0.00    -0.139 C  
BRANCH  16  17
HETATM   17  C   UNL     1      -8.550   5.471  67.240  1.00  0.00    -0.108 C  
BRANCH  17  18
HETATM   18  O   UNL     1      -9.217   4.209  67.364  1.00  0.00    -0.134 OA 
BRANCH  18  19
HETATM   19  C   UNL     1      -9.857   3.934  68.605  1.00  0.00     0.066 C  
BRANCH  19  20
HETATM   20  C   UNL     1      -9.245   4.749  69.753  1.00  0.00    -0.121 C  
BRANCH  20  21
HETATM   21  N   UNL     1      -8.823   3.939  70.988  1.00  0.00    -0.081 N  
HETATM   22  C   UNL     1      -9.179   2.476  70.699  1.00  0.00    -0.133 C  
HETATM   23  C   UNL     1      -7.314   4.027  71.188  1.00  0.00    -0.040 C  
BRANCH  21  24
HETATM   24  C   UNL     1      -9.595   4.429  72.242  1.00  0.00    -0.147 C  
BRANCH  24  25
HETATM   25  C   UNL     1     -10.030   5.869  72.207  1.00  0.00    -0.193 A  
HETATM   26  C   UNL     1     -10.687   6.377  71.075  1.00  0.00    -0.301 A  
HETATM   27  C   UNL     1     -10.957   7.739  70.969  1.00  0.00    -0.260 A  
HETATM   28  C   UNL     1     -10.594   8.604  71.998  1.00  0.00    -0.421 A  
HETATM   29  C   UNL     1      -9.996   8.104  73.153  1.00  0.00    -0.233 A  
HETATM   30  C   UNL     1      -9.728   6.741  73.265  1.00  0.00    -0.199 A  
ENDBRANCH  24  25
ENDBRANCH  21  24
ENDBRANCH  20  21
ENDBRANCH  19  20
ENDBRANCH  18  19
ENDBRANCH  17  18
ENDBRANCH  16  17
ENDBRANCH  15  16
ENDBRANCH  12  15
ENDBRANCH   6   9
ENDBRANCH   5   6
ENDBRANCH   2   5
TORSDOF 12
ENDMDL
MODEL      310
REMARK 921   NORMALIZED FREE ENERGY PREDICTED BY IDOCK:   -2.42 KCAL/MOL
REMARK 922        TOTAL FREE ENERGY PREDICTED BY IDOCK:   -5.39 KCAL/MOL
REMARK 923 INTER-LIGAND FREE ENERGY PREDICTED BY IDOCK:   -5.08 KCAL/MOL
REMARK 924 INTRA-LIGAND FREE ENERGY PREDICTED BY IDOCK:   -0.31 KCAL/MOL
REMARK 927      BINDING AFFINITY PREDICTED BY RF-SCORE:    0.00 PKD
ROOT
HETATM    1  C   UNL     1      -7.951  14.260  67.856  1.00  0.00    -0.156 C  
HETATM    2  C   UNL     1      -8.691  13.015  67.349  1.00  0.00    -0.205 C  
HETATM    3  C   UNL     1      -7.689  12.019  66.751  1.00  0.00    -0.014 C  
HETATM    4  C   UNL     1      -9.309  12.330  68.598  1.00  0.00    -0.016 C  
ENDROOT
BRANCH   2   5
HETATM    5  C   UNL     1      -9.867  13.353  66.376  1.00  0.00    -0.299 C  
BRANCH   5   6
HETATM    6  C   UNL     1     -10.989  12.336  65.935  1.00  0.00    -0.338 C  
HETATM    7  C   UNL     1     -12.138  13.012  65.154  1.00  0.00    -0.476 C  
HETATM    8  C   UNL     1     -11.631  11.617  67.139  1.00  0.00    -0.291 C  
BRANCH   6   9
HETATM    9  C   UNL     1     -10.321  11.317  64.972  1.00  0.00    -0.359 A  
HETATM   10  C   UNL     1     -10.011  11.613  63.632  1.00  0.00    -0.406 A  
HETATM   11  C   UNL     1      -9.405  10.670  62.800  1.00  0.00    -0.348 A  
HETATM   12  C   UNL     1      -9.105   9.399  63.273  1.00  0.00    -0.023 A  
HETATM   13  C   UNL     1     -10.014  10.016  65.425  1.00  0.00    -0.364 A  
HETATM   14  C   UNL     1      -9.420   9.066  64.587  1.00  0.00     0.388 A  
BRANCH  12  15
HETATM   15  O   UNL     1      -8.541   8.564  62.348  1.00  0.00    -0.198 OA 
BRANCH  15  16
HETATM   16  C   UNL     1      -7.278   8.011  62.692  1.00  0.00    -0.093 C  
BRANCH  16  17
HETATM   17  C   UNL     1      -7.414   6.487  62.698  1.00  0.00    -0.071 C  
BRANCH  17  18
HETATM   18  O   UNL     1      -8.393   5.960  63.602  1.00  0.00    -0.088 OA 
BRANCH  18  19
HETATM   19  C   UNL     1      -7.917   5.154  64.675  1.00  0.00    -0.102 C  
BRANCH  19  20
HETATM   20  C   UNL     1      -7.790   5.960  65.976  1.00  0.00    -0.105 C  
BRANCH  20  21
HETATM   21  N   UNL     1      -8.300   5.258  67.242  1.00  0.00    -0.107 N  
HETATM   22  C   UNL     1      -9.754   4.854  66.968  1.00  0.00    -0.177 C  
HETATM   23  C   UNL     1      -7.499   3.987  67.502  1.00  0.00    -0.068 C  
BRANCH  21  24
HETATM   24  C   UNL     1      -8.244   6.225  68.455  1.00  0.00    -0.116 C  
BRANCH  24  25
HETATM   25  C   UNL     1      -8.867   5.705  69.722  1.00  0.00    -0.130 A  
HETATM   26  C   UNL     1      -9.980   6.356  70.275  1.00  0.00    -0.199 A  
HETATM   27  C   UNL     1     -10.470   5.977  71.523  1.00  0.00    -0.278 A  
HETATM   28  C   UNL     1      -9.868   4.934  72.220  1.00  0.00    -0.219 A  
HETATM   29  C   UNL     1      -8.800   4.240  71.656  1.00  0.00    -0.145 A  
HETATM   30  C   UNL     1      -8.309   4.613  70.405  1.00  0.00    -0.082 A  
ENDBRANCH  24  25
ENDBRANCH  21  24
ENDBRANCH  20  21
ENDBRANCH  19  20
ENDBRANCH  18  19
ENDBRANCH  17  18
ENDBRANCH  16  17
ENDBRANCH  15  16
ENDBRANCH  12  15
ENDBRANCH   6   9
ENDBRANCH   5   6
ENDBRANCH   2   5
TORSDOF 12
ENDMDL
MODEL      311
REMARK 921   NORMALIZED FREE ENERGY PREDICTED BY IDOCK:   -2.39 KCAL/MOL
REMARK 922        TOTAL FREE ENERGY PREDICTED BY IDOCK:   -5.34 KCAL/MOL
REMARK 923 INTER-LIGAND FREE ENERGY PREDICTED BY IDOCK:   -5.65 KCAL/MOL
REMARK 924 INTRA-LIGAND FREE ENERGY PREDICTED BY IDOCK:    0.32 KCAL/MOL
REMARK 927      BINDING AFFINITY PREDICTED BY RF-SCORE:    0.00 PKD
ROOT
HETATM    1  C   UNL     1     -11.481  12.475  68.398  1.00  0.00    -0.355 C  
HETATM    2  C   UNL     1     -11.645  14.000  68.361  1.00  0.00    -0.366 C  
HETATM    3  C   UNL     1     -12.421  14.471  69.599  1.00  0.00    -0.208 C  
HETATM    4  C   UNL     1     -10.218  14.600  68.475  1.00  0.00    -0.240 C  
ENDROOT
BRANCH   2   5
HETATM    5  C   UNL     1     -12.262  14.519  67.022  1.00  0.00    -0.197 C  
BRANCH   5   6
HETATM    6  C   UNL     1     -11.513  14.535  65.635  1.00  0.00    -0.341 C  
HETATM    7  C   UNL     1     -10.340  15.540  65.597  1.00  0.00    -0.407 C  
HETATM    8  C   UNL     1     -12.452  14.903  64.468  1.00  0.00    -0.223 C  
BRANCH   6   9
HETATM    9  C   UNL     1     -10.906  13.119  65.433  1.00  0.00    -0.299 A  
HETATM   10  C   UNL     1     -11.657  12.017  64.988  1.00  0.00    -0.323 A  
HETATM   11  C   UNL     1     -11.074  10.761  64.814  1.00  0.00     0.275 A  
HETATM   12  C   UNL     1      -9.727  10.563  65.093  1.00  0.00    -0.282 A  
HETATM   13  C   UNL     1      -9.544  12.890  65.718  1.00  0.00    -0.086 A  
HETATM   14  C   UNL     1      -8.961  11.628  65.557  1.00  0.00     0.033 A  
BRANCH  12  15
HETATM   15  O   UNL     1      -9.288   9.280  64.908  1.00  0.00    -0.211 OA 
BRANCH  15  16
HETATM   16  C   UNL     1      -9.612   8.354  65.936  1.00  0.00    -0.049 C  
BRANCH  16  17
HETATM   17  C   UNL     1      -9.263   8.999  67.280  1.00  0.00    -0.134 C  
BRANCH  17  18
HETATM   18  O   UNL     1      -9.811   8.351  68.434  1.00  0.00    -0.166 OA 
BRANCH  18  19
HETATM   19  C   UNL     1      -9.117   8.524  69.666  1.00  0.00    -0.149 C  
BRANCH  19  20
HETATM   20  C   UNL     1      -9.944   8.022  70.858  1.00  0.00    -0.186 C  
BRANCH  20  21
HETATM   21  N   UNL     1      -9.743   6.546  71.228  1.00  0.00    -0.174 N  
HETATM   22  C   UNL     1      -9.410   6.508  72.725  1.00  0.00    -0.139 C  
HETATM   23  C   UNL     1     -11.034   5.765  71.013  1.00  0.00    -0.230 C  
BRANCH  21  24
HETATM   24  C   UNL     1      -8.568   5.941  70.414  1.00  0.00    -0.135 C  
BRANCH  24  25
HETATM   25  C   UNL     1      -8.888   4.673  69.669  1.00  0.00    -0.121 A  
HETATM   26  C   UNL     1      -8.905   3.445  70.348  1.00  0.00    -0.146 A  
HETATM   27  C   UNL     1      -9.048   2.252  69.643  1.00  0.00    -0.175 A  
HETATM   28  C   UNL     1      -9.198   2.274  68.259  1.00  0.00    -0.243 A  
HETATM   29  C   UNL     1      -9.244   3.489  67.580  1.00  0.00    -0.224 A  
HETATM   30  C   UNL     1      -9.104   4.686  68.282  1.00  0.00    -0.151 A  
ENDBRANCH  24  25
ENDBRANCH  21  24
ENDBRANCH  20  21
ENDBRANCH  19  20
ENDBRANCH  18  19
ENDBRANCH  17  18
ENDBRANCH  16  17
ENDBRANCH  15  16
ENDBRANCH  12  15
ENDBRANCH   6   9
ENDBRANCH   5   6
ENDBRANCH   2   5
TORSDOF 12
ENDMDL
MODEL      312
REMARK 921   NORMALIZED FREE ENERGY PREDICTED BY IDOCK:   -2.38 KCAL/MOL
REMARK 922        TOTAL FREE ENERGY PREDICTED BY IDOCK:   -5.31 KCAL/MOL
REMARK 923 INTER-LIGAND FREE ENERGY PREDICTED BY IDOCK:   -5.87 KCAL/MOL
REMARK 924 INTRA-LIGAND FREE ENERGY PREDICTED BY IDOCK:    0.56 KCAL/MOL
REMARK 927      BINDING AFFINITY PREDICTED BY RF-SCORE:    0.00 PKD
ROOT
HETATM    1  C   UNL     1      -9.029   4.470  66.450  1.00  0.00    -0.115 C  
HETATM    2  C   UNL     1      -8.745   5.259  67.734  1.00  0.00    -0.103 C  
HETATM    3  C   UNL     1     -10.045   5.450  68.528  1.00  0.00    -0.242 C  
HETATM    4  C   UNL     1      -7.818   4.368  68.604  1.00  0.00    -0.074 C  
ENDROOT
BRANCH   2   5
HETATM    5  C   UNL     1      -7.987   6.603  67.475  1.00  0.00    -0.115 C  
BRANCH   5   6
HETATM    6  C   UNL     1      -6.710   6.751  66.563  1.00  0.00    -0.049 C  
HETATM    7  C   UNL     1      -6.283   5.420  65.905  1.00  0.00    -0.034 C  
HETATM    8  C   UNL     1      -5.489   7.271  67.349  1.00  0.00    -0.028 C  
BRANCH   6   9
HETATM    9  C   UNL     1      -7.086   7.727  65.414  1.00  0.00    -0.059 A  
HETATM   10  C   UNL     1      -6.850   9.112  65.474  1.00  0.00    -0.073 A  
HETATM   11  C   UNL     1      -7.198   9.956  64.417  1.00  0.00    -0.134 A  
HETATM   12  C   UNL     1      -7.806   9.446  63.277  1.00  0.00    -0.131 A  
HETATM   13  C   UNL     1      -7.712   7.236  64.250  1.00  0.00    -0.124 A  
HETATM   14  C   UNL     1      -8.074   8.083  63.196  1.00  0.00    -0.114 A  
BRANCH  12  15
HETATM   15  O   UNL     1      -8.120  10.382  62.330  1.00  0.00    -0.144 OA 
BRANCH  15  16
HETATM   16  C   UNL     1      -9.259  11.188  62.602  1.00  0.00    -0.323 C  
BRANCH  16  17
HETATM   17  C   UNL     1     -10.072  10.501  63.703  1.00  0.00    -0.151 C  
BRANCH  17  18
HETATM   18  O   UNL     1     -11.214  11.229  64.169  1.00  0.00    -0.321 OA 
BRANCH  18  19
HETATM   19  C   UNL     1     -11.073  12.639  64.307  1.00  0.00    -0.362 C  
BRANCH  19  20
HETATM   20  C   UNL     1     -10.366  13.012  65.618  1.00  0.00    -0.285 C  
BRANCH  20  21
HETATM   21  N   UNL     1     -10.763  14.367  66.222  1.00  0.00    -0.301 N  
HETATM   22  C   UNL     1     -10.898  15.349  65.051  1.00  0.00    -0.444 C  
HETATM   23  C   UNL     1     -12.119  14.264  66.909  1.00  0.00    -0.409 C  
BRANCH  21  24
HETATM   24  C   UNL     1      -9.664  14.864  67.199  1.00  0.00    -0.228 C  
BRANCH  24  25
HETATM   25  C   UNL     1      -9.665  16.345  67.468  1.00  0.00    -0.231 A  
HETATM   26  C   UNL     1     -10.613  16.898  68.343  1.00  0.00    -0.365 A  
HETATM   27  C   UNL     1     -10.722  18.280  68.482  1.00  0.00     0.049 A  
HETATM   28  C   UNL     1      -9.874  19.121  67.766  1.00  0.00    -0.412 A  
HETATM   29  C   UNL     1      -8.889  18.583  66.940  1.00  0.00    -0.283 A  
HETATM   30  C   UNL     1      -8.774  17.200  66.802  1.00  0.00    -0.270 A  
ENDBRANCH  24  25
ENDBRANCH  21  24
ENDBRANCH  20  21
ENDBRANCH  19  20
ENDBRANCH  18  19
ENDBRANCH  17  18
ENDBRANCH  16  17
ENDBRANCH  15  16
ENDBRANCH  12  15
ENDBRANCH   6   9
ENDBRANCH   5   6
ENDBRANCH   2   5
TORSDOF 12
ENDMDL
MODEL      313
REMARK 921   NORMALIZED FREE ENERGY PREDICTED BY IDOCK:   -2.36 KCAL/MOL
REMARK 922        TOTAL FREE ENERGY PREDICTED BY IDOCK:   -5.29 KCAL/MOL
REMARK 923 INTER-LIGAND FREE ENERGY PREDICTED BY IDOCK:   -5.79 KCAL/MOL
REMARK 924 INTRA-LIGAND FREE ENERGY PREDICTED BY IDOCK:    0.50 KCAL/MOL
REMARK 927      BINDING AFFINITY PREDICTED BY RF-SCORE:    0.00 PKD
ROOT
HETATM    1  C   UNL     1     -14.153  15.674  72.245  1.00  0.00    -0.564 C  
HETATM    2  C   UNL     1     -12.637  15.449  72.316  1.00  0.00    -0.455 C  
HETATM    3  C   UNL     1     -11.909  16.800  72.324  1.00  0.00     0.023 C  
HETATM    4  C   UNL     1     -12.354  14.783  73.690  1.00  0.00    -0.476 C  
ENDROOT
BRANCH   2   5
HETATM    5  C   UNL     1     -12.107  14.478  71.212  1.00  0.00    -0.419 C  
BRANCH   5   6
HETATM    6  C   UNL     1     -11.688  14.916  69.756  1.00  0.00    -0.344 C  
HETATM    7  C   UNL     1     -10.392  15.758  69.732  1.00  0.00    -0.307 C  
HETATM    8  C   UNL     1     -12.779  15.759  69.064  1.00  0.00     0.772 C  
BRANCH   6   9
HETATM    9  C   UNL     1     -11.402  13.615  68.957  1.00  0.00    -0.333 A  
HETATM   10  C   UNL     1     -10.815  13.611  67.679  1.00  0.00    -0.268 A  
HETATM   11  C   UNL     1     -10.569  12.419  66.995  1.00  0.00    -0.248 A  
HETATM   12  C   UNL     1     -10.915  11.197  67.558  1.00  0.00    -0.275 A  
HETATM   13  C   UNL     1     -11.752  12.362  69.502  1.00  0.00    -0.388 A  
HETATM   14  C   UNL     1     -11.519  11.168  68.811  1.00  0.00    -0.366 A  
BRANCH  12  15
HETATM   15  O   UNL     1     -10.647  10.110  66.772  1.00  0.00    -0.223 OA 
BRANCH  15  16
HETATM   16  C   UNL     1      -9.903   9.065  67.383  1.00  0.00    -0.190 C  
BRANCH  16  17
HETATM   17  C   UNL     1     -10.269   7.753  66.685  1.00  0.00    -0.218 C  
BRANCH  17  18
HETATM   18  O   UNL     1     -11.181   6.910  67.399  1.00  0.00    -0.280 OA 
BRANCH  18  19
HETATM   19  C   UNL     1     -10.782   5.560  67.616  1.00  0.00    -0.113 C  
BRANCH  19  20
HETATM   20  C   UNL     1     -10.452   4.848  66.297  1.00  0.00    -0.304 C  
BRANCH  20  21
HETATM   21  N   UNL     1      -9.030   4.276  66.191  1.00  0.00    -0.119 N  
HETATM   22  C   UNL     1      -9.168   2.848  65.648  1.00  0.00    -0.115 C  
HETATM   23  C   UNL     1      -8.207   5.083  65.194  1.00  0.00    -0.131 C  
BRANCH  21  24
HETATM   24  C   UNL     1      -8.358   4.243  67.590  1.00  0.00    -0.098 C  
BRANCH  24  25
HETATM   25  C   UNL     1      -7.595   5.484  67.967  1.00  0.00    -0.081 A  
HETATM   26  C   UNL     1      -6.787   6.126  67.016  1.00  0.00    -0.066 A  
HETATM   27  C   UNL     1      -5.960   7.183  67.392  1.00  0.00    -0.029 A  
HETATM   28  C   UNL     1      -5.948   7.621  68.713  1.00  0.00    -0.031 A  
HETATM   29  C   UNL     1      -6.790   7.032  69.654  1.00  0.00    -0.050 A  
HETATM   30  C   UNL     1      -7.622   5.977  69.281  1.00  0.00    -0.094 A  
ENDBRANCH  24  25
ENDBRANCH  21  24
ENDBRANCH  20  21
ENDBRANCH  19  20
ENDBRANCH  18  19
ENDBRANCH  17  18
ENDBRANCH  16  17
ENDBRANCH  15  16
ENDBRANCH  12  15
ENDBRANCH   6   9
ENDBRANCH   5   6
ENDBRANCH   2   5
TORSDOF 12
ENDMDL
MODEL      314
REMARK 921   NORMALIZED FREE ENERGY PREDICTED BY IDOCK:   -2.36 KCAL/MOL
REMARK 922        TOTAL FREE ENERGY PREDICTED BY IDOCK:   -5.29 KCAL/MOL
REMARK 923 INTER-LIGAND FREE ENERGY PREDICTED BY IDOCK:   -5.49 KCAL/MOL
REMARK 924 INTRA-LIGAND FREE ENERGY PREDICTED BY IDOCK:    0.21 KCAL/MOL
REMARK 927      BINDING AFFINITY PREDICTED BY RF-SCORE:    0.00 PKD
ROOT
HETATM    1  C   UNL     1      -7.426   4.616  69.832  1.00  0.00    -0.054 C  
HETATM    2  C   UNL     1      -8.077   3.804  68.705  1.00  0.00    -0.079 C  
HETATM    3  C   UNL     1      -7.532   2.369  68.712  1.00  0.00    -0.047 C  
HETATM    4  C   UNL     1      -9.588   3.709  69.047  1.00  0.00    -0.165 C  
ENDROOT
BRANCH   2   5
HETATM    5  C   UNL     1      -7.960   4.493  67.305  1.00  0.00    -0.101 C  
BRANCH   5   6
HETATM    6  C   UNL     1      -6.603   4.913  66.622  1.00  0.00    -0.046 C  
HETATM    7  C   UNL     1      -5.991   3.788  65.758  1.00  0.00    -0.023 C  
HETATM    8  C   UNL     1      -5.530   5.315  67.654  1.00  0.00    -0.012 C  
BRANCH   6   9
HETATM    9  C   UNL     1      -6.925   6.096  65.668  1.00  0.00    -0.057 A  
HETATM   10  C   UNL     1      -6.655   7.438  65.988  1.00  0.00    -0.049 A  
HETATM   11  C   UNL     1      -6.955   8.473  65.101  1.00  0.00    -0.075 A  
HETATM   12  C   UNL     1      -7.548   8.202  63.874  1.00  0.00    -0.127 A  
HETATM   13  C   UNL     1      -7.536   5.848  64.420  1.00  0.00    -0.077 A  
HETATM   14  C   UNL     1      -7.849   6.887  63.536  1.00  0.00    -0.103 A  
BRANCH  12  15
HETATM   15  O   UNL     1      -7.815   9.307  63.113  1.00  0.00    -0.124 OA 
BRANCH  15  16
HETATM   16  C   UNL     1      -9.161   9.461  62.685  1.00  0.00    -0.128 C  
BRANCH  16  17
HETATM   17  C   UNL     1      -9.751  10.675  63.408  1.00  0.00    -0.339 C  
BRANCH  17  18
HETATM   18  O   UNL     1     -10.320  10.407  64.695  1.00  0.00    -0.314 OA 
BRANCH  18  19
HETATM   19  C   UNL     1     -10.150  11.403  65.699  1.00  0.00    -0.248 C  
BRANCH  19  20
HETATM   20  C   UNL     1     -10.925  11.057  66.978  1.00  0.00    -0.272 C  
BRANCH  20  21
HETATM   21  N   UNL     1     -10.153  11.246  68.291  1.00  0.00    -0.182 N  
HETATM   22  C   UNL     1      -9.505   9.896  68.621  1.00  0.00    -0.153 C  
HETATM   23  C   UNL     1      -9.039  12.271  68.108  1.00  0.00    -0.196 C  
BRANCH  21  24
HETATM   24  C   UNL     1     -11.122  11.656  69.432  1.00  0.00    -0.206 C  
BRANCH  24  25
HETATM   25  C   UNL     1     -11.647  10.520  70.268  1.00  0.00    -0.417 A  
HETATM   26  C   UNL     1     -13.020  10.429  70.545  1.00  0.00    -0.280 A  
HETATM   27  C   UNL     1     -13.497   9.473  71.439  1.00  0.00    -0.405 A  
HETATM   28  C   UNL     1     -12.612   8.588  72.049  1.00  0.00    -0.414 A  
HETATM   29  C   UNL     1     -11.255   8.629  71.738  1.00  0.00    -0.396 A  
HETATM   30  C   UNL     1     -10.774   9.582  70.840  1.00  0.00    -0.403 A  
ENDBRANCH  24  25
ENDBRANCH  21  24
ENDBRANCH  20  21
ENDBRANCH  19  20
ENDBRANCH  18  19
ENDBRANCH  17  18
ENDBRANCH  16  17
ENDBRANCH  15  16
ENDBRANCH  12  15
ENDBRANCH   6   9
ENDBRANCH   5   6
ENDBRANCH   2   5
TORSDOF 12
ENDMDL
MODEL      315
REMARK 921   NORMALIZED FREE ENERGY PREDICTED BY IDOCK:   -2.34 KCAL/MOL
REMARK 922        TOTAL FREE ENERGY PREDICTED BY IDOCK:   -5.25 KCAL/MOL
REMARK 923 INTER-LIGAND FREE ENERGY PREDICTED BY IDOCK:   -4.11 KCAL/MOL
REMARK 924 INTRA-LIGAND FREE ENERGY PREDICTED BY IDOCK:   -1.15 KCAL/MOL
REMARK 927      BINDING AFFINITY PREDICTED BY RF-SCORE:    0.00 PKD
ROOT
HETATM    1  C   UNL     1     -10.622   9.567  67.278  1.00  0.00    -0.317 C  
HETATM    2  C   UNL     1     -10.375  10.805  68.150  1.00  0.00    -0.197 C  
HETATM    3  C   UNL     1     -11.670  11.618  68.282  1.00  0.00    -0.374 C  
HETATM    4  C   UNL     1     -10.030  10.282  69.570  1.00  0.00    -0.252 C  
ENDROOT
BRANCH   2   5
HETATM    5  C   UNL     1      -9.163  11.666  67.665  1.00  0.00    -0.178 C  
BRANCH   5   6
HETATM    6  C   UNL     1      -7.648  11.284  67.878  1.00  0.00    -0.100 C  
HETATM    7  C   UNL     1      -7.290  11.054  69.363  1.00  0.00    -0.092 C  
HETATM    8  C   UNL     1      -6.691  12.374  67.353  1.00  0.00    -0.152 C  
BRANCH   6   9
HETATM    9  C   UNL     1      -7.413   9.938  67.139  1.00  0.00    -0.091 A  
HETATM   10  C   UNL     1      -7.177   8.724  67.808  1.00  0.00    -0.084 A  
HETATM   11  C   UNL     1      -6.975   7.533  67.107  1.00  0.00    -0.083 A  
HETATM   12  C   UNL     1      -6.987   7.521  65.718  1.00  0.00    -0.061 A  
HETATM   13  C   UNL     1      -7.411   9.900  65.728  1.00  0.00    -0.111 A  
HETATM   14  C   UNL     1      -7.195   8.709  65.025  1.00  0.00    -0.084 A  
BRANCH  12  15
HETATM   15  O   UNL     1      -6.748   6.296  65.156  1.00  0.00    -0.044 OA 
BRANCH  15  16
HETATM   16  C   UNL     1      -7.661   5.882  64.149  1.00  0.00    -0.106 C  
BRANCH  16  17
HETATM   17  C   UNL     1      -7.413   4.397  63.868  1.00  0.00    -0.059 C  
BRANCH  17  18
HETATM   18  O   UNL     1      -8.544   3.538  64.057  1.00  0.00    -0.090 OA 
BRANCH  18  19
HETATM   19  C   UNL     1      -8.398   2.471  64.989  1.00  0.00    -0.090 C  
BRANCH  19  20
HETATM   20  C   UNL     1      -9.357   2.622  66.178  1.00  0.00     0.022 C  
BRANCH  20  21
HETATM   21  N   UNL     1      -8.719   3.120  67.483  1.00  0.00    -0.110 N  
HETATM   22  C   UNL     1      -9.426   2.385  68.629  1.00  0.00    -0.128 C  
HETATM   23  C   UNL     1      -7.241   2.749  67.526  1.00  0.00    -0.053 C  
BRANCH  21  24
HETATM   24  C   UNL     1      -8.927   4.651  67.634  1.00  0.00    -0.113 C  
BRANCH  24  25
HETATM   25  C   UNL     1      -9.104   5.140  69.046  1.00  0.00    -0.137 A  
HETATM   26  C   UNL     1      -7.980   5.389  69.849  1.00  0.00    -0.081 A  
HETATM   27  C   UNL     1      -8.132   5.693  71.200  1.00  0.00    -0.116 A  
HETATM   28  C   UNL     1      -9.406   5.771  71.757  1.00  0.00    -0.163 A  
HETATM   29  C   UNL     1     -10.532   5.584  70.958  1.00  0.00    -0.314 A  
HETATM   30  C   UNL     1     -10.384   5.284  69.604  1.00  0.00    -0.348 A  
ENDBRANCH  24  25
ENDBRANCH  21  24
ENDBRANCH  20  21
ENDBRANCH  19  20
ENDBRANCH  18  19
ENDBRANCH  17  18
ENDBRANCH  16  17
ENDBRANCH  15  16
ENDBRANCH  12  15
ENDBRANCH   6   9
ENDBRANCH   5   6
ENDBRANCH   2   5
TORSDOF 12
ENDMDL
MODEL      316
REMARK 921   NORMALIZED FREE ENERGY PREDICTED BY IDOCK:   -2.27 KCAL/MOL
REMARK 922        TOTAL FREE ENERGY PREDICTED BY IDOCK:   -5.13 KCAL/MOL
REMARK 923 INTER-LIGAND FREE ENERGY PREDICTED BY IDOCK:   -3.79 KCAL/MOL
REMARK 924 INTRA-LIGAND FREE ENERGY PREDICTED BY IDOCK:   -1.34 KCAL/MOL
REMARK 927      BINDING AFFINITY PREDICTED BY RF-SCORE:    0.00 PKD
ROOT
HETATM    1  C   UNL     1      -5.968  12.339  70.179  1.00  0.00    -0.148 C  
HETATM    2  C   UNL     1      -6.646  13.132  69.053  1.00  0.00    -0.105 C  
HETATM    3  C   UNL     1      -6.022  14.531  68.950  1.00  0.00    -0.086 C  
HETATM    4  C   UNL     1      -6.307  12.394  67.730  1.00  0.00    -0.109 C  
ENDROOT
BRANCH   2   5
HETATM    5  C   UNL     1      -8.204  13.168  69.180  1.00  0.00     0.520 C  
BRANCH   5   6
HETATM    6  C   UNL     1      -9.205  13.132  67.962  1.00  0.00    -0.211 C  
HETATM    7  C   UNL     1      -8.662  13.868  66.717  1.00  0.00    -0.119 C  
HETATM    8  C   UNL     1     -10.563  13.778  68.303  1.00  0.00    -0.262 C  
BRANCH   6   9
HETATM    9  C   UNL     1      -9.383  11.640  67.568  1.00  0.00    -0.168 A  
HETATM   10  C   UNL     1      -9.728  10.637  68.490  1.00  0.00    -0.177 A  
HETATM   11  C   UNL     1      -9.884   9.307  68.095  1.00  0.00    -0.185 A  
HETATM   12  C   UNL     1      -9.686   8.935  66.771  1.00  0.00    -0.219 A  
HETATM   13  C   UNL     1      -9.178  11.236  66.232  1.00  0.00    -0.214 A  
HETATM   14  C   UNL     1      -9.321   9.900  65.838  1.00  0.00    -0.245 A  
BRANCH  12  15
HETATM   15  O   UNL     1      -9.842   7.599  66.524  1.00  0.00    -0.216 OA 
BRANCH  15  16
HETATM   16  C   UNL     1     -11.007   6.994  67.068  1.00  0.00    -0.287 C  
BRANCH  16  17
HETATM   17  C   UNL     1     -10.563   5.850  67.982  1.00  0.00    -0.252 C  
BRANCH  17  18
HETATM   18  O   UNL     1     -11.404   5.605  69.115  1.00  0.00    -0.042 OA 
BRANCH  18  19
HETATM   19  C   UNL     1     -11.010   6.189  70.353  1.00  0.00    -0.337 C  
BRANCH  19  20
HETATM   20  C   UNL     1      -9.618   6.830  70.260  1.00  0.00    -0.165 C  
BRANCH  20  21
HETATM   21  N   UNL     1      -8.543   6.211  71.165  1.00  0.00    -0.125 N  
HETATM   22  C   UNL     1      -9.070   6.301  72.602  1.00  0.00    -0.136 C  
HETATM   23  C   UNL     1      -8.348   4.738  70.825  1.00  0.00    -0.094 C  
BRANCH  21  24
HETATM   24  C   UNL     1      -7.214   7.005  71.043  1.00  0.00    -0.075 C  
BRANCH  24  25
HETATM   25  C   UNL     1      -6.776   7.312  69.636  1.00  0.00    -0.045 A  
HETATM   26  C   UNL     1      -6.235   8.571  69.329  1.00  0.00    -0.042 A  
HETATM   27  C   UNL     1      -5.968   8.919  68.007  1.00  0.00    -0.046 A  
HETATM   28  C   UNL     1      -6.219   8.010  66.983  1.00  0.00    -0.055 A  
HETATM   29  C   UNL     1      -6.700   6.737  67.280  1.00  0.00    -0.067 A  
HETATM   30  C   UNL     1      -6.964   6.382  68.602  1.00  0.00    -0.080 A  
ENDBRANCH  24  25
ENDBRANCH  21  24
ENDBRANCH  20  21
ENDBRANCH  19  20
ENDBRANCH  18  19
ENDBRANCH  17  18
ENDBRANCH  16  17
ENDBRANCH  15  16
ENDBRANCH  12  15
ENDBRANCH   6   9
ENDBRANCH   5   6
ENDBRANCH   2   5
TORSDOF 12
ENDMDL
MODEL      317
REMARK 921   NORMALIZED FREE ENERGY PREDICTED BY IDOCK:   -2.25 KCAL/MOL
REMARK 922        TOTAL FREE ENERGY PREDICTED BY IDOCK:   -5.10 KCAL/MOL
REMARK 923 INTER-LIGAND FREE ENERGY PREDICTED BY IDOCK:   -5.90 KCAL/MOL
REMARK 924 INTRA-LIGAND FREE ENERGY PREDICTED BY IDOCK:    0.79 KCAL/MOL
REMARK 927      BINDING AFFINITY PREDICTED BY RF-SCORE:    0.00 PKD
ROOT
HETATM    1  C   UNL     1      -9.648   4.545  73.030  1.00  0.00    -0.153 C  
HETATM    2  C   UNL     1      -9.086   3.193  72.571  1.00  0.00    -0.128 C  
HETATM    3  C   UNL     1      -8.575   2.401  73.782  1.00  0.00    -0.063 C  
HETATM    4  C   UNL     1     -10.283   2.394  71.989  1.00  0.00    -0.139 C  
ENDROOT
BRANCH   2   5
HETATM    5  C   UNL     1      -8.020   3.325  71.435  1.00  0.00    -0.059 C  
BRANCH   5   6
HETATM    6  C   UNL     1      -8.164   2.708  69.991  1.00  0.00    -0.065 C  
HETATM    7  C   UNL     1      -9.240   1.601  69.916  1.00  0.00    -0.162 C  
HETATM    8  C   UNL     1      -6.847   2.082  69.489  1.00  0.00    -0.033 C  
BRANCH   6   9
HETATM    9  C   UNL     1      -8.626   3.856  69.053  1.00  0.00    -0.112 A  
HETATM   10  C   UNL     1      -9.862   4.511  69.189  1.00  0.00    -0.222 A  
HETATM   11  C   UNL     1     -10.239   5.543  68.328  1.00  0.00    -0.237 A  
HETATM   12  C   UNL     1      -9.400   5.942  67.294  1.00  0.00    -0.113 A  
HETATM   13  C   UNL     1      -7.796   4.274  67.990  1.00  0.00    -0.079 A  
HETATM   14  C   UNL     1      -8.179   5.298  67.118  1.00  0.00    -0.108 A  
BRANCH  12  15
HETATM   15  O   UNL     1      -9.900   6.943  66.507  1.00  0.00    -0.170 OA 
BRANCH  15  16
HETATM   16  C   UNL     1     -10.892   7.769  67.100  1.00  0.00    -0.156 C  
BRANCH  16  17
HETATM   17  C   UNL     1     -10.189   8.756  68.035  1.00  0.00    -0.213 C  
BRANCH  17  18
HETATM   18  O   UNL     1      -9.243   9.631  67.408  1.00  0.00    -0.130 OA 
BRANCH  18  19
HETATM   19  C   UNL     1      -8.778  10.738  68.173  1.00  0.00    -0.130 C  
BRANCH  19  20
HETATM   20  C   UNL     1      -9.940  11.591  68.700  1.00  0.00    -0.199 C  
BRANCH  20  21
HETATM   21  N   UNL     1     -10.250  12.859  67.891  1.00  0.00    -0.227 N  
HETATM   22  C   UNL     1     -11.774  12.915  67.724  1.00  0.00    -0.362 C  
HETATM   23  C   UNL     1      -9.815  14.100  68.662  1.00  0.00    -0.206 C  
BRANCH  21  24
HETATM   24  C   UNL     1      -9.572  12.788  66.496  1.00  0.00    -0.257 C  
BRANCH  24  25
HETATM   25  C   UNL     1     -10.465  13.115  65.330  1.00  0.00    -0.319 A  
HETATM   26  C   UNL     1     -11.019  14.399  65.209  1.00  0.00    -0.355 A  
HETATM   27  C   UNL     1     -11.965  14.668  64.222  1.00  0.00    -0.406 A  
HETATM   28  C   UNL     1     -12.349  13.667  63.335  1.00  0.00    -0.167 A  
HETATM   29  C   UNL     1     -11.763  12.406  63.406  1.00  0.00    -0.554 A  
HETATM   30  C   UNL     1     -10.813  12.133  64.390  1.00  0.00    -0.372 A  
ENDBRANCH  24  25
ENDBRANCH  21  24
ENDBRANCH  20  21
ENDBRANCH  19  20
ENDBRANCH  18  19
ENDBRANCH  17  18
ENDBRANCH  16  17
ENDBRANCH  15  16
ENDBRANCH  12  15
ENDBRANCH   6   9
ENDBRANCH   5   6
ENDBRANCH   2   5
TORSDOF 12
ENDMDL
MODEL      318
REMARK 921   NORMALIZED FREE ENERGY PREDICTED BY IDOCK:   -2.25 KCAL/MOL
REMARK 922        TOTAL FREE ENERGY PREDICTED BY IDOCK:   -5.10 KCAL/MOL
REMARK 923 INTER-LIGAND FREE ENERGY PREDICTED BY IDOCK:   -5.51 KCAL/MOL
REMARK 924 INTRA-LIGAND FREE ENERGY PREDICTED BY IDOCK:    0.41 KCAL/MOL
REMARK 927      BINDING AFFINITY PREDICTED BY RF-SCORE:    0.00 PKD
ROOT
HETATM    1  C   UNL     1     -11.260  16.224  68.527  1.00  0.00    -0.359 C  
HETATM    2  C   UNL     1     -10.345  14.992  68.543  1.00  0.00    -0.230 C  
HETATM    3  C   UNL     1      -9.096  15.280  69.388  1.00  0.00    -0.228 C  
HETATM    4  C   UNL     1     -11.129  13.870  69.275  1.00  0.00    -0.261 C  
ENDROOT
BRANCH   2   5
HETATM    5  C   UNL     1     -10.002  14.463  67.112  1.00  0.00    -0.253 C  
BRANCH   5   6
HETATM    6  C   UNL     1     -10.939  13.531  66.252  1.00  0.00    -0.293 C  
HETATM    7  C   UNL     1     -11.137  14.047  64.809  1.00  0.00    -0.391 C  
HETATM    8  C   UNL     1     -12.345  13.386  66.869  1.00  0.00    -0.262 C  
BRANCH   6   9
HETATM    9  C   UNL     1     -10.233  12.151  66.149  1.00  0.00    -0.254 A  
HETATM   10  C   UNL     1      -9.500  11.581  67.206  1.00  0.00    -0.176 A  
HETATM   11  C   UNL     1      -8.885  10.335  67.076  1.00  0.00    -0.143 A  
HETATM   12  C   UNL     1      -8.968   9.627  65.884  1.00  0.00    -0.167 A  
HETATM   13  C   UNL     1     -10.295  11.416  64.947  1.00  0.00    -0.347 A  
HETATM   14  C   UNL     1      -9.666  10.173  64.811  1.00  0.00    -0.389 A  
BRANCH  12  15
HETATM   15  O   UNL     1      -8.297   8.435  65.880  1.00  0.00    -0.118 OA 
BRANCH  15  16
HETATM   16  C   UNL     1      -8.318   7.702  67.097  1.00  0.00    -0.121 C  
BRANCH  16  17
HETATM   17  C   UNL     1      -6.933   7.812  67.739  1.00  0.00    -0.081 C  
BRANCH  17  18
HETATM   18  O   UNL     1      -6.820   7.261  69.057  1.00  0.00    -0.060 OA 
BRANCH  18  19
HETATM   19  C   UNL     1      -7.307   5.937  69.250  1.00  0.00    -0.083 C  
BRANCH  19  20
HETATM   20  C   UNL     1      -8.237   5.848  70.468  1.00  0.00    -0.119 C  
BRANCH  20  21
HETATM   21  N   UNL     1      -9.709   5.540  70.156  1.00  0.00    -0.171 N  
HETATM   22  C   UNL     1     -10.292   6.797  69.498  1.00  0.00    -0.202 C  
HETATM   23  C   UNL     1      -9.810   4.394  69.156  1.00  0.00    -0.128 C  
BRANCH  21  24
HETATM   24  C   UNL     1     -10.482   5.224  71.464  1.00  0.00    -0.210 C  
BRANCH  24  25
HETATM   25  C   UNL     1     -10.004   4.013  72.218  1.00  0.00    -0.236 A  
HETATM   26  C   UNL     1     -10.530   2.747  71.918  1.00  0.00     0.240 A  
HETATM   27  C   UNL     1     -10.210   1.645  72.708  1.00  0.00    -0.200 A  
HETATM   28  C   UNL     1      -9.346   1.792  73.790  1.00  0.00    -0.075 A  
HETATM   29  C   UNL     1      -8.769   3.030  74.062  1.00  0.00    -0.076 A  
HETATM   30  C   UNL     1      -9.084   4.135  73.271  1.00  0.00    -0.114 A  
ENDBRANCH  24  25
ENDBRANCH  21  24
ENDBRANCH  20  21
ENDBRANCH  19  20
ENDBRANCH  18  19
ENDBRANCH  17  18
ENDBRANCH  16  17
ENDBRANCH  15  16
ENDBRANCH  12  15
ENDBRANCH   6   9
ENDBRANCH   5   6
ENDBRANCH   2   5
TORSDOF 12
ENDMDL
MODEL      319
REMARK 921   NORMALIZED FREE ENERGY PREDICTED BY IDOCK:   -2.25 KCAL/MOL
REMARK 922        TOTAL FREE ENERGY PREDICTED BY IDOCK:   -5.09 KCAL/MOL
REMARK 923 INTER-LIGAND FREE ENERGY PREDICTED BY IDOCK:   -3.38 KCAL/MOL
REMARK 924 INTRA-LIGAND FREE ENERGY PREDICTED BY IDOCK:   -1.70 KCAL/MOL
REMARK 927      BINDING AFFINITY PREDICTED BY RF-SCORE:    0.00 PKD
ROOT
HETATM    1  C   UNL     1     -10.438   9.593  66.917  1.00  0.00    -0.282 C  
HETATM    2  C   UNL     1     -10.047  10.714  67.890  1.00  0.00    -0.194 C  
HETATM    3  C   UNL     1     -11.297  11.498  68.313  1.00  0.00    -0.352 C  
HETATM    4  C   UNL     1      -9.505  10.018  69.168  1.00  0.00    -0.214 C  
ENDROOT
BRANCH   2   5
HETATM    5  C   UNL     1      -8.907  11.633  67.343  1.00  0.00    -0.160 C  
BRANCH   5   6
HETATM    6  C   UNL     1      -7.391  11.531  67.764  1.00  0.00    -0.096 C  
HETATM    7  C   UNL     1      -7.203  11.322  69.284  1.00  0.00    -0.094 C  
HETATM    8  C   UNL     1      -6.594  12.797  67.387  1.00  0.00    -0.140 C  
BRANCH   6   9
HETATM    9  C   UNL     1      -6.808  10.277  67.056  1.00  0.00    -0.084 A  
HETATM   10  C   UNL     1      -5.970   9.350  67.701  1.00  0.00    -0.052 A  
HETATM   11  C   UNL     1      -5.471   8.232  67.031  1.00  0.00    -0.037 A  
HETATM   12  C   UNL     1      -5.779   8.013  65.693  1.00  0.00    -0.037 A  
HETATM   13  C   UNL     1      -7.098  10.038  65.696  1.00  0.00    -0.119 A  
HETATM   14  C   UNL     1      -6.586   8.925  65.020  1.00  0.00    -0.069 A  
BRANCH  12  15
HETATM   15  O   UNL     1      -5.202   6.898  65.149  1.00  0.00    -0.025 OA 
BRANCH  15  16
HETATM   16  C   UNL     1      -5.603   6.570  63.826  1.00  0.00    -0.030 C  
BRANCH  16  17
HETATM   17  C   UNL     1      -5.167   5.129  63.545  1.00  0.00    -0.010 C  
BRANCH  17  18
HETATM   18  O   UNL     1      -6.109   4.333  62.815  1.00  0.00    -0.017 OA 
BRANCH  18  19
HETATM   19  C   UNL     1      -6.726   3.256  63.513  1.00  0.00    -0.035 C  
BRANCH  19  20
HETATM   20  C   UNL     1      -8.236   3.196  63.242  1.00  0.00    -0.085 C  
BRANCH  20  21
HETATM   21  N   UNL     1      -9.133   3.694  64.384  1.00  0.00    -0.123 N  
HETATM   22  C   UNL     1     -10.573   3.668  63.856  1.00  0.00    -0.277 C  
HETATM   23  C   UNL     1      -9.051   2.746  65.575  1.00  0.00    -0.137 C  
BRANCH  21  24
HETATM   24  C   UNL     1      -8.746   5.144  64.781  1.00  0.00    -0.133 C  
BRANCH  24  25
HETATM   25  C   UNL     1      -8.395   5.341  66.231  1.00  0.00    -0.114 A  
HETATM   26  C   UNL     1      -9.163   6.203  67.028  1.00  0.00    -0.127 A  
HETATM   27  C   UNL     1      -8.760   6.511  68.326  1.00  0.00    -0.117 A  
HETATM   28  C   UNL     1      -7.599   5.946  68.846  1.00  0.00    -0.090 A  
HETATM   29  C   UNL     1      -6.859   5.042  68.086  1.00  0.00    -0.056 A  
HETATM   30  C   UNL     1      -7.262   4.728  66.789  1.00  0.00    -0.080 A  
ENDBRANCH  24  25
ENDBRANCH  21  24
ENDBRANCH  20  21
ENDBRANCH  19  20
ENDBRANCH  18  19
ENDBRANCH  17  18
ENDBRANCH  16  17
ENDBRANCH  15  16
ENDBRANCH  12  15
ENDBRANCH   6   9
ENDBRANCH   5   6
ENDBRANCH   2   5
TORSDOF 12
ENDMDL
MODEL      320
REMARK 921   NORMALIZED FREE ENERGY PREDICTED BY IDOCK:   -2.24 KCAL/MOL
REMARK 922        TOTAL FREE ENERGY PREDICTED BY IDOCK:   -5.08 KCAL/MOL
REMARK 923 INTER-LIGAND FREE ENERGY PREDICTED BY IDOCK:   -5.42 KCAL/MOL
REMARK 924 INTRA-LIGAND FREE ENERGY PREDICTED BY IDOCK:    0.34 KCAL/MOL
REMARK 927      BINDING AFFINITY PREDICTED BY RF-SCORE:    0.00 PKD
ROOT
HETATM    1  C   UNL     1     -14.146  15.615  72.264  1.00  0.00    -0.564 C  
HETATM    2  C   UNL     1     -12.643  15.366  72.443  1.00  0.00    -0.461 C  
HETATM    3  C   UNL     1     -11.871  16.680  72.264  1.00  0.00    -0.210 C  
HETATM    4  C   UNL     1     -12.443  14.928  73.919  1.00  0.00    -0.561 C  
ENDROOT
BRANCH   2   5
HETATM    5  C   UNL     1     -12.099  14.212  71.539  1.00  0.00    -0.252 C  
BRANCH   5   6
HETATM    6  C   UNL     1     -11.694  14.374  70.023  1.00  0.00    -0.360 C  
HETATM    7  C   UNL     1     -10.505  15.339  69.819  1.00  0.00    -0.287 C  
HETATM    8  C   UNL     1     -12.856  14.912  69.163  1.00  0.00     0.562 C  
BRANCH   6   9
HETATM    9  C   UNL     1     -11.237  12.975  69.526  1.00  0.00    -0.146 A  
HETATM   10  C   UNL     1     -10.651  12.761  68.266  1.00  0.00    -0.251 A  
HETATM   11  C   UNL     1     -10.249  11.488  67.857  1.00  0.00    -0.200 A  
HETATM   12  C   UNL     1     -10.433  10.389  68.686  1.00  0.00    -0.196 A  
HETATM   13  C   UNL     1     -11.422  11.842  70.345  1.00  0.00     0.067 A  
HETATM   14  C   UNL     1     -11.032  10.563  69.930  1.00  0.00    -0.359 A  
BRANCH  12  15
HETATM   15  O   UNL     1     -10.022   9.197  68.155  1.00  0.00    -0.163 OA 
BRANCH  15  16
HETATM   16  C   UNL     1      -9.079   8.462  68.922  1.00  0.00    -0.147 C  
BRANCH  16  17
HETATM   17  C   UNL     1      -9.268   6.976  68.608  1.00  0.00    -0.131 C  
BRANCH  17  18
HETATM   18  O   UNL     1     -10.620   6.504  68.658  1.00  0.00    -0.199 OA 
BRANCH  18  19
HETATM   19  C   UNL     1     -10.898   5.427  69.547  1.00  0.00    -0.057 C  
BRANCH  19  20
HETATM   20  C   UNL     1      -9.944   4.246  69.323  1.00  0.00    -0.016 C  
BRANCH  20  21
HETATM   21  N   UNL     1      -9.098   3.840  70.538  1.00  0.00    -0.106 N  
HETATM   22  C   UNL     1      -9.161   2.310  70.629  1.00  0.00    -0.102 C  
HETATM   23  C   UNL     1      -7.642   4.240  70.328  1.00  0.00    -0.046 C  
BRANCH  21  24
HETATM   24  C   UNL     1      -9.679   4.467  71.834  1.00  0.00    -0.170 C  
BRANCH  24  25
HETATM   25  C   UNL     1      -9.159   5.838  72.174  1.00  0.00    -0.147 A  
HETATM   26  C   UNL     1      -7.791   6.121  72.046  1.00  0.00    -0.105 A  
HETATM   27  C   UNL     1      -7.276   7.333  72.501  1.00  0.00    -0.071 A  
HETATM   28  C   UNL     1      -8.124   8.280  73.068  1.00  0.00    -0.210 A  
HETATM   29  C   UNL     1      -9.493   8.036  73.147  1.00  0.00    -0.349 A  
HETATM   30  C   UNL     1     -10.013   6.826  72.689  1.00  0.00    -0.186 A  
ENDBRANCH  24  25
ENDBRANCH  21  24
ENDBRANCH  20  21
ENDBRANCH  19  20
ENDBRANCH  18  19
ENDBRANCH  17  18
ENDBRANCH  16  17
ENDBRANCH  15  16
ENDBRANCH  12  15
ENDBRANCH   6   9
ENDBRANCH   5   6
ENDBRANCH   2   5
TORSDOF 12
ENDMDL
MODEL      321
REMARK 921   NORMALIZED FREE ENERGY PREDICTED BY IDOCK:   -2.23 KCAL/MOL
REMARK 922        TOTAL FREE ENERGY PREDICTED BY IDOCK:   -5.06 KCAL/MOL
REMARK 923 INTER-LIGAND FREE ENERGY PREDICTED BY IDOCK:   -5.77 KCAL/MOL
REMARK 924 INTRA-LIGAND FREE ENERGY PREDICTED BY IDOCK:    0.71 KCAL/MOL
REMARK 927      BINDING AFFINITY PREDICTED BY RF-SCORE:    0.00 PKD
ROOT
HETATM    1  C   UNL     1      -9.208   4.442  66.696  1.00  0.00    -0.143 C  
HETATM    2  C   UNL     1      -9.163   5.325  67.950  1.00  0.00    -0.122 C  
HETATM    3  C   UNL     1     -10.579   5.505  68.514  1.00  0.00    -0.208 C  
HETATM    4  C   UNL     1      -8.356   4.535  69.016  1.00  0.00    -0.086 C  
ENDROOT
BRANCH   2   5
HETATM    5  C   UNL     1      -8.422   6.682  67.719  1.00  0.00    -0.122 C  
BRANCH   5   6
HETATM    6  C   UNL     1      -6.908   6.820  67.303  1.00  0.00    -0.072 C  
HETATM    7  C   UNL     1      -6.258   5.464  66.945  1.00  0.00    -0.035 C  
HETATM    8  C   UNL     1      -6.048   7.443  68.421  1.00  0.00    -0.031 C  
BRANCH   6   9
HETATM    9  C   UNL     1      -6.870   7.696  66.020  1.00  0.00    -0.061 A  
HETATM   10  C   UNL     1      -6.469   9.043  66.021  1.00  0.00    -0.064 A  
HETATM   11  C   UNL     1      -6.443   9.796  64.846  1.00  0.00    -0.100 A  
HETATM   12  C   UNL     1      -6.832   9.232  63.637  1.00  0.00    -0.092 A  
HETATM   13  C   UNL     1      -7.268   7.149  64.782  1.00  0.00    -0.072 A  
HETATM   14  C   UNL     1      -7.256   7.908  63.606  1.00  0.00    -0.090 A  
BRANCH  12  15
HETATM   15  O   UNL     1      -6.787  10.085  62.568  1.00  0.00    -0.111 OA 
BRANCH  15  16
HETATM   16  C   UNL     1      -7.954  10.864  62.341  1.00  0.00    -0.148 C  
BRANCH  16  17
HETATM   17  C   UNL     1      -9.169  10.019  62.730  1.00  0.00    -0.290 C  
BRANCH  17  18
HETATM   18  O   UNL     1     -10.355  10.757  63.051  1.00  0.00    -0.207 OA 
BRANCH  18  19
HETATM   19  C   UNL     1     -10.182  12.000  63.726  1.00  0.00    -0.422 C  
BRANCH  19  20
HETATM   20  C   UNL     1     -11.255  12.215  64.802  1.00  0.00    -0.323 C  
BRANCH  20  21
HETATM   21  N   UNL     1     -10.728  12.522  66.211  1.00  0.00    -0.256 N  
HETATM   22  C   UNL     1     -10.041  11.245  66.713  1.00  0.00    -0.219 C  
HETATM   23  C   UNL     1      -9.681  13.629  66.155  1.00  0.00    -0.255 C  
BRANCH  21  24
HETATM   24  C   UNL     1     -11.901  12.894  67.156  1.00  0.00    -0.362 C  
BRANCH  24  25
HETATM   25  C   UNL     1     -11.602  13.977  68.157  1.00  0.00    -0.369 A  
HETATM   26  C   UNL     1     -11.215  15.252  67.715  1.00  0.00    -0.327 A  
HETATM   27  C   UNL     1     -10.789  16.215  68.628  1.00  0.00    -0.311 A  
HETATM   28  C   UNL     1     -10.765  15.922  69.989  1.00  0.00    -0.343 A  
HETATM   29  C   UNL     1     -11.204  14.681  70.445  1.00  0.00    -0.170 A  
HETATM   30  C   UNL     1     -11.634  13.716  69.535  1.00  0.00    -0.361 A  
ENDBRANCH  24  25
ENDBRANCH  21  24
ENDBRANCH  20  21
ENDBRANCH  19  20
ENDBRANCH  18  19
ENDBRANCH  17  18
ENDBRANCH  16  17
ENDBRANCH  15  16
ENDBRANCH  12  15
ENDBRANCH   6   9
ENDBRANCH   5   6
ENDBRANCH   2   5
TORSDOF 12
ENDMDL
MODEL      322
REMARK 921   NORMALIZED FREE ENERGY PREDICTED BY IDOCK:   -2.16 KCAL/MOL
REMARK 922        TOTAL FREE ENERGY PREDICTED BY IDOCK:   -4.95 KCAL/MOL
REMARK 923 INTER-LIGAND FREE ENERGY PREDICTED BY IDOCK:   -4.44 KCAL/MOL
REMARK 924 INTRA-LIGAND FREE ENERGY PREDICTED BY IDOCK:   -0.51 KCAL/MOL
REMARK 927      BINDING AFFINITY PREDICTED BY RF-SCORE:    0.00 PKD
ROOT
HETATM    1  C   UNL     1      -7.563  13.971  67.805  1.00  0.00    -0.177 C  
HETATM    2  C   UNL     1      -8.158  12.680  67.226  1.00  0.00    -0.178 C  
HETATM    3  C   UNL     1      -7.033  11.772  66.710  1.00  0.00    -0.047 C  
HETATM    4  C   UNL     1      -8.826  11.933  68.412  1.00  0.00    -0.159 C  
ENDROOT
BRANCH   2   5
HETATM    5  C   UNL     1      -9.269  12.941  66.157  1.00  0.00    -0.027 C  
BRANCH   5   6
HETATM    6  C   UNL     1     -10.389  11.907  65.756  1.00  0.00    -0.285 C  
HETATM    7  C   UNL     1     -11.219  12.364  64.534  1.00  0.00    -0.371 C  
HETATM    8  C   UNL     1     -11.389  11.656  66.903  1.00  0.00    -0.364 C  
BRANCH   6   9
HETATM    9  C   UNL     1      -9.668  10.593  65.351  1.00  0.00    -0.306 A  
HETATM   10  C   UNL     1      -8.913  10.461  64.171  1.00  0.00    -0.251 A  
HETATM   11  C   UNL     1      -8.275   9.263  63.845  1.00  0.00    -0.165 A  
HETATM   12  C   UNL     1      -8.383   8.156  64.678  1.00  0.00    -0.079 A  
HETATM   13  C   UNL     1      -9.769   9.451  66.174  1.00  0.00    -0.334 A  
HETATM   14  C   UNL     1      -9.141   8.246  65.841  1.00  0.00    -0.203 A  
BRANCH  12  15
HETATM   15  O   UNL     1      -7.734   7.038  64.229  1.00  0.00    -0.106 OA 
BRANCH  15  16
HETATM   16  C   UNL     1      -6.603   6.626  64.983  1.00  0.00    -0.046 C  
BRANCH  16  17
HETATM   17  C   UNL     1      -6.850   5.193  65.461  1.00  0.00    -0.061 C  
BRANCH  17  18
HETATM   18  O   UNL     1      -7.919   5.033  66.401  1.00  0.00    -0.105 OA 
BRANCH  18  19
HETATM   19  C   UNL     1      -7.623   4.338  67.608  1.00  0.00    -0.073 C  
BRANCH  19  20
HETATM   20  C   UNL     1      -8.074   5.130  68.843  1.00  0.00    -0.085 C  
BRANCH  20  21
HETATM   21  N   UNL     1      -9.328   4.597  69.550  1.00  0.00    -0.126 N  
HETATM   22  C   UNL     1     -10.532   5.057  68.718  1.00  0.00     0.026 C  
HETATM   23  C   UNL     1      -9.321   3.073  69.565  1.00  0.00    -0.143 C  
BRANCH  21  24
HETATM   24  C   UNL     1      -9.428   5.181  70.985  1.00  0.00    -0.160 C  
BRANCH  24  25
HETATM   25  C   UNL     1      -8.462   6.292  71.295  1.00  0.00    -0.124 A  
HETATM   26  C   UNL     1      -7.119   5.996  71.575  1.00  0.00    -0.078 A  
HETATM   27  C   UNL     1      -6.253   6.997  72.011  1.00  0.00    -0.041 A  
HETATM   28  C   UNL     1      -6.713   8.303  72.152  1.00  0.00    -0.084 A  
HETATM   29  C   UNL     1      -8.027   8.622  71.820  1.00  0.00    -0.151 A  
HETATM   30  C   UNL     1      -8.896   7.624  71.379  1.00  0.00    -0.141 A  
ENDBRANCH  24  25
ENDBRANCH  21  24
ENDBRANCH  20  21
ENDBRANCH  19  20
ENDBRANCH  18  19
ENDBRANCH  17  18
ENDBRANCH  16  17
ENDBRANCH  15  16
ENDBRANCH  12  15
ENDBRANCH   6   9
ENDBRANCH   5   6
ENDBRANCH   2   5
TORSDOF 12
ENDMDL
MODEL      323
REMARK 921   NORMALIZED FREE ENERGY PREDICTED BY IDOCK:   -2.12 KCAL/MOL
REMARK 922        TOTAL FREE ENERGY PREDICTED BY IDOCK:   -4.87 KCAL/MOL
REMARK 923 INTER-LIGAND FREE ENERGY PREDICTED BY IDOCK:   -5.28 KCAL/MOL
REMARK 924 INTRA-LIGAND FREE ENERGY PREDICTED BY IDOCK:    0.41 KCAL/MOL
REMARK 927      BINDING AFFINITY PREDICTED BY RF-SCORE:    0.00 PKD
ROOT
HETATM    1  C   UNL     1      -5.760   3.501  65.486  1.00  0.00    -0.018 C  
HETATM    2  C   UNL     1      -6.367   3.278  66.878  1.00  0.00    -0.036 C  
HETATM    3  C   UNL     1      -7.189   1.982  66.887  1.00  0.00    -0.052 C  
HETATM    4  C   UNL     1      -5.175   3.057  67.848  1.00  0.00    -0.012 C  
ENDROOT
BRANCH   2   5
HETATM    5  C   UNL     1      -7.171   4.512  67.402  1.00  0.00    -0.069 C  
BRANCH   5   6
HETATM    6  C   UNL     1      -8.659   4.849  67.006  1.00  0.00    -0.104 C  
HETATM    7  C   UNL     1      -9.519   3.586  66.775  1.00  0.00    -0.190 C  
HETATM    8  C   UNL     1      -8.744   5.688  65.715  1.00  0.00    -0.150 C  
BRANCH   6   9
HETATM    9  C   UNL     1      -9.285   5.613  68.206  1.00  0.00    -0.116 A  
HETATM   10  C   UNL     1      -8.666   5.705  69.466  1.00  0.00    -0.109 A  
HETATM   11  C   UNL     1      -9.259   6.406  70.518  1.00  0.00    -0.162 A  
HETATM   12  C   UNL     1     -10.493   7.022  70.350  1.00  0.00    -0.206 A  
HETATM   13  C   UNL     1     -10.541   6.239  68.064  1.00  0.00    -0.326 A  
HETATM   14  C   UNL     1     -11.142   6.930  69.123  1.00  0.00    -0.205 A  
BRANCH  12  15
HETATM   15  O   UNL     1     -10.974   7.649  71.466  1.00  0.00    -0.231 OA 
BRANCH  15  16
HETATM   16  C   UNL     1     -10.589   9.007  71.636  1.00  0.00    -0.364 C  
BRANCH  16  17
HETATM   17  C   UNL     1     -10.349   9.607  70.248  1.00  0.00    -0.280 C  
BRANCH  17  18
HETATM   18  O   UNL     1     -11.233  10.671  69.876  1.00  0.00    -0.267 OA 
BRANCH  18  19
HETATM   19  C   UNL     1     -11.663  10.712  68.520  1.00  0.00    -0.127 C  
BRANCH  19  20
HETATM   20  C   UNL     1     -10.616  11.373  67.612  1.00  0.00    -0.202 C  
BRANCH  20  21
HETATM   21  N   UNL     1     -10.905  12.829  67.219  1.00  0.00    -0.247 N  
HETATM   22  C   UNL     1     -12.188  12.813  66.378  1.00  0.00    -0.172 C  
HETATM   23  C   UNL     1     -11.167  13.671  68.462  1.00  0.00    -0.280 C  
BRANCH  21  24
HETATM   24  C   UNL     1      -9.733  13.402  66.378  1.00  0.00    -0.277 C  
BRANCH  24  25
HETATM   25  C   UNL     1      -8.790  14.308  67.124  1.00  0.00    -0.243 A  
HETATM   26  C   UNL     1      -7.614  13.787  67.686  1.00  0.00    -0.189 A  
HETATM   27  C   UNL     1      -6.814  14.580  68.505  1.00  0.00    -0.096 A  
HETATM   28  C   UNL     1      -7.167  15.904  68.754  1.00  0.00    -0.148 A  
HETATM   29  C   UNL     1      -8.299  16.450  68.153  1.00  0.00    -0.186 A  
HETATM   30  C   UNL     1      -9.101  15.661  67.329  1.00  0.00    -0.217 A  
ENDBRANCH  24  25
ENDBRANCH  21  24
ENDBRANCH  20  21
ENDBRANCH  19  20
ENDBRANCH  18  19
ENDBRANCH  17  18
ENDBRANCH  16  17
ENDBRANCH  15  16
ENDBRANCH  12  15
ENDBRANCH   6   9
ENDBRANCH   5   6
ENDBRANCH   2   5
TORSDOF 12
ENDMDL
MODEL      324
REMARK 921   NORMALIZED FREE ENERGY PREDICTED BY IDOCK:   -2.10 KCAL/MOL
REMARK 922        TOTAL FREE ENERGY PREDICTED BY IDOCK:   -4.84 KCAL/MOL
REMARK 923 INTER-LIGAND FREE ENERGY PREDICTED BY IDOCK:   -4.52 KCAL/MOL
REMARK 924 INTRA-LIGAND FREE ENERGY PREDICTED BY IDOCK:   -0.32 KCAL/MOL
REMARK 927      BINDING AFFINITY PREDICTED BY RF-SCORE:    0.00 PKD
ROOT
HETATM    1  C   UNL     1      -8.450  19.975  67.398  1.00  0.00    -0.391 C  
HETATM    2  C   UNL     1      -9.725  19.199  67.752  1.00  0.00    -0.391 C  
HETATM    3  C   UNL     1     -10.298  19.714  69.080  1.00  0.00    -0.222 C  
HETATM    4  C   UNL     1     -10.768  19.541  66.654  1.00  0.00    -0.552 C  
ENDROOT
BRANCH   2   5
HETATM    5  C   UNL     1      -9.525  17.648  67.736  1.00  0.00    -0.260 C  
BRANCH   5   6
HETATM    6  C   UNL     1      -8.173  16.921  67.381  1.00  0.00    -0.199 C  
HETATM    7  C   UNL     1      -6.961  17.497  68.147  1.00  0.00    -0.200 C  
HETATM    8  C   UNL     1      -7.835  17.018  65.879  1.00  0.00     0.037 C  
BRANCH   6   9
HETATM    9  C   UNL     1      -8.328  15.439  67.820  1.00  0.00    -0.156 A  
HETATM   10  C   UNL     1      -9.517  14.916  68.357  1.00  0.00    -0.209 A  
HETATM   11  C   UNL     1      -9.618  13.576  68.735  1.00  0.00     0.009 A  
HETATM   12  C   UNL     1      -8.531  12.721  68.604  1.00  0.00     0.050 A  
HETATM   13  C   UNL     1      -7.236  14.553  67.705  1.00  0.00    -0.192 A  
HETATM   14  C   UNL     1      -7.332  13.213  68.098  1.00  0.00    -0.119 A  
BRANCH  12  15
HETATM   15  O   UNL     1      -8.754  11.443  69.038  1.00  0.00    -0.058 OA 
BRANCH  15  16
HETATM   16  C   UNL     1     -10.090  10.971  68.933  1.00  0.00    -0.199 C  
BRANCH  16  17
HETATM   17  C   UNL     1     -10.198  10.139  67.652  1.00  0.00    -0.203 C  
BRANCH  17  18
HETATM   18  O   UNL     1      -9.572   8.852  67.700  1.00  0.00    -0.142 OA 
BRANCH  18  19
HETATM   19  C   UNL     1     -10.175   7.868  68.533  1.00  0.00    -0.205 C  
BRANCH  19  20
HETATM   20  C   UNL     1      -9.369   7.644  69.820  1.00  0.00    -0.150 C  
BRANCH  20  21
HETATM   21  N   UNL     1      -8.433   6.427  69.812  1.00  0.00    -0.126 N  
HETATM   22  C   UNL     1      -7.103   6.897  69.208  1.00  0.00    -0.084 C  
HETATM   23  C   UNL     1      -8.163   5.956  71.236  1.00  0.00    -0.123 C  
BRANCH  21  24
HETATM   24  C   UNL     1      -9.033   5.291  68.940  1.00  0.00    -0.103 C  
BRANCH  24  25
HETATM   25  C   UNL     1      -8.027   4.387  68.281  1.00  0.00    -0.079 A  
HETATM   26  C   UNL     1      -7.709   4.560  66.925  1.00  0.00    -0.094 A  
HETATM   27  C   UNL     1      -6.898   3.638  66.268  1.00  0.00    -0.057 A  
HETATM   28  C   UNL     1      -6.381   2.547  66.961  1.00  0.00    -0.028 A  
HETATM   29  C   UNL     1      -6.639   2.396  68.322  1.00  0.00    -0.029 A  
HETATM   30  C   UNL     1      -7.448   3.319  68.984  1.00  0.00    -0.049 A  
ENDBRANCH  24  25
ENDBRANCH  21  24
ENDBRANCH  20  21
ENDBRANCH  19  20
ENDBRANCH  18  19
ENDBRANCH  17  18
ENDBRANCH  16  17
ENDBRANCH  15  16
ENDBRANCH  12  15
ENDBRANCH   6   9
ENDBRANCH   5   6
ENDBRANCH   2   5
TORSDOF 12
ENDMDL
MODEL      325
REMARK 921   NORMALIZED FREE ENERGY PREDICTED BY IDOCK:   -2.07 KCAL/MOL
REMARK 922        TOTAL FREE ENERGY PREDICTED BY IDOCK:   -4.79 KCAL/MOL
REMARK 923 INTER-LIGAND FREE ENERGY PREDICTED BY IDOCK:   -4.09 KCAL/MOL
REMARK 924 INTRA-LIGAND FREE ENERGY PREDICTED BY IDOCK:   -0.70 KCAL/MOL
REMARK 927      BINDING AFFINITY PREDICTED BY RF-SCORE:    0.00 PKD
ROOT
HETATM    1  C   UNL     1      -7.439   4.598  69.844  1.00  0.00    -0.054 C  
HETATM    2  C   UNL     1      -8.118   3.777  68.740  1.00  0.00    -0.076 C  
HETATM    3  C   UNL     1      -7.627   2.324  68.793  1.00  0.00    -0.046 C  
HETATM    4  C   UNL     1      -9.632   3.749  69.081  1.00  0.00    -0.195 C  
ENDROOT
BRANCH   2   5
HETATM    5  C   UNL     1      -7.973   4.417  67.321  1.00  0.00    -0.100 C  
BRANCH   5   6
HETATM    6  C   UNL     1      -6.600   4.767  66.630  1.00  0.00    -0.050 C  
HETATM    7  C   UNL     1      -6.042   3.603  65.779  1.00  0.00    -0.027 C  
HETATM    8  C   UNL     1      -5.506   5.132  67.654  1.00  0.00    -0.012 C  
BRANCH   6   9
HETATM    9  C   UNL     1      -6.870   5.951  65.661  1.00  0.00    -0.056 A  
HETATM   10  C   UNL     1      -6.520   7.281  65.955  1.00  0.00    -0.045 A  
HETATM   11  C   UNL     1      -6.775   8.317  65.055  1.00  0.00    -0.063 A  
HETATM   12  C   UNL     1      -7.401   8.060  63.842  1.00  0.00    -0.098 A  
HETATM   13  C   UNL     1      -7.512   5.718  64.427  1.00  0.00    -0.075 A  
HETATM   14  C   UNL     1      -7.781   6.759  63.530  1.00  0.00    -0.114 A  
BRANCH  12  15
HETATM   15  O   UNL     1      -7.617   9.166  63.066  1.00  0.00    -0.103 OA 
BRANCH  15  16
HETATM   16  C   UNL     1      -8.958   9.385  62.649  1.00  0.00    -0.203 C  
BRANCH  16  17
HETATM   17  C   UNL     1      -9.463  10.660  63.330  1.00  0.00    -0.329 C  
BRANCH  17  18
HETATM   18  O   UNL     1     -10.131  10.466  64.582  1.00  0.00    -0.345 OA 
BRANCH  18  19
HETATM   19  C   UNL     1      -9.914  11.447  65.591  1.00  0.00    -0.240 C  
BRANCH  19  20
HETATM   20  C   UNL     1     -10.879  11.269  66.771  1.00  0.00    -0.282 C  
BRANCH  20  21
HETATM   21  N   UNL     1     -10.367  11.777  68.127  1.00  0.00    -0.193 N  
HETATM   22  C   UNL     1      -8.940  12.289  67.896  1.00  0.00    -0.186 C  
HETATM   23  C   UNL     1     -11.216  12.948  68.609  1.00  0.00    -0.281 C  
BRANCH  21  24
HETATM   24  C   UNL     1     -10.349  10.621  69.163  1.00  0.00    -0.221 C  
BRANCH  24  25
HETATM   25  C   UNL     1      -9.058   9.852  69.246  1.00  0.00    -0.196 A  
HETATM   26  C   UNL     1      -9.076   8.449  69.252  1.00  0.00    -0.150 A  
HETATM   27  C   UNL     1      -7.905   7.730  69.481  1.00  0.00    -0.111 A  
HETATM   28  C   UNL     1      -6.703   8.403  69.685  1.00  0.00    -0.037 A  
HETATM   29  C   UNL     1      -6.661   9.794  69.622  1.00  0.00    -0.055 A  
HETATM   30  C   UNL     1      -7.830  10.517  69.389  1.00  0.00    -0.151 A  
ENDBRANCH  24  25
ENDBRANCH  21  24
ENDBRANCH  20  21
ENDBRANCH  19  20
ENDBRANCH  18  19
ENDBRANCH  17  18
ENDBRANCH  16  17
ENDBRANCH  15  16
ENDBRANCH  12  15
ENDBRANCH   6   9
ENDBRANCH   5   6
ENDBRANCH   2   5
TORSDOF 12
ENDMDL
MODEL      326
REMARK 921   NORMALIZED FREE ENERGY PREDICTED BY IDOCK:   -2.00 KCAL/MOL
REMARK 922        TOTAL FREE ENERGY PREDICTED BY IDOCK:   -4.67 KCAL/MOL
REMARK 923 INTER-LIGAND FREE ENERGY PREDICTED BY IDOCK:   -3.72 KCAL/MOL
REMARK 924 INTRA-LIGAND FREE ENERGY PREDICTED BY IDOCK:   -0.95 KCAL/MOL
REMARK 927      BINDING AFFINITY PREDICTED BY RF-SCORE:    0.00 PKD
ROOT
HETATM    1  C   UNL     1      -7.346  13.781  67.479  1.00  0.00    -0.176 C  
HETATM    2  C   UNL     1      -7.681  12.332  67.858  1.00  0.00    -0.133 C  
HETATM    3  C   UNL     1      -9.203  12.138  67.888  1.00  0.00    -0.188 C  
HETATM    4  C   UNL     1      -7.141  11.440  66.707  1.00  0.00    -0.132 C  
ENDROOT
BRANCH   2   5
HETATM    5  C   UNL     1      -6.981  11.864  69.175  1.00  0.00    -0.079 C  
BRANCH   5   6
HETATM    6  C   UNL     1      -6.360  10.433  69.403  1.00  0.00    -0.053 C  
HETATM    7  C   UNL     1      -5.628  10.304  70.757  1.00  0.00    -0.084 C  
HETATM    8  C   UNL     1      -5.339  10.059  68.308  1.00  0.00    -0.035 C  
BRANCH   6   9
HETATM    9  C   UNL     1      -7.542   9.425  69.426  1.00  0.00    -0.083 A  
HETATM   10  C   UNL     1      -7.712   8.416  68.462  1.00  0.00    -0.104 A  
HETATM   11  C   UNL     1      -8.785   7.526  68.520  1.00  0.00    -0.128 A  
HETATM   12  C   UNL     1      -9.731   7.626  69.533  1.00  0.00    -0.168 A  
HETATM   13  C   UNL     1      -8.521   9.512  70.438  1.00  0.00    -0.238 A  
HETATM   14  C   UNL     1      -9.605   8.629  70.490  1.00  0.00    -0.210 A  
BRANCH  12  15
HETATM   15  O   UNL     1     -10.747   6.712  69.459  1.00  0.00    -0.221 OA 
BRANCH  15  16
HETATM   16  C   UNL     1     -10.623   5.570  70.294  1.00  0.00    -0.287 C  
BRANCH  16  17
HETATM   17  C   UNL     1      -9.443   4.738  69.785  1.00  0.00    -0.162 C  
BRANCH  17  18
HETATM   18  O   UNL     1      -9.771   3.728  68.823  1.00  0.00    -0.143 OA 
BRANCH  18  19
HETATM   19  C   UNL     1      -9.259   3.897  67.505  1.00  0.00    -0.172 C  
BRANCH  19  20
HETATM   20  C   UNL     1      -7.743   4.142  67.513  1.00  0.00    -0.080 C  
BRANCH  20  21
HETATM   21  N   UNL     1      -7.161   4.727  66.218  1.00  0.00    -0.075 N  
HETATM   22  C   UNL     1      -5.993   5.633  66.629  1.00  0.00    -0.018 C  
HETATM   23  C   UNL     1      -6.606   3.614  65.336  1.00  0.00    -0.037 C  
BRANCH  21  24
HETATM   24  C   UNL     1      -8.236   5.562  65.472  1.00  0.00    -0.130 C  
BRANCH  24  25
HETATM   25  C   UNL     1      -7.709   6.730  64.683  1.00  0.00    -0.112 A  
HETATM   26  C   UNL     1      -8.194   8.023  64.935  1.00  0.00    -0.137 A  
HETATM   27  C   UNL     1      -7.828   9.086  64.112  1.00  0.00    -0.132 A  
HETATM   28  C   UNL     1      -6.961   8.872  63.043  1.00  0.00    -0.089 A  
HETATM   29  C   UNL     1      -6.427   7.606  62.818  1.00  0.00    -0.067 A  
HETATM   30  C   UNL     1      -6.787   6.541  63.642  1.00  0.00    -0.049 A  
ENDBRANCH  24  25
ENDBRANCH  21  24
ENDBRANCH  20  21
ENDBRANCH  19  20
ENDBRANCH  18  19
ENDBRANCH  17  18
ENDBRANCH  16  17
ENDBRANCH  15  16
ENDBRANCH  12  15
ENDBRANCH   6   9
ENDBRANCH   5   6
ENDBRANCH   2   5
TORSDOF 12
ENDMDL
MODEL      327
REMARK 921   NORMALIZED FREE ENERGY PREDICTED BY IDOCK:   -1.86 KCAL/MOL
REMARK 922        TOTAL FREE ENERGY PREDICTED BY IDOCK:   -4.43 KCAL/MOL
REMARK 923 INTER-LIGAND FREE ENERGY PREDICTED BY IDOCK:   -3.42 KCAL/MOL
REMARK 924 INTRA-LIGAND FREE ENERGY PREDICTED BY IDOCK:   -1.02 KCAL/MOL
REMARK 927      BINDING AFFINITY PREDICTED BY RF-SCORE:    0.00 PKD
ROOT
HETATM    1  C   UNL     1      -6.045  12.213  69.659  1.00  0.00    -0.129 C  
HETATM    2  C   UNL     1      -7.021  12.594  68.538  1.00  0.00    -0.094 C  
HETATM    3  C   UNL     1      -6.732  14.022  68.057  1.00  0.00    -0.148 C  
HETATM    4  C   UNL     1      -6.711  11.650  67.345  1.00  0.00    -0.108 C  
ENDROOT
BRANCH   2   5
HETATM    5  C   UNL     1      -8.519  12.373  68.927  1.00  0.00     0.263 C  
BRANCH   5   6
HETATM    6  C   UNL     1      -9.703  12.231  67.895  1.00  0.00    -0.202 C  
HETATM    7  C   UNL     1      -9.506  13.097  66.631  1.00  0.00    -0.260 C  
HETATM    8  C   UNL     1     -11.061  12.636  68.505  1.00  0.00    -0.300 C  
BRANCH   6   9
HETATM    9  C   UNL     1      -9.723  10.748  67.433  1.00  0.00    -0.194 A  
HETATM   10  C   UNL     1      -9.662   9.663  68.325  1.00  0.00    -0.162 A  
HETATM   11  C   UNL     1      -9.688   8.344  67.870  1.00  0.00    -0.189 A  
HETATM   12  C   UNL     1      -9.760   8.067  66.510  1.00  0.00    -0.227 A  
HETATM   13  C   UNL     1      -9.787  10.440  66.057  1.00  0.00    -0.289 A  
HETATM   14  C   UNL     1      -9.798   9.118  65.600  1.00  0.00    -0.164 A  
BRANCH  12  15
HETATM   15  O   UNL     1      -9.749   6.735  66.197  1.00  0.00    -0.053 OA 
BRANCH  15  16
HETATM   16  C   UNL     1     -10.598   5.903  66.976  1.00  0.00    -0.305 C  
BRANCH  16  17
HETATM   17  C   UNL     1      -9.761   4.732  67.499  1.00  0.00    -0.171 C  
BRANCH  17  18
HETATM   18  O   UNL     1     -10.130   4.243  68.794  1.00  0.00    -0.033 OA 
BRANCH  18  19
HETATM   19  C   UNL     1      -9.270   4.571  69.880  1.00  0.00    -0.127 C  
BRANCH  19  20
HETATM   20  C   UNL     1      -7.966   5.219  69.395  1.00  0.00    -0.088 C  
BRANCH  20  21
HETATM   21  N   UNL     1      -6.675   4.493  69.801  1.00  0.00    -0.036 N  
HETATM   22  C   UNL     1      -6.965   2.990  69.709  1.00  0.00    -0.034 C  
HETATM   23  C   UNL     1      -5.554   4.818  68.821  1.00  0.00    -0.012 C  
BRANCH  21  24
HETATM   24  C   UNL     1      -6.284   4.864  71.257  1.00  0.00    -0.019 C  
BRANCH  24  25
HETATM   25  C   UNL     1      -6.641   6.262  71.683  1.00  0.00    -0.055 A  
HETATM   26  C   UNL     1      -5.867   7.348  71.246  1.00  0.00    -0.036 A  
HETATM   27  C   UNL     1      -6.094   8.625  71.753  1.00  0.00    -0.063 A  
HETATM   28  C   UNL     1      -7.108   8.834  72.684  1.00  0.00     0.084 A  
HETATM   29  C   UNL     1      -7.923   7.777  73.081  1.00  0.00    -0.168 A  
HETATM   30  C   UNL     1      -7.701   6.497  72.572  1.00  0.00    -0.099 A  
ENDBRANCH  24  25
ENDBRANCH  21  24
ENDBRANCH  20  21
ENDBRANCH  19  20
ENDBRANCH  18  19
ENDBRANCH  17  18
ENDBRANCH  16  17
ENDBRANCH  15  16
ENDBRANCH  12  15
ENDBRANCH   6   9
ENDBRANCH   5   6
ENDBRANCH   2   5
TORSDOF 12
ENDMDL
MODEL      328
REMARK 921   NORMALIZED FREE ENERGY PREDICTED BY IDOCK:   -1.77 KCAL/MOL
REMARK 922        TOTAL FREE ENERGY PREDICTED BY IDOCK:   -4.27 KCAL/MOL
REMARK 923 INTER-LIGAND FREE ENERGY PREDICTED BY IDOCK:   -4.78 KCAL/MOL
REMARK 924 INTRA-LIGAND FREE ENERGY PREDICTED BY IDOCK:    0.50 KCAL/MOL
REMARK 927      BINDING AFFINITY PREDICTED BY RF-SCORE:    0.00 PKD
ROOT
HETATM    1  C   UNL     1     -11.945   7.860  72.696  1.00  0.00    -0.299 C  
HETATM    2  C   UNL     1     -13.049   8.506  71.848  1.00  0.00    -0.391 C  
HETATM    3  C   UNL     1     -13.959   7.419  71.260  1.00  0.00    -0.374 C  
HETATM    4  C   UNL     1     -13.923   9.339  72.825  1.00  0.00    -0.192 C  
ENDROOT
BRANCH   2   5
HETATM    5  C   UNL     1     -12.496   9.490  70.766  1.00  0.00    -0.195 C  
BRANCH   5   6
HETATM    6  C   UNL     1     -10.985   9.585  70.326  1.00  0.00    -0.317 C  
HETATM    7  C   UNL     1     -10.006   9.167  71.447  1.00  0.00    -0.373 C  
HETATM    8  C   UNL     1     -10.590  11.014  69.901  1.00  0.00     0.049 C  
BRANCH   6   9
HETATM    9  C   UNL     1     -10.791   8.584  69.155  1.00  0.00    -0.049 A  
HETATM   10  C   UNL     1     -10.620   8.987  67.818  1.00  0.00    -0.278 A  
HETATM   11  C   UNL     1     -10.443   8.056  66.794  1.00  0.00    -0.319 A  
HETATM   12  C   UNL     1     -10.447   6.694  67.069  1.00  0.00    -0.298 A  
HETATM   13  C   UNL     1     -10.800   7.195  69.406  1.00  0.00    -0.225 A  
HETATM   14  C   UNL     1     -10.637   6.261  68.377  1.00  0.00    -0.316 A  
BRANCH  12  15
HETATM   15  O   UNL     1     -10.292   5.890  65.973  1.00  0.00     0.022 OA 
BRANCH  15  16
HETATM   16  C   UNL     1      -9.107   5.107  65.933  1.00  0.00    -0.153 C  
BRANCH  16  17
HETATM   17  C   UNL     1      -7.936   6.001  66.348  1.00  0.00    -0.105 C  
BRANCH  17  18
HETATM   18  O   UNL     1      -7.423   6.858  65.321  1.00  0.00    -0.079 OA 
BRANCH  18  19
HETATM   19  C   UNL     1      -7.954   6.690  64.011  1.00  0.00    -0.084 C  
BRANCH  19  20
HETATM   20  C   UNL     1      -7.500   7.812  63.067  1.00  0.00    -0.111 C  
BRANCH  20  21
HETATM   21  N   UNL     1      -7.529   9.228  63.660  1.00  0.00    -0.103 N  
HETATM   22  C   UNL     1      -7.138  10.189  62.530  1.00  0.00    -0.133 C  
HETATM   23  C   UNL     1      -8.940   9.584  64.115  1.00  0.00    -0.198 C  
BRANCH  21  24
HETATM   24  C   UNL     1      -6.508   9.345  64.824  1.00  0.00    -0.079 C  
BRANCH  24  25
HETATM   25  C   UNL     1      -6.964  10.169  65.998  1.00  0.00    -0.117 A  
HETATM   26  C   UNL     1      -6.841   9.662  67.301  1.00  0.00    -0.083 A  
HETATM   27  C   UNL     1      -7.397  10.348  68.379  1.00  0.00    -0.085 A  
HETATM   28  C   UNL     1      -8.060  11.554  68.170  1.00  0.00    -0.146 A  
HETATM   29  C   UNL     1      -8.137  12.098  66.890  1.00  0.00    -0.112 A  
HETATM   30  C   UNL     1      -7.579  11.416  65.809  1.00  0.00     0.368 A  
ENDBRANCH  24  25
ENDBRANCH  21  24
ENDBRANCH  20  21
ENDBRANCH  19  20
ENDBRANCH  18  19
ENDBRANCH  17  18
ENDBRANCH  16  17
ENDBRANCH  15  16
ENDBRANCH  12  15
ENDBRANCH   6   9
ENDBRANCH   5   6
ENDBRANCH   2   5
TORSDOF 12
ENDMDL
MODEL      329
REMARK 921   NORMALIZED FREE ENERGY PREDICTED BY IDOCK:   -1.74 KCAL/MOL
REMARK 922        TOTAL FREE ENERGY PREDICTED BY IDOCK:   -4.22 KCAL/MOL
REMARK 923 INTER-LIGAND FREE ENERGY PREDICTED BY IDOCK:   -4.95 KCAL/MOL
REMARK 924 INTRA-LIGAND FREE ENERGY PREDICTED BY IDOCK:    0.73 KCAL/MOL
REMARK 927      BINDING AFFINITY PREDICTED BY RF-SCORE:    0.00 PKD
ROOT
HETATM    1  C   UNL     1     -14.201  15.767  72.221  1.00  0.00    -0.417 C  
HETATM    2  C   UNL     1     -12.677  15.610  72.300  1.00  0.00    -0.513 C  
HETATM    3  C   UNL     1     -11.997  16.953  71.999  1.00  0.00     0.612 C  
HETATM    4  C   UNL     1     -12.346  15.265  73.777  1.00  0.00    -0.731 C  
ENDROOT
BRANCH   2   5
HETATM    5  C   UNL     1     -12.133  14.441  71.416  1.00  0.00    -0.397 C  
BRANCH   5   6
HETATM    6  C   UNL     1     -11.732  14.575  69.898  1.00  0.00    -0.354 C  
HETATM    7  C   UNL     1     -10.384  15.303  69.694  1.00  0.00    -0.271 C  
HETATM    8  C   UNL     1     -12.785  15.353  69.082  1.00  0.00     0.390 C  
BRANCH   6   9
HETATM    9  C   UNL     1     -11.558  13.133  69.347  1.00  0.00    -0.360 A  
HETATM   10  C   UNL     1     -10.960  12.850  68.106  1.00  0.00    -0.273 A  
HETATM   11  C   UNL     1     -10.818  11.539  67.649  1.00  0.00    -0.277 A  
HETATM   12  C   UNL     1     -11.281  10.471  68.408  1.00  0.00    -0.279 A  
HETATM   13  C   UNL     1     -12.028  12.032  70.094  1.00  0.00    -0.401 A  
HETATM   14  C   UNL     1     -11.899  10.719  69.629  1.00  0.00    -0.392 A  
BRANCH  12  15
HETATM   15  O   UNL     1     -11.106   9.243  67.832  1.00  0.00    -0.098 OA 
BRANCH  15  16
HETATM   16  C   UNL     1     -10.566   8.231  68.671  1.00  0.00    -0.108 C  
BRANCH  16  17
HETATM   17  C   UNL     1      -9.417   8.846  69.474  1.00  0.00    -0.159 C  
BRANCH  17  18
HETATM   18  O   UNL     1      -8.102   8.569  68.978  1.00  0.00    -0.111 OA 
BRANCH  18  19
HETATM   19  C   UNL     1      -7.161   8.029  69.900  1.00  0.00    -0.057 C  
BRANCH  19  20
HETATM   20  C   UNL     1      -6.999   8.925  71.135  1.00  0.00    -0.089 C  
BRANCH  20  21
HETATM   21  N   UNL     1      -7.341   8.266  72.480  1.00  0.00    -0.113 N  
HETATM   22  C   UNL     1      -6.211   8.632  73.451  1.00  0.00    -0.081 C  
HETATM   23  C   UNL     1      -8.642   8.836  73.034  1.00  0.00     0.337 C  
BRANCH  21  24
HETATM   24  C   UNL     1      -7.416   6.723  72.320  1.00  0.00    -0.092 C  
BRANCH  24  25
HETATM   25  C   UNL     1      -8.778   6.178  71.984  1.00  0.00    -0.135 A  
HETATM   26  C   UNL     1      -9.920   6.708  72.605  1.00  0.00    -0.185 A  
HETATM   27  C   UNL     1     -11.165   6.112  72.418  1.00  0.00    -0.329 A  
HETATM   28  C   UNL     1     -11.286   4.996  71.594  1.00  0.00     0.266 A  
HETATM   29  C   UNL     1     -10.171   4.497  70.923  1.00  0.00    -0.170 A  
HETATM   30  C   UNL     1      -8.924   5.093  71.105  1.00  0.00    -0.162 A  
ENDBRANCH  24  25
ENDBRANCH  21  24
ENDBRANCH  20  21
ENDBRANCH  19  20
ENDBRANCH  18  19
ENDBRANCH  17  18
ENDBRANCH  16  17
ENDBRANCH  15  16
ENDBRANCH  12  15
ENDBRANCH   6   9
ENDBRANCH   5   6
ENDBRANCH   2   5
TORSDOF 12
ENDMDL
MODEL      330
REMARK 921   NORMALIZED FREE ENERGY PREDICTED BY IDOCK:   -1.52 KCAL/MOL
REMARK 922        TOTAL FREE ENERGY PREDICTED BY IDOCK:   -3.85 KCAL/MOL
REMARK 923 INTER-LIGAND FREE ENERGY PREDICTED BY IDOCK:   -4.24 KCAL/MOL
REMARK 924 INTRA-LIGAND FREE ENERGY PREDICTED BY IDOCK:    0.39 KCAL/MOL
REMARK 927      BINDING AFFINITY PREDICTED BY RF-SCORE:    0.00 PKD
ROOT
HETATM    1  C   UNL     1     -12.963  15.293  73.901  1.00  0.00    -0.356 C  
HETATM    2  C   UNL     1     -13.047  15.136  72.377  1.00  0.00    -0.468 C  
HETATM    3  C   UNL     1     -14.274  15.886  71.841  1.00  0.00     0.007 C  
HETATM    4  C   UNL     1     -11.798  15.849  71.792  1.00  0.00    -0.579 C  
ENDROOT
BRANCH   2   5
HETATM    5  C   UNL     1     -12.992  13.645  71.909  1.00  0.00    -0.432 C  
BRANCH   5   6
HETATM    6  C   UNL     1     -12.300  13.145  70.583  1.00  0.00    -0.405 C  
HETATM    7  C   UNL     1     -10.925  13.807  70.337  1.00  0.00     0.693 C  
HETATM    8  C   UNL     1     -13.159  13.426  69.334  1.00  0.00     1.553 C  
BRANCH   6   9
HETATM    9  C   UNL     1     -12.048  11.621  70.752  1.00  0.00    -0.383 A  
HETATM   10  C   UNL     1     -11.006  10.937  70.102  1.00  0.00    -0.153 A  
HETATM   11  C   UNL     1     -10.809   9.567  70.284  1.00  0.00    -0.319 A  
HETATM   12  C   UNL     1     -11.656   8.835  71.107  1.00  0.00    -0.289 A  
HETATM   13  C   UNL     1     -12.899  10.854  71.575  1.00  0.00    -0.560 A  
HETATM   14  C   UNL     1     -12.711   9.477  71.746  1.00  0.00    -0.492 A  
BRANCH  12  15
HETATM   15  O   UNL     1     -11.371   7.499  71.176  1.00  0.00    -0.257 OA 
BRANCH  15  16
HETATM   16  C   UNL     1     -11.783   6.714  70.065  1.00  0.00    -0.317 C  
BRANCH  16  17
HETATM   17  C   UNL     1     -10.543   6.389  69.229  1.00  0.00    -0.259 C  
BRANCH  17  18
HETATM   18  O   UNL     1      -9.651   5.424  69.799  1.00  0.00    -0.148 OA 
BRANCH  18  19
HETATM   19  C   UNL     1      -9.820   4.069  69.396  1.00  0.00    -0.045 C  
BRANCH  19  20
HETATM   20  C   UNL     1      -9.290   3.829  67.976  1.00  0.00    -0.179 C  
BRANCH  20  21
HETATM   21  N   UNL     1      -8.021   2.971  67.878  1.00  0.00    -0.070 N  
HETATM   22  C   UNL     1      -7.694   2.503  69.302  1.00  0.00    -0.043 C  
HETATM   23  C   UNL     1      -8.280   1.735  67.025  1.00  0.00    -0.076 C  
BRANCH  21  24
HETATM   24  C   UNL     1      -6.843   3.813  67.319  1.00  0.00    -0.051 C  
BRANCH  24  25
HETATM   25  C   UNL     1      -7.230   5.130  66.702  1.00  0.00    -0.081 A  
HETATM   26  C   UNL     1      -7.481   6.242  67.522  1.00  0.00    -0.088 A  
HETATM   27  C   UNL     1      -7.987   7.420  66.976  1.00  0.00    -0.116 A  
HETATM   28  C   UNL     1      -8.227   7.506  65.607  1.00  0.00    -0.133 A  
HETATM   29  C   UNL     1      -7.926   6.431  64.775  1.00  0.00    -0.121 A  
HETATM   30  C   UNL     1      -7.416   5.251  65.316  1.00  0.00    -0.077 A  
ENDBRANCH  24  25
ENDBRANCH  21  24
ENDBRANCH  20  21
ENDBRANCH  19  20
ENDBRANCH  18  19
ENDBRANCH  17  18
ENDBRANCH  16  17
ENDBRANCH  15  16
ENDBRANCH  12  15
ENDBRANCH   6   9
ENDBRANCH   5   6
ENDBRANCH   2   5
TORSDOF 12
ENDMDL
MODEL      331
REMARK 921   NORMALIZED FREE ENERGY PREDICTED BY IDOCK:   -1.51 KCAL/MOL
REMARK 922        TOTAL FREE ENERGY PREDICTED BY IDOCK:   -3.83 KCAL/MOL
REMARK 923 INTER-LIGAND FREE ENERGY PREDICTED BY IDOCK:   -3.96 KCAL/MOL
REMARK 924 INTRA-LIGAND FREE ENERGY PREDICTED BY IDOCK:    0.13 KCAL/MOL
REMARK 927      BINDING AFFINITY PREDICTED BY RF-SCORE:    0.00 PKD
ROOT
HETATM    1  C   UNL     1     -10.537  14.105  66.547  1.00  0.00    -0.282 C  
HETATM    2  C   UNL     1     -11.589  13.648  65.527  1.00  0.00    -0.337 C  
HETATM    3  C   UNL     1     -12.986  14.089  65.985  1.00  0.00    -0.101 C  
HETATM    4  C   UNL     1     -11.288  14.415  64.211  1.00  0.00    -0.167 C  
ENDROOT
BRANCH   2   5
HETATM    5  C   UNL     1     -11.508  12.120  65.203  1.00  0.00    -0.376 C  
BRANCH   5   6
HETATM    6  C   UNL     1     -10.236  11.392  64.623  1.00  0.00    -0.347 C  
HETATM    7  C   UNL     1      -8.958  12.257  64.705  1.00  0.00     0.900 C  
HETATM    8  C   UNL     1     -10.413  11.000  63.142  1.00  0.00    -0.176 C  
BRANCH   6   9
HETATM    9  C   UNL     1      -9.994  10.135  65.504  1.00  0.00    -0.363 A  
HETATM   10  C   UNL     1      -9.194   9.053  65.097  1.00  0.00    -0.159 A  
HETATM   11  C   UNL     1      -8.996   7.943  65.920  1.00  0.00    -0.166 A  
HETATM   12  C   UNL     1      -9.603   7.873  67.168  1.00  0.00    -0.171 A  
HETATM   13  C   UNL     1     -10.606  10.035  66.771  1.00  0.00    -0.229 A  
HETATM   14  C   UNL     1     -10.420   8.916  67.591  1.00  0.00    -0.320 A  
BRANCH  12  15
HETATM   15  O   UNL     1      -9.351   6.721  67.861  1.00  0.00    -0.117 OA 
BRANCH  15  16
HETATM   16  C   UNL     1      -7.990   6.469  68.182  1.00  0.00    -0.110 C  
BRANCH  16  17
HETATM   17  C   UNL     1      -7.548   7.506  69.218  1.00  0.00    -0.100 C  
BRANCH  17  18
HETATM   18  O   UNL     1      -7.271   8.813  68.701  1.00  0.00    -0.071 OA 
BRANCH  18  19
HETATM   19  C   UNL     1      -7.213   9.882  69.639  1.00  0.00    -0.108 C  
BRANCH  19  20
HETATM   20  C   UNL     1      -7.486  11.237  68.971  1.00  0.00    -0.116 C  
BRANCH  20  21
HETATM   21  N   UNL     1      -6.481  11.656  67.888  1.00  0.00    -0.058 N  
HETATM   22  C   UNL     1      -5.130  11.847  68.589  1.00  0.00    -0.046 C  
HETATM   23  C   UNL     1      -6.322  10.546  66.855  1.00  0.00    -0.074 C  
BRANCH  21  24
HETATM   24  C   UNL     1      -6.923  12.989  67.229  1.00  0.00    -0.035 C  
BRANCH  24  25
HETATM   25  C   UNL     1      -6.807  14.208  68.104  1.00  0.00    -0.129 A  
HETATM   26  C   UNL     1      -7.916  14.650  68.842  1.00  0.00    -0.149 A  
HETATM   27  C   UNL     1      -7.866  15.859  69.533  1.00  0.00    -0.112 A  
HETATM   28  C   UNL     1      -6.705  16.626  69.511  1.00  0.00    -0.189 A  
HETATM   29  C   UNL     1      -5.578  16.171  68.831  1.00  0.00    -0.116 A  
HETATM   30  C   UNL     1      -5.622  14.959  68.141  1.00  0.00    -0.132 A  
ENDBRANCH  24  25
ENDBRANCH  21  24
ENDBRANCH  20  21
ENDBRANCH  19  20
ENDBRANCH  18  19
ENDBRANCH  17  18
ENDBRANCH  16  17
ENDBRANCH  15  16
ENDBRANCH  12  15
ENDBRANCH   6   9
ENDBRANCH   5   6
ENDBRANCH   2   5
TORSDOF 12
ENDMDL
MODEL      332
REMARK 921   NORMALIZED FREE ENERGY PREDICTED BY IDOCK:   -1.34 KCAL/MOL
REMARK 922        TOTAL FREE ENERGY PREDICTED BY IDOCK:   -3.55 KCAL/MOL
REMARK 923 INTER-LIGAND FREE ENERGY PREDICTED BY IDOCK:   -4.60 KCAL/MOL
REMARK 924 INTRA-LIGAND FREE ENERGY PREDICTED BY IDOCK:    1.05 KCAL/MOL
REMARK 927      BINDING AFFINITY PREDICTED BY RF-SCORE:    0.00 PKD
ROOT
HETATM    1  C   UNL     1      -8.861  14.608  65.989  1.00  0.00     0.292 C  
HETATM    2  C   UNL     1      -8.730  14.824  67.502  1.00  0.00    -0.195 C  
HETATM    3  C   UNL     1      -7.405  14.232  68.002  1.00  0.00    -0.145 C  
HETATM    4  C   UNL     1      -8.643  16.358  67.722  1.00  0.00    -0.172 C  
ENDROOT
BRANCH   2   5
HETATM    5  C   UNL     1      -9.969  14.309  68.306  1.00  0.00    -0.239 C  
BRANCH   5   6
HETATM    6  C   UNL     1     -11.064  13.329  67.736  1.00  0.00    -0.289 C  
HETATM    7  C   UNL     1     -10.700  12.763  66.345  1.00  0.00    -0.282 C  
HETATM    8  C   UNL     1     -12.440  14.012  67.591  1.00  0.00     0.136 C  
BRANCH   6   9
HETATM    9  C   UNL     1     -11.144  12.123  68.712  1.00  0.00    -0.297 A  
HETATM   10  C   UNL     1     -12.247  11.883  69.550  1.00  0.00    -0.197 A  
HETATM   11  C   UNL     1     -12.283  10.784  70.410  1.00  0.00    -0.437 A  
HETATM   12  C   UNL     1     -11.212   9.901  70.473  1.00  0.00    -0.330 A  
HETATM   13  C   UNL     1     -10.066  11.217  68.801  1.00  0.00    -0.204 A  
HETATM   14  C   UNL     1     -10.095  10.123  69.674  1.00  0.00    -0.265 A  
BRANCH  12  15
HETATM   15  O   UNL     1     -11.362   8.885  71.376  1.00  0.00    -0.263 OA 
BRANCH  15  16
HETATM   16  C   UNL     1     -12.599   8.187  71.333  1.00  0.00    -0.283 C  
BRANCH  16  17
HETATM   17  C   UNL     1     -12.303   6.720  71.013  1.00  0.00    -0.315 C  
BRANCH  17  18
HETATM   18  O   UNL     1     -10.931   6.326  71.140  1.00  0.00    -0.256 OA 
BRANCH  18  19
HETATM   19  C   UNL     1     -10.071   6.609  70.041  1.00  0.00    -0.177 C  
BRANCH  19  20
HETATM   20  C   UNL     1      -9.786   5.353  69.206  1.00  0.00    -0.164 C  
BRANCH  20  21
HETATM   21  N   UNL     1      -8.508   4.588  69.578  1.00  0.00    -0.076 N  
HETATM   22  C   UNL     1      -8.160   4.982  71.019  1.00  0.00    -0.101 C  
HETATM   23  C   UNL     1      -8.763   3.085  69.549  1.00  0.00    -0.076 C  
BRANCH  21  24
HETATM   24  C   UNL     1      -7.345   4.987  68.629  1.00  0.00    -0.062 C  
BRANCH  24  25
HETATM   25  C   UNL     1      -6.788   3.869  67.790  1.00  0.00    -0.047 A  
HETATM   26  C   UNL     1      -6.981   3.873  66.399  1.00  0.00    -0.059 A  
HETATM   27  C   UNL     1      -6.604   2.772  65.633  1.00  0.00    -0.035 A  
HETATM   28  C   UNL     1      -6.014   1.668  66.243  1.00  0.00    -0.019 A  
HETATM   29  C   UNL     1      -5.763   1.677  67.613  1.00  0.00    -0.019 A  
HETATM   30  C   UNL     1      -6.135   2.778  68.383  1.00  0.00    -0.025 A  
ENDBRANCH  24  25
ENDBRANCH  21  24
ENDBRANCH  20  21
ENDBRANCH  19  20
ENDBRANCH  18  19
ENDBRANCH  17  18
ENDBRANCH  16  17
ENDBRANCH  15  16
ENDBRANCH  12  15
ENDBRANCH   6   9
ENDBRANCH   5   6
ENDBRANCH   2   5
TORSDOF 12
ENDMDL
MODEL      333
REMARK 921   NORMALIZED FREE ENERGY PREDICTED BY IDOCK:   -1.09 KCAL/MOL
REMARK 922        TOTAL FREE ENERGY PREDICTED BY IDOCK:   -3.12 KCAL/MOL
REMARK 923 INTER-LIGAND FREE ENERGY PREDICTED BY IDOCK:   -3.37 KCAL/MOL
REMARK 924 INTRA-LIGAND FREE ENERGY PREDICTED BY IDOCK:    0.25 KCAL/MOL
REMARK 927      BINDING AFFINITY PREDICTED BY RF-SCORE:    0.00 PKD
ROOT
HETATM    1  C   UNL     1     -10.893  13.621  66.252  1.00  0.00    -0.282 C  
HETATM    2  C   UNL     1     -11.871  13.305  65.113  1.00  0.00    -0.377 C  
HETATM    3  C   UNL     1     -13.315  13.469  65.604  1.00  0.00     0.570 C  
HETATM    4  C   UNL     1     -11.644  14.390  64.025  1.00  0.00    -0.052 C  
ENDROOT
BRANCH   2   5
HETATM    5  C   UNL     1     -11.609  11.916  64.445  1.00  0.00    -0.369 C  
BRANCH   5   6
HETATM    6  C   UNL     1     -10.181  11.309  64.164  1.00  0.00    -0.391 C  
HETATM    7  C   UNL     1      -9.166  12.365  63.671  1.00  0.00     0.906 C  
HETATM    8  C   UNL     1     -10.219  10.197  63.096  1.00  0.00     0.705 C  
BRANCH   6   9
HETATM    9  C   UNL     1      -9.648  10.762  65.517  1.00  0.00    -0.269 A  
HETATM   10  C   UNL     1      -8.367  10.203  65.669  1.00  0.00    -0.153 A  
HETATM   11  C   UNL     1      -7.923   9.726  66.904  1.00  0.00    -0.105 A  
HETATM   12  C   UNL     1      -8.749   9.778  68.020  1.00  0.00    -0.118 A  
HETATM   13  C   UNL     1     -10.471  10.795  66.662  1.00  0.00    -0.302 A  
HETATM   14  C   UNL     1     -10.031  10.304  67.897  1.00  0.00    -0.191 A  
BRANCH  12  15
HETATM   15  O   UNL     1      -8.204   9.253  69.159  1.00  0.00    -0.105 OA 
BRANCH  15  16
HETATM   16  C   UNL     1      -6.811   9.465  69.341  1.00  0.00    -0.049 C  
BRANCH  16  17
HETATM   17  C   UNL     1      -6.626  10.814  70.042  1.00  0.00    -0.159 C  
BRANCH  17  18
HETATM   18  O   UNL     1      -7.047  11.960  69.293  1.00  0.00    -0.087 OA 
BRANCH  18  19
HETATM   19  C   UNL     1      -6.532  13.224  69.698  1.00  0.00    -0.053 C  
BRANCH  19  20
HETATM   20  C   UNL     1      -7.284  14.383  69.030  1.00  0.00    -0.129 C  
BRANCH  20  21
HETATM   21  N   UNL     1      -6.405  15.409  68.299  1.00  0.00    -0.110 N  
HETATM   22  C   UNL     1      -5.965  16.439  69.347  1.00  0.00    -0.165 C  
HETATM   23  C   UNL     1      -5.154  14.736  67.747  1.00  0.00     0.007 C  
BRANCH  21  24
HETATM   24  C   UNL     1      -7.216  16.113  67.179  1.00  0.00    -0.220 C  
BRANCH  24  25
HETATM   25  C   UNL     1      -8.201  17.148  67.652  1.00  0.00    -0.194 A  
HETATM   26  C   UNL     1      -7.833  18.501  67.690  1.00  0.00    -0.245 A  
HETATM   27  C   UNL     1      -8.679  19.446  68.267  1.00  0.00    -0.376 A  
HETATM   28  C   UNL     1      -9.906  19.052  68.792  1.00  0.00    -0.485 A  
HETATM   29  C   UNL     1     -10.310  17.722  68.707  1.00  0.00    -0.332 A  
HETATM   30  C   UNL     1      -9.468  16.774  68.126  1.00  0.00    -0.234 A  
ENDBRANCH  24  25
ENDBRANCH  21  24
ENDBRANCH  20  21
ENDBRANCH  19  20
ENDBRANCH  18  19
ENDBRANCH  17  18
ENDBRANCH  16  17
ENDBRANCH  15  16
ENDBRANCH  12  15
ENDBRANCH   6   9
ENDBRANCH   5   6
ENDBRANCH   2   5
TORSDOF 12
ENDMDL
MODEL      334
REMARK 921   NORMALIZED FREE ENERGY PREDICTED BY IDOCK:   -1.08 KCAL/MOL
REMARK 922        TOTAL FREE ENERGY PREDICTED BY IDOCK:   -3.11 KCAL/MOL
REMARK 923 INTER-LIGAND FREE ENERGY PREDICTED BY IDOCK:   -5.34 KCAL/MOL
REMARK 924 INTRA-LIGAND FREE ENERGY PREDICTED BY IDOCK:    2.23 KCAL/MOL
REMARK 927      BINDING AFFINITY PREDICTED BY RF-SCORE:    0.00 PKD
ROOT
HETATM    1  C   UNL     1     -12.355   8.804  72.322  1.00  0.00    -0.448 C  
HETATM    2  C   UNL     1     -12.955   9.748  71.271  1.00  0.00    -0.470 C  
HETATM    3  C   UNL     1     -14.401   9.335  70.964  1.00  0.00     0.237 C  
HETATM    4  C   UNL     1     -13.023  11.153  71.929  1.00  0.00    -0.477 C  
ENDROOT
BRANCH   2   5
HETATM    5  C   UNL     1     -12.073   9.879  69.987  1.00  0.00    -0.017 C  
BRANCH   5   6
HETATM    6  C   UNL     1     -10.542   9.510  69.908  1.00  0.00    -0.269 C  
HETATM    7  C   UNL     1      -9.912   9.259  71.296  1.00  0.00    -0.341 C  
HETATM    8  C   UNL     1      -9.708  10.619  69.234  1.00  0.00    -0.181 C  
BRANCH   6   9
HETATM    9  C   UNL     1     -10.439   8.179  69.113  1.00  0.00    -0.217 A  
HETATM   10  C   UNL     1     -10.032   8.114  67.769  1.00  0.00    -0.230 A  
HETATM   11  C   UNL     1      -9.947   6.897  67.091  1.00  0.00    -0.239 A  
HETATM   12  C   UNL     1     -10.280   5.709  67.729  1.00  0.00    -0.193 A  
HETATM   13  C   UNL     1     -10.780   6.959  69.736  1.00  0.00    -0.276 A  
HETATM   14  C   UNL     1     -10.709   5.740  69.052  1.00  0.00    -0.354 A  
BRANCH  12  15
HETATM   15  O   UNL     1     -10.181   4.592  66.945  1.00  0.00    -0.213 OA 
BRANCH  15  16
HETATM   16  C   UNL     1      -9.292   3.583  67.403  1.00  0.00    -0.206 C  
BRANCH  16  17
HETATM   17  C   UNL     1      -8.090   4.271  68.055  1.00  0.00    -0.090 C  
BRANCH  17  18
HETATM   18  O   UNL     1      -7.092   4.755  67.149  1.00  0.00    -0.069 OA 
BRANCH  18  19
HETATM   19  C   UNL     1      -6.945   4.060  65.915  1.00  0.00    -0.065 C  
BRANCH  19  20
HETATM   20  C   UNL     1      -6.069   4.840  64.925  1.00  0.00    -0.029 C  
BRANCH  20  21
HETATM   21  N   UNL     1      -6.275   6.362  64.917  1.00  0.00    -0.030 N  
HETATM   22  C   UNL     1      -5.525   6.915  66.135  1.00  0.00    -0.022 C  
HETATM   23  C   UNL     1      -5.656   6.974  63.665  1.00  0.00    -0.036 C  
BRANCH  21  24
HETATM   24  C   UNL     1      -7.785   6.702  65.031  1.00  0.00    -0.103 C  
BRANCH  24  25
HETATM   25  C   UNL     1      -8.192   8.028  64.445  1.00  0.00    -0.085 A  
HETATM   26  C   UNL     1      -8.096   8.242  63.061  1.00  0.00    -0.152 A  
HETATM   27  C   UNL     1      -8.323   9.508  62.527  1.00  0.00    -0.169 A  
HETATM   28  C   UNL     1      -8.667  10.566  63.364  1.00  0.00    -0.190 A  
HETATM   29  C   UNL     1      -8.824  10.353  64.732  1.00  0.00    -0.211 A  
HETATM   30  C   UNL     1      -8.602   9.086  65.270  1.00  0.00    -0.199 A  
ENDBRANCH  24  25
ENDBRANCH  21  24
ENDBRANCH  20  21
ENDBRANCH  19  20
ENDBRANCH  18  19
ENDBRANCH  17  18
ENDBRANCH  16  17
ENDBRANCH  15  16
ENDBRANCH  12  15
ENDBRANCH   6   9
ENDBRANCH   5   6
ENDBRANCH   2   5
TORSDOF 12
ENDMDL
MODEL      335
REMARK 921   NORMALIZED FREE ENERGY PREDICTED BY IDOCK:   -0.16 KCAL/MOL
REMARK 922        TOTAL FREE ENERGY PREDICTED BY IDOCK:   -1.55 KCAL/MOL
REMARK 923 INTER-LIGAND FREE ENERGY PREDICTED BY IDOCK:   -1.77 KCAL/MOL
REMARK 924 INTRA-LIGAND FREE ENERGY PREDICTED BY IDOCK:    0.23 KCAL/MOL
REMARK 927      BINDING AFFINITY PREDICTED BY RF-SCORE:    0.00 PKD
ROOT
HETATM    1  C   UNL     1      -8.562  14.526  65.612  1.00  0.00     1.768 C  
HETATM    2  C   UNL     1      -8.946  14.960  67.032  1.00  0.00    -0.256 C  
HETATM    3  C   UNL     1      -7.796  14.652  68.001  1.00  0.00    -0.136 C  
HETATM    4  C   UNL     1      -9.096  16.505  66.996  1.00  0.00    -0.228 C  
ENDROOT
BRANCH   2   5
HETATM    5  C   UNL     1     -10.315  14.372  67.506  1.00  0.00    -0.251 C  
BRANCH   5   6
HETATM    6  C   UNL     1     -11.000  13.089  66.897  1.00  0.00    -0.289 C  
HETATM    7  C   UNL     1     -10.235  12.520  65.681  1.00  0.00    -0.287 C  
HETATM    8  C   UNL     1     -12.443  13.364  66.426  1.00  0.00    -0.297 C  
BRANCH   6   9
HETATM    9  C   UNL     1     -10.976  11.996  68.001  1.00  0.00    -0.267 A  
HETATM   10  C   UNL     1     -12.030  11.089  68.208  1.00  0.00    -0.113 A  
HETATM   11  C   UNL     1     -11.968  10.117  69.209  1.00  0.00     0.097 A  
HETATM   12  C   UNL     1     -10.861  10.032  70.044  1.00  0.00    -0.302 A  
HETATM   13  C   UNL     1      -9.867  11.895  68.868  1.00  0.00     0.008 A  
HETATM   14  C   UNL     1      -9.811  10.930  69.880  1.00  0.00     0.484 A  
BRANCH  12  15
HETATM   15  O   UNL     1     -10.940   9.056  70.999  1.00  0.00    -0.242 OA 
BRANCH  15  16
HETATM   16  C   UNL     1     -11.481   7.812  70.579  1.00  0.00    -0.205 C  
BRANCH  16  17
HETATM   17  C   UNL     1     -10.380   6.755  70.692  1.00  0.00    -0.201 C  
BRANCH  17  18
HETATM   18  O   UNL     1      -9.098   7.145  70.186  1.00  0.00    -0.151 OA 
BRANCH  18  19
HETATM   19  C   UNL     1      -8.921   7.111  68.773  1.00  0.00    -0.128 C  
BRANCH  19  20
HETATM   20  C   UNL     1      -8.306   5.783  68.310  1.00  0.00    -0.107 C  
BRANCH  20  21
HETATM   21  N   UNL     1      -6.781   5.675  68.452  1.00  0.00    -0.055 N  
HETATM   22  C   UNL     1      -6.366   6.679  69.535  1.00  0.00    -0.042 C  
HETATM   23  C   UNL     1      -6.390   4.281  68.928  1.00  0.00    -0.032 C  
BRANCH  21  24
HETATM   24  C   UNL     1      -6.088   6.035  67.110  1.00  0.00    -0.022 C  
BRANCH  24  25
HETATM   25  C   UNL     1      -6.912   5.785  65.875  1.00  0.00    -0.065 A  
HETATM   26  C   UNL     1      -7.269   4.475  65.522  1.00  0.00    -0.068 A  
HETATM   27  C   UNL     1      -7.898   4.219  64.306  1.00  0.00    -0.085 A  
HETATM   28  C   UNL     1      -8.193   5.268  63.440  1.00  0.00    -0.117 A  
HETATM   29  C   UNL     1      -7.898   6.580  63.804  1.00  0.00    -0.107 A  
HETATM   30  C   UNL     1      -7.272   6.841  65.023  1.00  0.00    -0.074 A  
ENDBRANCH  24  25
ENDBRANCH  21  24
ENDBRANCH  20  21
ENDBRANCH  19  20
ENDBRANCH  18  19
ENDBRANCH  17  18
ENDBRANCH  16  17
ENDBRANCH  15  16
ENDBRANCH  12  15
ENDBRANCH   6   9
ENDBRANCH   5   6
ENDBRANCH   2   5
TORSDOF 12
ENDMDL
MODEL      336
REMARK 921   NORMALIZED FREE ENERGY PREDICTED BY IDOCK:    0.33 KCAL/MOL
REMARK 922        TOTAL FREE ENERGY PREDICTED BY IDOCK:   -0.71 KCAL/MOL
REMARK 923 INTER-LIGAND FREE ENERGY PREDICTED BY IDOCK:   -1.51 KCAL/MOL
REMARK 924 INTRA-LIGAND FREE ENERGY PREDICTED BY IDOCK:    0.80 KCAL/MOL
REMARK 927      BINDING AFFINITY PREDICTED BY RF-SCORE:    0.00 PKD
ROOT
HETATM    1  C   UNL     1      -7.358   5.854  69.107  1.00  0.00    -0.083 C  
HETATM    2  C   UNL     1      -6.875   7.259  68.726  1.00  0.00    -0.073 C  
HETATM    3  C   UNL     1      -5.397   7.210  68.317  1.00  0.00    -0.021 C  
HETATM    4  C   UNL     1      -7.674   7.672  67.460  1.00  0.00    -0.118 C  
ENDROOT
BRANCH   2   5
HETATM    5  C   UNL     1      -7.166   8.329  69.828  1.00  0.00    -0.060 C  
BRANCH   5   6
HETATM    6  C   UNL     1      -8.584   8.955  70.120  1.00  0.00    -0.161 C  
HETATM    7  C   UNL     1      -8.779   9.334  71.605  1.00  0.00     0.274 C  
HETATM    8  C   UNL     1      -9.733   7.995  69.751  1.00  0.00    -0.176 C  
BRANCH   6   9
HETATM    9  C   UNL     1      -8.675  10.270  69.298  1.00  0.00    -0.182 A  
HETATM   10  C   UNL     1      -7.555  10.897  68.723  1.00  0.00    -0.121 A  
HETATM   11  C   UNL     1      -7.680  12.076  67.987  1.00  0.00    -0.132 A  
HETATM   12  C   UNL     1      -8.922  12.675  67.816  1.00  0.00    -0.189 A  
HETATM   13  C   UNL     1      -9.923  10.903  69.118  1.00  0.00    -0.181 A  
HETATM   14  C   UNL     1     -10.046  12.093  68.392  1.00  0.00    -0.210 A  
BRANCH  12  15
HETATM   15  O   UNL     1      -8.900  13.840  67.099  1.00  0.00    -0.215 OA 
BRANCH  15  16
HETATM   16  C   UNL     1      -9.151  13.721  65.705  1.00  0.00     0.503 C  
BRANCH  16  17
HETATM   17  C   UNL     1     -10.045  14.890  65.285  1.00  0.00    -0.345 C  
BRANCH  17  18
HETATM   18  O   UNL     1      -9.939  16.068  66.093  1.00  0.00    -0.282 OA 
BRANCH  18  19
HETATM   19  C   UNL     1      -9.780  17.309  65.412  1.00  0.00     0.626 C  
BRANCH  19  20
HETATM   20  C   UNL     1      -8.362  17.872  65.584  1.00  0.00     0.547 C  
BRANCH  20  21
HETATM   21  N   UNL     1      -8.106  18.633  66.893  1.00  0.00    -0.242 N  
HETATM   22  C   UNL     1      -7.186  19.810  66.547  1.00  0.00    -0.241 C  
HETATM   23  C   UNL     1      -9.411  19.200  67.440  1.00  0.00    -0.304 C  
BRANCH  21  24
HETATM   24  C   UNL     1      -7.409  17.708  67.927  1.00  0.00    -0.202 C  
BRANCH  24  25
HETATM   25  C   UNL     1      -8.331  16.830  68.729  1.00  0.00    -0.248 A  
HETATM   26  C   UNL     1      -9.681  17.183  68.880  1.00  0.00    -0.256 A  
HETATM   27  C   UNL     1     -10.506  16.464  69.742  1.00  0.00    -0.246 A  
HETATM   28  C   UNL     1      -9.997  15.376  70.445  1.00  0.00     0.184 A  
HETATM   29  C   UNL     1      -8.675  14.978  70.259  1.00  0.00     0.866 A  
HETATM   30  C   UNL     1      -7.848  15.693  69.394  1.00  0.00    -0.222 A  
ENDBRANCH  24  25
ENDBRANCH  21  24
ENDBRANCH  20  21
ENDBRANCH  19  20
ENDBRANCH  18  19
ENDBRANCH  17  18
ENDBRANCH  16  17
ENDBRANCH  15  16
ENDBRANCH  12  15
ENDBRANCH   6   9
ENDBRANCH   5   6
ENDBRANCH   2   5
TORSDOF 12
ENDMDL
MODEL      337
REMARK 921   NORMALIZED FREE ENERGY PREDICTED BY IDOCK:    0.48 KCAL/MOL
REMARK 922        TOTAL FREE ENERGY PREDICTED BY IDOCK:   -0.44 KCAL/MOL
REMARK 923 INTER-LIGAND FREE ENERGY PREDICTED BY IDOCK:   -5.36 KCAL/MOL
REMARK 924 INTRA-LIGAND FREE ENERGY PREDICTED BY IDOCK:    4.92 KCAL/MOL
REMARK 927      BINDING AFFINITY PREDICTED BY RF-SCORE:    0.00 PKD
ROOT
HETATM    1  C   UNL     1     -11.442  19.243  67.236  1.00  0.00     0.550 C  
HETATM    2  C   UNL     1     -10.493  18.106  67.637  1.00  0.00    -0.432 C  
HETATM    3  C   UNL     1      -9.853  17.493  66.384  1.00  0.00    -0.316 C  
HETATM    4  C   UNL     1      -9.344  18.759  68.451  1.00  0.00    -0.382 C  
ENDROOT
BRANCH   2   5
HETATM    5  C   UNL     1     -11.168  17.039  68.561  1.00  0.00    -0.037 C  
BRANCH   5   6
HETATM    6  C   UNL     1     -10.549  15.632  68.907  1.00  0.00    -0.228 C  
HETATM    7  C   UNL     1     -11.046  15.074  70.260  1.00  0.00    -0.261 C  
HETATM    8  C   UNL     1      -9.009  15.673  68.982  1.00  0.00    -0.239 C  
BRANCH   6   9
HETATM    9  C   UNL     1     -11.024  14.645  67.805  1.00  0.00    -0.291 A  
HETATM   10  C   UNL     1     -10.904  13.249  67.919  1.00  0.00    -0.260 A  
HETATM   11  C   UNL     1     -11.348  12.395  66.908  1.00  0.00    -0.392 A  
HETATM   12  C   UNL     1     -11.911  12.908  65.746  1.00  0.00    -0.419 A  
HETATM   13  C   UNL     1     -11.590  15.141  66.612  1.00  0.00    -0.122 A  
HETATM   14  C   UNL     1     -12.022  14.286  65.592  1.00  0.00    -0.390 A  
BRANCH  12  15
HETATM   15  O   UNL     1     -12.277  11.966  64.825  1.00  0.00    -0.242 OA 
BRANCH  15  16
HETATM   16  C   UNL     1     -11.216  11.273  64.183  1.00  0.00    -0.146 C  
BRANCH  16  17
HETATM   17  C   UNL     1     -10.345  10.634  65.267  1.00  0.00    -0.251 C  
BRANCH  17  18
HETATM   18  O   UNL     1      -9.075  11.260  65.485  1.00  0.00    -0.209 OA 
BRANCH  18  19
HETATM   19  C   UNL     1      -8.143  10.567  66.308  1.00  0.00    -0.142 C  
BRANCH  19  20
HETATM   20  C   UNL     1      -8.843   9.575  67.247  1.00  0.00    -0.128 C  
BRANCH  20  21
HETATM   21  N   UNL     1      -8.186   8.191  67.356  1.00  0.00    -0.121 N  
HETATM   22  C   UNL     1      -8.065   7.877  68.853  1.00  0.00    -0.125 C  
HETATM   23  C   UNL     1      -9.078   7.129  66.723  1.00  0.00    -0.147 C  
BRANCH  21  24
HETATM   24  C   UNL     1      -6.776   8.211  66.709  1.00  0.00    -0.064 C  
BRANCH  24  25
HETATM   25  C   UNL     1      -6.758   8.361  65.211  1.00  0.00    -0.056 A  
HETATM   26  C   UNL     1      -7.942   8.669  64.523  1.00  0.00    -0.144 A  
HETATM   27  C   UNL     1      -7.970   8.661  63.130  1.00  0.00    -0.162 A  
HETATM   28  C   UNL     1      -6.814   8.365  62.412  1.00  0.00    -0.094 A  
HETATM   29  C   UNL     1      -5.619   8.116  63.082  1.00  0.00    -0.067 A  
HETATM   30  C   UNL     1      -5.585   8.128  64.477  1.00  0.00    -0.044 A  
ENDBRANCH  24  25
ENDBRANCH  21  24
ENDBRANCH  20  21
ENDBRANCH  19  20
ENDBRANCH  18  19
ENDBRANCH  17  18
ENDBRANCH  16  17
ENDBRANCH  15  16
ENDBRANCH  12  15
ENDBRANCH   6   9
ENDBRANCH   5   6
ENDBRANCH   2   5
TORSDOF 12
ENDMDL
MODEL      338
REMARK 921   NORMALIZED FREE ENERGY PREDICTED BY IDOCK:    8.65 KCAL/MOL
REMARK 922        TOTAL FREE ENERGY PREDICTED BY IDOCK:   13.44 KCAL/MOL
REMARK 923 INTER-LIGAND FREE ENERGY PREDICTED BY IDOCK:   -0.11 KCAL/MOL
REMARK 924 INTRA-LIGAND FREE ENERGY PREDICTED BY IDOCK:   13.55 KCAL/MOL
REMARK 927      BINDING AFFINITY PREDICTED BY RF-SCORE:    0.00 PKD
ROOT
HETATM    1  C   UNL     1     -10.961  13.703  69.666  1.00  0.00     0.016 C  
HETATM    2  C   UNL     1     -10.108  14.421  68.612  1.00  0.00    -0.242 C  
HETATM    3  C   UNL     1      -8.792  14.897  69.241  1.00  0.00    -0.095 C  
HETATM    4  C   UNL     1      -9.733  13.354  67.548  1.00  0.00    -0.224 C  
ENDROOT
BRANCH   2   5
HETATM    5  C   UNL     1     -10.878  15.564  67.872  1.00  0.00    -0.307 C  
BRANCH   5   6
HETATM    6  C   UNL     1     -11.571  15.414  66.464  1.00  0.00     0.083 C  
HETATM    7  C   UNL     1     -11.402  16.667  65.576  1.00  0.00     0.430 C  
HETATM    8  C   UNL     1     -13.087  15.155  66.584  1.00  0.00     2.490 C  
BRANCH   6   9
HETATM    9  C   UNL     1     -10.864  14.239  65.735  1.00  0.00    -0.303 A  
HETATM   10  C   UNL     1      -9.681  13.642  66.205  1.00  0.00    -0.295 A  
HETATM   11  C   UNL     1      -9.079  12.584  65.523  1.00  0.00     0.395 A  
HETATM   12  C   UNL     1      -9.629  12.099  64.343  1.00  0.00     0.078 A  
HETATM   13  C   UNL     1     -11.397  13.736  64.530  1.00  0.00    -0.393 A  
HETATM   14  C   UNL     1     -10.786  12.684  63.838  1.00  0.00    -0.465 A  
BRANCH  12  15
HETATM   15  O   UNL     1      -8.925  11.081  63.760  1.00  0.00    -0.156 OA 
BRANCH  15  16
HETATM   16  C   UNL     1      -8.801   9.890  64.525  1.00  0.00    -0.209 C  
BRANCH  16  17
HETATM   17  C   UNL     1      -7.310   9.625  64.750  1.00  0.00    -0.119 C  
BRANCH  17  18
HETATM   18  O   UNL     1      -6.972   8.281  65.113  1.00  0.00    -0.071 OA 
BRANCH  18  19
HETATM   19  C   UNL     1      -7.749   7.237  64.534  1.00  0.00    -0.113 C  
BRANCH  19  20
HETATM   20  C   UNL     1      -8.925   6.839  65.436  1.00  0.00     0.197 C  
BRANCH  20  21
HETATM   21  N   UNL     1      -8.917   7.452  66.844  1.00  0.00    -0.130 N  
HETATM   22  C   UNL     1      -9.275   8.935  66.682  1.00  0.00    -0.170 C  
HETATM   23  C   UNL     1      -9.987   6.801  67.712  1.00  0.00    -0.138 C  
BRANCH  21  24
HETATM   24  C   UNL     1      -7.507   7.319  67.481  1.00  0.00    -0.101 C  
BRANCH  24  25
HETATM   25  C   UNL     1      -7.090   5.916  67.831  1.00  0.00    -0.071 A  
HETATM   26  C   UNL     1      -8.053   4.975  68.227  1.00  0.00    -0.086 A  
HETATM   27  C   UNL     1      -7.663   3.723  68.698  1.00  0.00    -0.056 A  
HETATM   28  C   UNL     1      -6.312   3.392  68.757  1.00  0.00    -0.029 A  
HETATM   29  C   UNL     1      -5.349   4.294  68.311  1.00  0.00    -0.012 A  
HETATM   30  C   UNL     1      -5.736   5.547  67.835  1.00  0.00    -0.013 A  
ENDBRANCH  24  25
ENDBRANCH  21  24
ENDBRANCH  20  21
ENDBRANCH  19  20
ENDBRANCH  18  19
ENDBRANCH  17  18
ENDBRANCH  16  17
ENDBRANCH  15  16
ENDBRANCH  12  15
ENDBRANCH   6   9
ENDBRANCH   5   6
ENDBRANCH   2   5
TORSDOF 12
ENDMDL
