MODEL        1
REMARK 921   NORMALIZED FREE ENERGY PREDICTED BY IDOCK:   -6.69 KCAL/MOL
REMARK 922        TOTAL FREE ENERGY PREDICTED BY IDOCK:   -8.87 KCAL/MOL
REMARK 923 INTER-LIGAND FREE ENERGY PREDICTED BY IDOCK:   -8.25 KCAL/MOL
REMARK 924 INTRA-LIGAND FREE ENERGY PREDICTED BY IDOCK:   -0.62 KCAL/MOL
REMARK 927      BINDING AFFINITY PREDICTED BY RF-SCORE:    0.00 PKD
ROOT
HETATM    1  O   UNL     1     -11.430  16.487  63.811  1.00  0.00    -1.615 OA 
HETATM    2  C   UNL     1     -11.425  15.456  64.703  1.00  0.00    -0.337 A  
HETATM    3  H   UNL     1     -12.075  16.536  63.116  1.00  0.00     0.000 HD 
HETATM    4  C   UNL     1     -10.481  15.384  65.720  1.00  0.00    -0.371 A  
HETATM    5  C   UNL     1     -10.505  14.299  66.599  1.00  0.00    -0.278 A  
HETATM    6  C   UNL     1     -11.472  13.289  66.462  1.00  0.00    -0.372 A  
HETATM    7  C   UNL     1     -12.397  14.471  64.558  1.00  0.00    -0.434 A  
HETATM    8  C   UNL     1     -12.424  13.384  65.438  1.00  0.00    -0.543 A  
ENDROOT
BRANCH   6   9
HETATM    9  C   UNL     1     -11.422  12.145  67.415  1.00  0.00    -0.345 C  
HETATM   10  O   UNL     1     -11.765  11.014  67.108  1.00  0.00    -0.456 OA 
BRANCH   9  11
HETATM   11  O   UNL     1     -10.992  12.546  68.634  1.00  0.00    -0.235 OA 
BRANCH  11  12
HETATM   12  C   UNL     1     -11.744  12.062  69.757  1.00  0.00    -0.319 C  
BRANCH  12  13
HETATM   13  C   UNL     1     -12.376  13.220  70.486  1.00  0.00    -0.389 A  
HETATM   14  C   UNL     1     -12.158  14.537  70.055  1.00  0.00    -0.395 A  
HETATM   15  C   UNL     1     -12.756  15.609  70.721  1.00  0.00    -0.483 A  
HETATM   16  C   UNL     1     -13.576  15.376  71.822  1.00  0.00    -0.596 A  
HETATM   17  C   UNL     1     -13.800  14.072  72.260  1.00  0.00    -0.655 A  
HETATM   18  C   UNL     1     -13.202  12.999  71.597  1.00  0.00    -0.426 A  
ENDBRANCH  12  13
ENDBRANCH  11  12
ENDBRANCH   9  11
ENDBRANCH   6   9
TORSDOF 4
ENDMDL
MODEL        2
REMARK 921   NORMALIZED FREE ENERGY PREDICTED BY IDOCK:   -6.60 KCAL/MOL
REMARK 922        TOTAL FREE ENERGY PREDICTED BY IDOCK:   -8.77 KCAL/MOL
REMARK 923 INTER-LIGAND FREE ENERGY PREDICTED BY IDOCK:   -8.22 KCAL/MOL
REMARK 924 INTRA-LIGAND FREE ENERGY PREDICTED BY IDOCK:   -0.55 KCAL/MOL
REMARK 927      BINDING AFFINITY PREDICTED BY RF-SCORE:    0.00 PKD
ROOT
HETATM    1  O   UNL     1     -11.676  16.352  63.647  1.00  0.00    -1.520 OA 
HETATM    2  C   UNL     1     -11.627  15.345  64.565  1.00  0.00    -0.296 A  
HETATM    3  H   UNL     1     -11.081  17.091  63.691  1.00  0.00     0.000 HD 
HETATM    4  C   UNL     1     -12.499  14.265  64.500  1.00  0.00    -0.357 A  
HETATM    5  C   UNL     1     -12.422  13.266  65.473  1.00  0.00    -0.531 A  
HETATM    6  C   UNL     1     -11.475  13.346  66.508  1.00  0.00    -0.372 A  
HETATM    7  C   UNL     1     -10.675  15.437  65.575  1.00  0.00    -0.397 A  
HETATM    8  C   UNL     1     -10.596  14.437  66.551  1.00  0.00    -0.296 A  
ENDROOT
BRANCH   6   9
HETATM    9  C   UNL     1     -11.467  12.262  67.529  1.00  0.00    -0.347 C  
HETATM   10  O   UNL     1     -11.829  11.122  67.284  1.00  0.00    -0.525 OA 
BRANCH   9  11
HETATM   11  O   UNL     1     -11.049  12.728  68.730  1.00  0.00    -0.239 OA 
BRANCH  11  12
HETATM   12  C   UNL     1     -11.690  12.158  69.881  1.00  0.00    -0.287 C  
BRANCH  12  13
HETATM   13  C   UNL     1     -12.412  13.237  70.649  1.00  0.00    -0.373 A  
HETATM   14  C   UNL     1     -13.241  12.907  71.732  1.00  0.00    -0.479 A  
HETATM   15  C   UNL     1     -13.897  13.907  72.452  1.00  0.00    -0.668 A  
HETATM   16  C   UNL     1     -13.732  15.245  72.099  1.00  0.00    -0.598 A  
HETATM   17  C   UNL     1     -12.910  15.585  71.025  1.00  0.00    -0.543 A  
HETATM   18  C   UNL     1     -12.255  14.586  70.303  1.00  0.00    -0.391 A  
ENDBRANCH  12  13
ENDBRANCH  11  12
ENDBRANCH   9  11
ENDBRANCH   6   9
TORSDOF 4
ENDMDL
MODEL        3
REMARK 921   NORMALIZED FREE ENERGY PREDICTED BY IDOCK:   -6.34 KCAL/MOL
REMARK 922        TOTAL FREE ENERGY PREDICTED BY IDOCK:   -8.44 KCAL/MOL
REMARK 923 INTER-LIGAND FREE ENERGY PREDICTED BY IDOCK:   -7.74 KCAL/MOL
REMARK 924 INTRA-LIGAND FREE ENERGY PREDICTED BY IDOCK:   -0.70 KCAL/MOL
REMARK 927      BINDING AFFINITY PREDICTED BY RF-SCORE:    0.00 PKD
ROOT
HETATM    1  O   UNL     1     -12.279   7.972  73.007  1.00  0.00    -0.659 OA 
HETATM    2  C   UNL     1     -12.148   8.941  72.058  1.00  0.00    -0.371 A  
HETATM    3  H   UNL     1     -11.715   7.208  73.015  1.00  0.00     0.000 HD 
HETATM    4  C   UNL     1     -12.975  10.059  72.047  1.00  0.00    -0.514 A  
HETATM    5  C   UNL     1     -12.814  11.017  71.043  1.00  0.00    -0.442 A  
HETATM    6  C   UNL     1     -11.830  10.858  70.054  1.00  0.00    -0.428 A  
HETATM    7  C   UNL     1     -11.161   8.773  71.093  1.00  0.00    -0.340 A  
HETATM    8  C   UNL     1     -10.999   9.731  70.087  1.00  0.00    -0.339 A  
ENDROOT
BRANCH   6   9
HETATM    9  C   UNL     1     -11.734  11.903  68.996  1.00  0.00    -0.331 C  
HETATM   10  O   UNL     1     -12.060  11.700  67.837  1.00  0.00    -0.613 OA 
BRANCH   9  11
HETATM   11  O   UNL     1     -11.215  13.051  69.491  1.00  0.00    -0.187 OA 
BRANCH  11  12
HETATM   12  C   UNL     1     -12.011  14.231  69.304  1.00  0.00    -0.335 C  
BRANCH  12  13
HETATM   13  C   UNL     1     -12.446  14.771  70.643  1.00  0.00    -0.407 A  
HETATM   14  C   UNL     1     -13.768  14.607  71.082  1.00  0.00    -0.374 A  
HETATM   15  C   UNL     1     -14.167  15.094  72.329  1.00  0.00    -0.613 A  
HETATM   16  C   UNL     1     -13.249  15.747  73.149  1.00  0.00    -0.694 A  
HETATM   17  C   UNL     1     -11.932  15.915  72.724  1.00  0.00    -0.616 A  
HETATM   18  C   UNL     1     -11.532  15.431  71.478  1.00  0.00    -0.478 A  
ENDBRANCH  12  13
ENDBRANCH  11  12
ENDBRANCH   9  11
ENDBRANCH   6   9
TORSDOF 4
ENDMDL
MODEL        4
REMARK 921   NORMALIZED FREE ENERGY PREDICTED BY IDOCK:   -6.26 KCAL/MOL
REMARK 922        TOTAL FREE ENERGY PREDICTED BY IDOCK:   -8.35 KCAL/MOL
REMARK 923 INTER-LIGAND FREE ENERGY PREDICTED BY IDOCK:   -7.71 KCAL/MOL
REMARK 924 INTRA-LIGAND FREE ENERGY PREDICTED BY IDOCK:   -0.64 KCAL/MOL
REMARK 927      BINDING AFFINITY PREDICTED BY RF-SCORE:    0.00 PKD
ROOT
HETATM    1  O   UNL     1     -13.289  16.268  74.111  1.00  0.00    -0.929 OA 
HETATM    2  C   UNL     1     -12.928  15.627  72.964  1.00  0.00    -0.510 A  
HETATM    3  H   UNL     1     -13.968  15.924  74.678  1.00  0.00     0.000 HD 
HETATM    4  C   UNL     1     -11.933  16.132  72.136  1.00  0.00    -0.623 A  
HETATM    5  C   UNL     1     -11.609  15.448  70.961  1.00  0.00    -0.410 A  
HETATM    6  C   UNL     1     -12.279  14.262  70.617  1.00  0.00    -0.427 A  
HETATM    7  C   UNL     1     -13.594  14.448  72.645  1.00  0.00    -0.589 A  
HETATM    8  C   UNL     1     -13.271  13.762  71.470  1.00  0.00    -0.417 A  
ENDROOT
BRANCH   6   9
HETATM    9  C   UNL     1     -11.906  13.601  69.335  1.00  0.00    -0.339 C  
HETATM   10  O   UNL     1     -12.212  14.055  68.244  1.00  0.00    -0.328 OA 
BRANCH   9  11
HETATM   11  O   UNL     1     -11.234  12.447  69.561  1.00  0.00    -0.201 OA 
BRANCH  11  12
HETATM   12  C   UNL     1     -11.910  11.241  69.173  1.00  0.00    -0.355 C  
BRANCH  12  13
HETATM   13  C   UNL     1     -11.953  10.283  70.336  1.00  0.00    -0.391 A  
HETATM   14  C   UNL     1     -10.787   9.632  70.766  1.00  0.00    -0.400 A  
HETATM   15  C   UNL     1     -10.824   8.757  71.853  1.00  0.00    -0.431 A  
HETATM   16  C   UNL     1     -12.024   8.524  72.522  1.00  0.00    -0.401 A  
HETATM   17  C   UNL     1     -13.189   9.166  72.104  1.00  0.00    -0.524 A  
HETATM   18  C   UNL     1     -13.155  10.040  71.016  1.00  0.00    -0.435 A  
ENDBRANCH  12  13
ENDBRANCH  11  12
ENDBRANCH   9  11
ENDBRANCH   6   9
TORSDOF 4
ENDMDL
MODEL        5
REMARK 921   NORMALIZED FREE ENERGY PREDICTED BY IDOCK:   -6.26 KCAL/MOL
REMARK 922        TOTAL FREE ENERGY PREDICTED BY IDOCK:   -8.34 KCAL/MOL
REMARK 923 INTER-LIGAND FREE ENERGY PREDICTED BY IDOCK:   -7.81 KCAL/MOL
REMARK 924 INTRA-LIGAND FREE ENERGY PREDICTED BY IDOCK:   -0.53 KCAL/MOL
REMARK 927      BINDING AFFINITY PREDICTED BY RF-SCORE:    0.00 PKD
ROOT
HETATM    1  O   UNL     1     -13.264  15.851  74.427  1.00  0.00    -0.771 OA 
HETATM    2  C   UNL     1     -12.945  15.521  73.144  1.00  0.00    -0.521 A  
HETATM    3  H   UNL     1     -12.873  16.603  74.856  1.00  0.00     0.000 HD 
HETATM    4  C   UNL     1     -13.517  14.421  72.517  1.00  0.00    -0.593 A  
HETATM    5  C   UNL     1     -13.145  14.112  71.206  1.00  0.00    -0.420 A  
HETATM    6  C   UNL     1     -12.205  14.902  70.524  1.00  0.00    -0.388 A  
HETATM    7  C   UNL     1     -12.020  16.322  72.481  1.00  0.00    -0.648 A  
HETATM    8  C   UNL     1     -11.647  16.014  71.168  1.00  0.00    -0.492 A  
ENDROOT
BRANCH   6   9
HETATM    9  C   UNL     1     -11.831  14.498  69.140  1.00  0.00    -0.319 C  
HETATM   10  O   UNL     1     -11.549  13.349  68.841  1.00  0.00    -0.269 OA 
BRANCH   9  11
HETATM   11  O   UNL     1     -11.818  15.566  68.309  1.00  0.00    -0.330 OA 
BRANCH  11  12
HETATM   12  C   UNL     1     -10.564  15.849  67.669  1.00  0.00    -0.307 C  
BRANCH  12  13
HETATM   13  C   UNL     1     -10.375  17.340  67.553  1.00  0.00    -0.346 A  
HETATM   14  C   UNL     1     -10.440  17.970  66.301  1.00  0.00    -0.340 A  
HETATM   15  C   UNL     1     -10.280  19.354  66.195  1.00  0.00    -0.570 A  
HETATM   16  C   UNL     1     -10.055  20.120  67.336  1.00  0.00    -0.556 A  
HETATM   17  C   UNL     1      -9.989  19.505  68.586  1.00  0.00    -0.538 A  
HETATM   18  C   UNL     1     -10.147  18.122  68.694  1.00  0.00    -0.406 A  
ENDBRANCH  12  13
ENDBRANCH  11  12
ENDBRANCH   9  11
ENDBRANCH   6   9
TORSDOF 4
ENDMDL
MODEL        6
REMARK 921   NORMALIZED FREE ENERGY PREDICTED BY IDOCK:   -6.25 KCAL/MOL
REMARK 922        TOTAL FREE ENERGY PREDICTED BY IDOCK:   -8.33 KCAL/MOL
REMARK 923 INTER-LIGAND FREE ENERGY PREDICTED BY IDOCK:   -7.61 KCAL/MOL
REMARK 924 INTRA-LIGAND FREE ENERGY PREDICTED BY IDOCK:   -0.72 KCAL/MOL
REMARK 927      BINDING AFFINITY PREDICTED BY RF-SCORE:    0.00 PKD
ROOT
HETATM    1  O   UNL     1     -12.093   7.985  73.202  1.00  0.00    -0.656 OA 
HETATM    2  C   UNL     1     -12.020   8.906  72.200  1.00  0.00    -0.349 A  
HETATM    3  H   UNL     1     -11.367   7.404  73.393  1.00  0.00     0.000 HD 
HETATM    4  C   UNL     1     -13.084   9.756  71.921  1.00  0.00    -0.544 A  
HETATM    5  C   UNL     1     -12.970  10.672  70.872  1.00  0.00    -0.429 A  
HETATM    6  C   UNL     1     -11.795  10.738  70.105  1.00  0.00    -0.427 A  
HETATM    7  C   UNL     1     -10.845   8.965  71.459  1.00  0.00    -0.396 A  
HETATM    8  C   UNL     1     -10.728   9.881  70.408  1.00  0.00    -0.379 A  
ENDROOT
BRANCH   6   9
HETATM    9  C   UNL     1     -11.751  11.717  68.983  1.00  0.00    -0.324 C  
HETATM   10  O   UNL     1     -12.100  11.435  67.847  1.00  0.00    -0.646 OA 
BRANCH   9  11
HETATM   11  O   UNL     1     -11.251  12.905  69.394  1.00  0.00    -0.215 OA 
BRANCH  11  12
HETATM   12  C   UNL     1     -12.136  14.031  69.282  1.00  0.00    -0.338 C  
BRANCH  12  13
HETATM   13  C   UNL     1     -12.504  14.528  70.657  1.00  0.00    -0.409 A  
HETATM   14  C   UNL     1     -11.578  15.250  71.425  1.00  0.00    -0.446 A  
HETATM   15  C   UNL     1     -11.924  15.724  72.692  1.00  0.00    -0.597 A  
HETATM   16  C   UNL     1     -13.197  15.483  73.204  1.00  0.00    -0.657 A  
HETATM   17  C   UNL     1     -14.126  14.767  72.450  1.00  0.00    -0.548 A  
HETATM   18  C   UNL     1     -13.782  14.291  71.184  1.00  0.00    -0.255 A  
ENDBRANCH  12  13
ENDBRANCH  11  12
ENDBRANCH   9  11
ENDBRANCH   6   9
TORSDOF 4
ENDMDL
MODEL        7
REMARK 921   NORMALIZED FREE ENERGY PREDICTED BY IDOCK:   -6.11 KCAL/MOL
REMARK 922        TOTAL FREE ENERGY PREDICTED BY IDOCK:   -8.16 KCAL/MOL
REMARK 923 INTER-LIGAND FREE ENERGY PREDICTED BY IDOCK:   -7.72 KCAL/MOL
REMARK 924 INTRA-LIGAND FREE ENERGY PREDICTED BY IDOCK:   -0.44 KCAL/MOL
REMARK 927      BINDING AFFINITY PREDICTED BY RF-SCORE:    0.00 PKD
ROOT
HETATM    1  O   UNL     1     -12.445  14.043  63.088  1.00  0.00    -1.137 OA 
HETATM    2  C   UNL     1     -12.053  13.970  64.391  1.00  0.00    -0.458 A  
HETATM    3  H   UNL     1     -12.100  14.709  62.505  1.00  0.00     0.000 HD 
HETATM    4  C   UNL     1     -12.558  12.996  65.244  1.00  0.00    -0.516 A  
HETATM    5  C   UNL     1     -12.140  12.972  66.577  1.00  0.00    -0.410 A  
HETATM    6  C   UNL     1     -11.219  13.919  67.055  1.00  0.00    -0.327 A  
HETATM    7  C   UNL     1     -11.132  14.909  64.844  1.00  0.00    -0.424 A  
HETATM    8  C   UNL     1     -10.712  14.886  66.178  1.00  0.00    -0.317 A  
ENDROOT
BRANCH   6   9
HETATM    9  C   UNL     1     -10.839  13.854  68.494  1.00  0.00    -0.259 C  
HETATM   10  O   UNL     1     -10.635  12.800  69.076  1.00  0.00    -0.169 OA 
BRANCH   9  11
HETATM   11  O   UNL     1     -10.794  15.091  69.041  1.00  0.00    -0.224 OA 
BRANCH  11  12
HETATM   12  C   UNL     1     -12.063  15.690  69.345  1.00  0.00    -0.266 C  
BRANCH  12  13
HETATM   13  C   UNL     1     -12.407  15.448  70.793  1.00  0.00    -0.447 A  
HETATM   14  C   UNL     1     -13.368  14.490  71.146  1.00  0.00    -0.415 A  
HETATM   15  C   UNL     1     -13.676  14.255  72.488  1.00  0.00    -0.608 A  
HETATM   16  C   UNL     1     -13.027  14.975  73.489  1.00  0.00    -0.564 A  
HETATM   17  C   UNL     1     -12.070  15.930  73.151  1.00  0.00    -0.611 A  
HETATM   18  C   UNL     1     -11.762  16.167  71.810  1.00  0.00    -0.568 A  
ENDBRANCH  12  13
ENDBRANCH  11  12
ENDBRANCH   9  11
ENDBRANCH   6   9
TORSDOF 4
ENDMDL
MODEL        8
REMARK 921   NORMALIZED FREE ENERGY PREDICTED BY IDOCK:   -6.03 KCAL/MOL
REMARK 922        TOTAL FREE ENERGY PREDICTED BY IDOCK:   -8.06 KCAL/MOL
REMARK 923 INTER-LIGAND FREE ENERGY PREDICTED BY IDOCK:   -7.69 KCAL/MOL
REMARK 924 INTRA-LIGAND FREE ENERGY PREDICTED BY IDOCK:   -0.37 KCAL/MOL
REMARK 927      BINDING AFFINITY PREDICTED BY RF-SCORE:    0.00 PKD
ROOT
HETATM    1  O   UNL     1     -12.078  11.411  62.837  1.00  0.00    -0.919 OA 
HETATM    2  C   UNL     1     -11.850  12.297  63.847  1.00  0.00    -0.464 A  
HETATM    3  H   UNL     1     -11.372  11.101  62.283  1.00  0.00     0.000 HD 
HETATM    4  C   UNL     1     -12.884  12.750  64.658  1.00  0.00    -0.355 A  
HETATM    5  C   UNL     1     -12.606  13.672  65.669  1.00  0.00    -0.531 A  
HETATM    6  C   UNL     1     -11.296  14.140  65.870  1.00  0.00    -0.323 A  
HETATM    7  C   UNL     1     -10.546  12.740  64.038  1.00  0.00    -0.446 A  
HETATM    8  C   UNL     1     -10.264  13.664  65.050  1.00  0.00    -0.356 A  
ENDROOT
BRANCH   6   9
HETATM    9  C   UNL     1     -11.074  15.145  66.947  1.00  0.00    -0.314 C  
HETATM   10  O   UNL     1     -10.164  15.958  66.913  1.00  0.00    -0.264 OA 
BRANCH   9  11
HETATM   11  O   UNL     1     -11.979  14.998  67.943  1.00  0.00    -0.291 OA 
BRANCH  11  12
HETATM   12  C   UNL     1     -11.570  15.469  69.236  1.00  0.00    -0.357 C  
BRANCH  12  13
HETATM   13  C   UNL     1     -12.349  14.752  70.309  1.00  0.00    -0.400 A  
HETATM   14  C   UNL     1     -12.235  13.362  70.464  1.00  0.00    -0.425 A  
HETATM   15  C   UNL     1     -12.945  12.701  71.468  1.00  0.00    -0.380 A  
HETATM   16  C   UNL     1     -13.774  13.419  72.327  1.00  0.00    -0.705 A  
HETATM   17  C   UNL     1     -13.895  14.801  72.183  1.00  0.00    -0.578 A  
HETATM   18  C   UNL     1     -13.188  15.464  71.179  1.00  0.00    -0.583 A  
ENDBRANCH  12  13
ENDBRANCH  11  12
ENDBRANCH   9  11
ENDBRANCH   6   9
TORSDOF 4
ENDMDL
MODEL        9
REMARK 921   NORMALIZED FREE ENERGY PREDICTED BY IDOCK:   -6.03 KCAL/MOL
REMARK 922        TOTAL FREE ENERGY PREDICTED BY IDOCK:   -8.06 KCAL/MOL
REMARK 923 INTER-LIGAND FREE ENERGY PREDICTED BY IDOCK:   -7.70 KCAL/MOL
REMARK 924 INTRA-LIGAND FREE ENERGY PREDICTED BY IDOCK:   -0.36 KCAL/MOL
REMARK 927      BINDING AFFINITY PREDICTED BY RF-SCORE:    0.00 PKD
ROOT
HETATM    1  O   UNL     1     -12.527  13.939  62.849  1.00  0.00    -1.034 OA 
HETATM    2  C   UNL     1     -12.177  13.312  64.008  1.00  0.00    -0.410 A  
HETATM    3  H   UNL     1     -12.278  13.589  62.003  1.00  0.00     0.000 HD 
HETATM    4  C   UNL     1     -12.543  13.825  65.247  1.00  0.00    -0.510 A  
HETATM    5  C   UNL     1     -12.146  13.156  66.407  1.00  0.00    -0.447 A  
HETATM    6  C   UNL     1     -11.385  11.977  66.329  1.00  0.00    -0.415 A  
HETATM    7  C   UNL     1     -11.434  12.140  63.910  1.00  0.00    -0.519 A  
HETATM    8  C   UNL     1     -11.036  11.469  65.071  1.00  0.00    -0.305 A  
ENDROOT
BRANCH   6   9
HETATM    9  C   UNL     1     -10.970  11.332  67.606  1.00  0.00    -0.259 C  
HETATM   10  O   UNL     1      -9.829  10.948  67.810  1.00  0.00    -0.171 OA 
BRANCH   9  11
HETATM   11  O   UNL     1     -12.019  11.209  68.452  1.00  0.00    -0.561 OA 
BRANCH  11  12
HETATM   12  C   UNL     1     -11.787  11.632  69.804  1.00  0.00    -0.357 C  
BRANCH  12  13
HETATM   13  C   UNL     1     -11.868  10.446  70.731  1.00  0.00    -0.466 A  
HETATM   14  C   UNL     1     -13.060  10.153  71.410  1.00  0.00    -0.512 A  
HETATM   15  C   UNL     1     -13.140   9.045  72.256  1.00  0.00    -0.508 A  
HETATM   16  C   UNL     1     -12.032   8.220  72.432  1.00  0.00    -0.447 A  
HETATM   17  C   UNL     1     -10.842   8.500  71.763  1.00  0.00    -0.374 A  
HETATM   18  C   UNL     1     -10.759   9.608  70.918  1.00  0.00    -0.402 A  
ENDBRANCH  12  13
ENDBRANCH  11  12
ENDBRANCH   9  11
ENDBRANCH   6   9
TORSDOF 4
ENDMDL
MODEL       10
REMARK 921   NORMALIZED FREE ENERGY PREDICTED BY IDOCK:   -6.00 KCAL/MOL
REMARK 922        TOTAL FREE ENERGY PREDICTED BY IDOCK:   -8.02 KCAL/MOL
REMARK 923 INTER-LIGAND FREE ENERGY PREDICTED BY IDOCK:   -7.47 KCAL/MOL
REMARK 924 INTRA-LIGAND FREE ENERGY PREDICTED BY IDOCK:   -0.55 KCAL/MOL
REMARK 927      BINDING AFFINITY PREDICTED BY RF-SCORE:    0.00 PKD
ROOT
HETATM    1  O   UNL     1     -13.843  15.859  72.709  1.00  0.00    -0.584 OA 
HETATM    2  C   UNL     1     -13.385  14.777  72.018  1.00  0.00    -0.363 A  
HETATM    3  H   UNL     1     -13.692  16.744  72.399  1.00  0.00     0.000 HD 
HETATM    4  C   UNL     1     -13.606  13.482  72.473  1.00  0.00    -0.674 A  
HETATM    5  C   UNL     1     -13.101  12.406  71.740  1.00  0.00    -0.446 A  
HETATM    6  C   UNL     1     -12.378  12.623  70.555  1.00  0.00    -0.350 A  
HETATM    7  C   UNL     1     -12.680  15.012  70.842  1.00  0.00    -0.437 A  
HETATM    8  C   UNL     1     -12.174  13.934  70.106  1.00  0.00    -0.425 A  
ENDROOT
BRANCH   6   9
HETATM    9  C   UNL     1     -11.842  11.431  69.839  1.00  0.00    -0.359 C  
HETATM   10  O   UNL     1     -11.174  10.574  70.394  1.00  0.00    -0.304 OA 
BRANCH   9  11
HETATM   11  O   UNL     1     -12.167  11.467  68.526  1.00  0.00    -0.557 OA 
BRANCH  11  12
HETATM   12  C   UNL     1     -11.077  11.310  67.605  1.00  0.00    -0.277 C  
BRANCH  12  13
HETATM   13  C   UNL     1     -11.368  12.069  66.335  1.00  0.00    -0.411 A  
HETATM   14  C   UNL     1     -10.889  11.604  65.101  1.00  0.00    -0.346 A  
HETATM   15  C   UNL     1     -11.172  12.299  63.924  1.00  0.00    -0.488 A  
HETATM   16  C   UNL     1     -11.936  13.463  63.966  1.00  0.00    -0.520 A  
HETATM   17  C   UNL     1     -12.419  13.934  65.186  1.00  0.00    -0.479 A  
HETATM   18  C   UNL     1     -12.135  13.242  66.365  1.00  0.00    -0.454 A  
ENDBRANCH  12  13
ENDBRANCH  11  12
ENDBRANCH   9  11
ENDBRANCH   6   9
TORSDOF 4
ENDMDL
MODEL       11
REMARK 921   NORMALIZED FREE ENERGY PREDICTED BY IDOCK:   -5.96 KCAL/MOL
REMARK 922        TOTAL FREE ENERGY PREDICTED BY IDOCK:   -7.97 KCAL/MOL
REMARK 923 INTER-LIGAND FREE ENERGY PREDICTED BY IDOCK:   -7.62 KCAL/MOL
REMARK 924 INTRA-LIGAND FREE ENERGY PREDICTED BY IDOCK:   -0.35 KCAL/MOL
REMARK 927      BINDING AFFINITY PREDICTED BY RF-SCORE:    0.00 PKD
ROOT
HETATM    1  O   UNL     1     -13.365  16.255  73.925  1.00  0.00    -0.934 OA 
HETATM    2  C   UNL     1     -12.946  15.542  72.841  1.00  0.00    -0.477 A  
HETATM    3  H   UNL     1     -13.963  15.881  74.561  1.00  0.00     0.000 HD 
HETATM    4  C   UNL     1     -12.071  16.089  71.911  1.00  0.00    -0.590 A  
HETATM    5  C   UNL     1     -11.684  15.326  70.806  1.00  0.00    -0.377 A  
HETATM    6  C   UNL     1     -12.170  14.019  70.634  1.00  0.00    -0.442 A  
HETATM    7  C   UNL     1     -13.429  14.246  72.693  1.00  0.00    -0.623 A  
HETATM    8  C   UNL     1     -13.042  13.480  71.588  1.00  0.00    -0.459 A  
ENDROOT
BRANCH   6   9
HETATM    9  C   UNL     1     -11.740  13.272  69.418  1.00  0.00    -0.325 C  
HETATM   10  O   UNL     1     -11.353  12.115  69.457  1.00  0.00    -0.257 OA 
BRANCH   9  11
HETATM   11  O   UNL     1     -11.809  14.056  68.317  1.00  0.00    -0.341 OA 
BRANCH  11  12
HETATM   12  C   UNL     1     -10.669  14.013  67.444  1.00  0.00    -0.283 C  
BRANCH  12  13
HETATM   13  C   UNL     1     -11.069  13.435  66.111  1.00  0.00    -0.299 A  
HETATM   14  C   UNL     1     -12.410  13.119  65.845  1.00  0.00    -0.462 A  
HETATM   15  C   UNL     1     -12.783  12.598  64.604  1.00  0.00    -0.458 A  
HETATM   16  C   UNL     1     -11.822  12.387  63.619  1.00  0.00    -0.610 A  
HETATM   17  C   UNL     1     -10.486  12.696  63.871  1.00  0.00    -0.441 A  
HETATM   18  C   UNL     1     -10.111  13.216  65.111  1.00  0.00    -0.239 A  
ENDBRANCH  12  13
ENDBRANCH  11  12
ENDBRANCH   9  11
ENDBRANCH   6   9
TORSDOF 4
ENDMDL
MODEL       12
REMARK 921   NORMALIZED FREE ENERGY PREDICTED BY IDOCK:   -5.93 KCAL/MOL
REMARK 922        TOTAL FREE ENERGY PREDICTED BY IDOCK:   -7.93 KCAL/MOL
REMARK 923 INTER-LIGAND FREE ENERGY PREDICTED BY IDOCK:   -7.60 KCAL/MOL
REMARK 924 INTRA-LIGAND FREE ENERGY PREDICTED BY IDOCK:   -0.34 KCAL/MOL
REMARK 927      BINDING AFFINITY PREDICTED BY RF-SCORE:    0.00 PKD
ROOT
HETATM    1  O   UNL     1     -10.231  10.630  62.427  1.00  0.00    -0.743 OA 
HETATM    2  C   UNL     1     -10.659  11.131  63.620  1.00  0.00    -0.347 A  
HETATM    3  H   UNL     1      -9.517  10.005  62.380  1.00  0.00     0.000 HD 
HETATM    4  C   UNL     1     -11.704  12.045  63.687  1.00  0.00    -0.587 A  
HETATM    5  C   UNL     1     -12.096  12.544  64.932  1.00  0.00    -0.499 A  
HETATM    6  C   UNL     1     -11.445  12.129  66.106  1.00  0.00    -0.429 A  
HETATM    7  C   UNL     1     -10.010  10.700  64.773  1.00  0.00    -0.391 A  
HETATM    8  C   UNL     1     -10.401  11.199  66.020  1.00  0.00    -0.308 A  
ENDROOT
BRANCH   6   9
HETATM    9  C   UNL     1     -11.893  12.724  67.396  1.00  0.00    -0.342 C  
HETATM   10  O   UNL     1     -11.989  13.929  67.570  1.00  0.00    -0.377 OA 
BRANCH   9  11
HETATM   11  O   UNL     1     -12.133  11.762  68.318  1.00  0.00    -0.525 OA 
BRANCH  11  12
HETATM   12  C   UNL     1     -11.808  12.099  69.675  1.00  0.00    -0.322 C  
BRANCH  12  13
HETATM   13  C   UNL     1     -11.895  10.867  70.541  1.00  0.00    -0.457 A  
HETATM   14  C   UNL     1     -10.838   9.945  70.575  1.00  0.00    -0.391 A  
HETATM   15  C   UNL     1     -10.911   8.813  71.389  1.00  0.00    -0.360 A  
HETATM   16  C   UNL     1     -12.039   8.590  72.175  1.00  0.00    -0.449 A  
HETATM   17  C   UNL     1     -13.096   9.499  72.150  1.00  0.00    -0.522 A  
HETATM   18  C   UNL     1     -13.025  10.631  71.336  1.00  0.00    -0.545 A  
ENDBRANCH  12  13
ENDBRANCH  11  12
ENDBRANCH   9  11
ENDBRANCH   6   9
TORSDOF 4
ENDMDL
MODEL       13
REMARK 921   NORMALIZED FREE ENERGY PREDICTED BY IDOCK:   -5.91 KCAL/MOL
REMARK 922        TOTAL FREE ENERGY PREDICTED BY IDOCK:   -7.91 KCAL/MOL
REMARK 923 INTER-LIGAND FREE ENERGY PREDICTED BY IDOCK:   -7.34 KCAL/MOL
REMARK 924 INTRA-LIGAND FREE ENERGY PREDICTED BY IDOCK:   -0.58 KCAL/MOL
REMARK 927      BINDING AFFINITY PREDICTED BY RF-SCORE:    0.00 PKD
ROOT
HETATM    1  O   UNL     1      -9.584  21.102  67.017  1.00  0.00    -0.664 OA 
HETATM    2  C   UNL     1      -9.897  19.780  67.133  1.00  0.00    -0.386 A  
HETATM    3  H   UNL     1      -9.351  21.623  67.776  1.00  0.00     0.000 HD 
HETATM    4  C   UNL     1     -10.237  19.018  66.021  1.00  0.00    -0.462 A  
HETATM    5  C   UNL     1     -10.568  17.671  66.192  1.00  0.00    -0.220 A  
HETATM    6  C   UNL     1     -10.558  17.089  67.470  1.00  0.00    -0.310 A  
HETATM    7  C   UNL     1      -9.871  19.218  68.405  1.00  0.00    -0.492 A  
HETATM    8  C   UNL     1     -10.202  17.869  68.577  1.00  0.00    -0.393 A  
ENDROOT
BRANCH   6   9
HETATM    9  C   UNL     1     -10.950  15.656  67.584  1.00  0.00    -0.315 C  
HETATM   10  O   UNL     1     -11.437  15.029  66.656  1.00  0.00    -0.336 OA 
BRANCH   9  11
HETATM   11  O   UNL     1     -10.727  15.189  68.834  1.00  0.00    -0.225 OA 
BRANCH  11  12
HETATM   12  C   UNL     1     -11.681  14.236  69.329  1.00  0.00    -0.321 C  
BRANCH  12  13
HETATM   13  C   UNL     1     -12.163  14.659  70.693  1.00  0.00    -0.394 A  
HETATM   14  C   UNL     1     -13.088  13.873  71.396  1.00  0.00    -0.413 A  
HETATM   15  C   UNL     1     -13.523  14.257  72.667  1.00  0.00    -0.623 A  
HETATM   16  C   UNL     1     -13.039  15.427  73.247  1.00  0.00    -0.642 A  
HETATM   17  C   UNL     1     -12.118  16.216  72.558  1.00  0.00    -0.644 A  
HETATM   18  C   UNL     1     -11.684  15.835  71.288  1.00  0.00    -0.496 A  
ENDBRANCH  12  13
ENDBRANCH  11  12
ENDBRANCH   9  11
ENDBRANCH   6   9
TORSDOF 4
ENDMDL
MODEL       14
REMARK 921   NORMALIZED FREE ENERGY PREDICTED BY IDOCK:   -5.90 KCAL/MOL
REMARK 922        TOTAL FREE ENERGY PREDICTED BY IDOCK:   -7.91 KCAL/MOL
REMARK 923 INTER-LIGAND FREE ENERGY PREDICTED BY IDOCK:   -7.58 KCAL/MOL
REMARK 924 INTRA-LIGAND FREE ENERGY PREDICTED BY IDOCK:   -0.32 KCAL/MOL
REMARK 927      BINDING AFFINITY PREDICTED BY RF-SCORE:    0.00 PKD
ROOT
HETATM    1  O   UNL     1     -12.017  11.355  62.948  1.00  0.00    -0.898 OA 
HETATM    2  C   UNL     1     -11.729  11.878  64.174  1.00  0.00    -0.340 A  
HETATM    3  H   UNL     1     -12.760  11.661  62.443  1.00  0.00     0.000 HD 
HETATM    4  C   UNL     1     -10.641  11.430  64.913  1.00  0.00    -0.368 A  
HETATM    5  C   UNL     1     -10.396  11.983  66.172  1.00  0.00    -0.257 A  
HETATM    6  C   UNL     1     -11.237  12.983  66.690  1.00  0.00    -0.341 A  
HETATM    7  C   UNL     1     -12.566  12.874  64.665  1.00  0.00    -0.459 A  
HETATM    8  C   UNL     1     -12.322  13.430  65.926  1.00  0.00    -0.493 A  
ENDROOT
BRANCH   6   9
HETATM    9  C   UNL     1     -10.936  13.508  68.051  1.00  0.00    -0.251 C  
HETATM   10  O   UNL     1      -9.826  13.435  68.556  1.00  0.00    -0.230 OA 
BRANCH   9  11
HETATM   11  O   UNL     1     -12.046  14.022  68.631  1.00  0.00    -0.351 OA 
BRANCH  11  12
HETATM   12  C   UNL     1     -11.969  15.401  69.020  1.00  0.00    -0.288 C  
BRANCH  12  13
HETATM   13  C   UNL     1     -12.412  15.552  70.453  1.00  0.00    -0.443 A  
HETATM   14  C   UNL     1     -13.696  15.150  70.848  1.00  0.00    -0.352 A  
HETATM   15  C   UNL     1     -14.101  15.275  72.179  1.00  0.00    -0.658 A  
HETATM   16  C   UNL     1     -13.227  15.803  73.127  1.00  0.00    -0.694 A  
HETATM   17  C   UNL     1     -11.948  16.207  72.747  1.00  0.00    -0.638 A  
HETATM   18  C   UNL     1     -11.543  16.083  71.417  1.00  0.00    -0.520 A  
ENDBRANCH  12  13
ENDBRANCH  11  12
ENDBRANCH   9  11
ENDBRANCH   6   9
TORSDOF 4
ENDMDL
MODEL       15
REMARK 921   NORMALIZED FREE ENERGY PREDICTED BY IDOCK:   -5.89 KCAL/MOL
REMARK 922        TOTAL FREE ENERGY PREDICTED BY IDOCK:   -7.89 KCAL/MOL
REMARK 923 INTER-LIGAND FREE ENERGY PREDICTED BY IDOCK:   -6.98 KCAL/MOL
REMARK 924 INTRA-LIGAND FREE ENERGY PREDICTED BY IDOCK:   -0.91 KCAL/MOL
REMARK 927      BINDING AFFINITY PREDICTED BY RF-SCORE:    0.00 PKD
ROOT
HETATM    1  O   UNL     1     -12.556  14.041  63.225  1.00  0.00    -1.073 OA 
HETATM    2  C   UNL     1     -12.072  14.383  64.452  1.00  0.00    -0.470 A  
HETATM    3  H   UNL     1     -13.245  13.394  63.128  1.00  0.00     0.000 HD 
HETATM    4  C   UNL     1     -11.065  15.330  64.593  1.00  0.00    -0.346 A  
HETATM    5  C   UNL     1     -10.588  15.635  65.871  1.00  0.00    -0.354 A  
HETATM    6  C   UNL     1     -11.117  14.995  67.004  1.00  0.00    -0.334 A  
HETATM    7  C   UNL     1     -12.616  13.747  65.563  1.00  0.00    -0.551 A  
HETATM    8  C   UNL     1     -12.140  14.051  66.843  1.00  0.00    -0.465 A  
ENDROOT
BRANCH   6   9
HETATM    9  C   UNL     1     -10.542  15.345  68.332  1.00  0.00    -0.247 C  
HETATM   10  O   UNL     1      -9.628  14.716  68.842  1.00  0.00    -0.212 OA 
BRANCH   9  11
HETATM   11  O   UNL     1     -11.188  16.402  68.878  1.00  0.00    -0.332 OA 
BRANCH  11  12
HETATM   12  C   UNL     1     -10.353  17.458  69.377  1.00  0.00    -0.120 C  
BRANCH  12  13
HETATM   13  C   UNL     1      -9.921  18.348  68.238  1.00  0.00    -0.394 A  
HETATM   14  C   UNL     1     -10.875  18.996  67.440  1.00  0.00    -0.496 A  
HETATM   15  C   UNL     1     -10.475  19.831  66.395  1.00  0.00    -0.618 A  
HETATM   16  C   UNL     1      -9.121  20.028  66.138  1.00  0.00    -0.357 A  
HETATM   17  C   UNL     1      -8.163  19.390  66.925  1.00  0.00    -0.302 A  
HETATM   18  C   UNL     1      -8.561  18.553  67.969  1.00  0.00    -0.310 A  
ENDBRANCH  12  13
ENDBRANCH  11  12
ENDBRANCH   9  11
ENDBRANCH   6   9
TORSDOF 4
ENDMDL
MODEL       16
REMARK 921   NORMALIZED FREE ENERGY PREDICTED BY IDOCK:   -5.87 KCAL/MOL
REMARK 922        TOTAL FREE ENERGY PREDICTED BY IDOCK:   -7.86 KCAL/MOL
REMARK 923 INTER-LIGAND FREE ENERGY PREDICTED BY IDOCK:   -7.54 KCAL/MOL
REMARK 924 INTRA-LIGAND FREE ENERGY PREDICTED BY IDOCK:   -0.33 KCAL/MOL
REMARK 927      BINDING AFFINITY PREDICTED BY RF-SCORE:    0.00 PKD
ROOT
HETATM    1  O   UNL     1     -10.320  10.737  62.459  1.00  0.00    -0.748 OA 
HETATM    2  C   UNL     1     -10.656  11.465  63.561  1.00  0.00    -0.402 A  
HETATM    3  H   UNL     1     -10.807  10.815  61.648  1.00  0.00     0.000 HD 
HETATM    4  C   UNL     1      -9.943  11.350  64.749  1.00  0.00    -0.313 A  
HETATM    5  C   UNL     1     -10.337  12.104  65.857  1.00  0.00    -0.286 A  
HETATM    6  C   UNL     1     -11.440  12.969  65.779  1.00  0.00    -0.367 A  
HETATM    7  C   UNL     1     -11.745  12.325  63.461  1.00  0.00    -0.584 A  
HETATM    8  C   UNL     1     -12.140  13.080  64.570  1.00  0.00    -0.468 A  
ENDROOT
BRANCH   6   9
HETATM    9  C   UNL     1     -11.824  13.720  67.007  1.00  0.00    -0.410 C  
HETATM   10  O   UNL     1     -11.910  14.937  67.037  1.00  0.00    -0.327 OA 
BRANCH   9  11
HETATM   11  O   UNL     1     -12.018  12.879  68.050  1.00  0.00    -0.346 OA 
BRANCH  11  12
HETATM   12  C   UNL     1     -11.270  13.172  69.240  1.00  0.00    -0.206 C  
BRANCH  12  13
HETATM   13  C   UNL     1     -12.202  13.655  70.322  1.00  0.00    -0.423 A  
HETATM   14  C   UNL     1     -12.536  15.014  70.420  1.00  0.00    -0.407 A  
HETATM   15  C   UNL     1     -13.411  15.458  71.413  1.00  0.00    -0.607 A  
HETATM   16  C   UNL     1     -13.961  14.552  72.316  1.00  0.00    -0.600 A  
HETATM   17  C   UNL     1     -13.637  13.198  72.229  1.00  0.00    -0.677 A  
HETATM   18  C   UNL     1     -12.761  12.752  71.238  1.00  0.00    -0.364 A  
ENDBRANCH  12  13
ENDBRANCH  11  12
ENDBRANCH   9  11
ENDBRANCH   6   9
TORSDOF 4
ENDMDL
MODEL       17
REMARK 921   NORMALIZED FREE ENERGY PREDICTED BY IDOCK:   -5.86 KCAL/MOL
REMARK 922        TOTAL FREE ENERGY PREDICTED BY IDOCK:   -7.85 KCAL/MOL
REMARK 923 INTER-LIGAND FREE ENERGY PREDICTED BY IDOCK:   -7.52 KCAL/MOL
REMARK 924 INTRA-LIGAND FREE ENERGY PREDICTED BY IDOCK:   -0.34 KCAL/MOL
REMARK 927      BINDING AFFINITY PREDICTED BY RF-SCORE:    0.00 PKD
ROOT
HETATM    1  O   UNL     1     -13.875   8.771  73.381  1.00  0.00    -1.077 OA 
HETATM    2  C   UNL     1     -13.173   9.302  72.340  1.00  0.00    -0.426 A  
HETATM    3  H   UNL     1     -13.756   7.868  73.648  1.00  0.00     0.000 HD 
HETATM    4  C   UNL     1     -13.347  10.624  71.949  1.00  0.00    -0.454 A  
HETATM    5  C   UNL     1     -12.617  11.118  70.865  1.00  0.00    -0.483 A  
HETATM    6  C   UNL     1     -11.715  10.291  70.174  1.00  0.00    -0.364 A  
HETATM    7  C   UNL     1     -12.275   8.472  71.675  1.00  0.00    -0.371 A  
HETATM    8  C   UNL     1     -11.544   8.964  70.589  1.00  0.00    -0.251 A  
ENDROOT
BRANCH   6   9
HETATM    9  C   UNL     1     -10.992  10.873  69.009  1.00  0.00    -0.235 C  
HETATM   10  O   UNL     1      -9.777  10.983  68.974  1.00  0.00    -0.196 OA 
BRANCH   9  11
HETATM   11  O   UNL     1     -11.859  11.278  68.051  1.00  0.00    -0.578 OA 
BRANCH  11  12
HETATM   12  C   UNL     1     -11.770  12.658  67.667  1.00  0.00    -0.361 C  
BRANCH  12  13
HETATM   13  C   UNL     1     -11.723  12.767  66.164  1.00  0.00    -0.458 A  
HETATM   14  C   UNL     1     -11.113  11.765  65.396  1.00  0.00    -0.336 A  
HETATM   15  C   UNL     1     -11.082  11.859  64.003  1.00  0.00    -0.459 A  
HETATM   16  C   UNL     1     -11.662  12.953  63.364  1.00  0.00    -0.526 A  
HETATM   17  C   UNL     1     -12.272  13.955  64.117  1.00  0.00    -0.436 A  
HETATM   18  C   UNL     1     -12.301  13.864  65.509  1.00  0.00    -0.506 A  
ENDBRANCH  12  13
ENDBRANCH  11  12
ENDBRANCH   9  11
ENDBRANCH   6   9
TORSDOF 4
ENDMDL
MODEL       18
REMARK 921   NORMALIZED FREE ENERGY PREDICTED BY IDOCK:   -5.83 KCAL/MOL
REMARK 922        TOTAL FREE ENERGY PREDICTED BY IDOCK:   -7.82 KCAL/MOL
REMARK 923 INTER-LIGAND FREE ENERGY PREDICTED BY IDOCK:   -7.47 KCAL/MOL
REMARK 924 INTRA-LIGAND FREE ENERGY PREDICTED BY IDOCK:   -0.34 KCAL/MOL
REMARK 927      BINDING AFFINITY PREDICTED BY RF-SCORE:    0.00 PKD
ROOT
HETATM    1  O   UNL     1     -11.366  16.572  63.959  1.00  0.00    -1.475 OA 
HETATM    2  C   UNL     1     -11.357  15.413  64.678  1.00  0.00    -0.355 A  
HETATM    3  H   UNL     1     -10.716  17.248  64.103  1.00  0.00     0.000 HD 
HETATM    4  C   UNL     1     -12.309  14.423  64.466  1.00  0.00    -0.440 A  
HETATM    5  C   UNL     1     -12.269  13.261  65.240  1.00  0.00    -0.492 A  
HETATM    6  C   UNL     1     -11.280  13.089  66.222  1.00  0.00    -0.332 A  
HETATM    7  C   UNL     1     -10.363  15.256  65.638  1.00  0.00    -0.389 A  
HETATM    8  C   UNL     1     -10.321  14.092  66.414  1.00  0.00    -0.287 A  
ENDROOT
BRANCH   6   9
HETATM    9  C   UNL     1     -11.314  11.838  67.031  1.00  0.00    -0.321 C  
HETATM   10  O   UNL     1     -10.844  10.783  66.636  1.00  0.00    -0.237 OA 
BRANCH   9  11
HETATM   11  O   UNL     1     -11.953  12.038  68.208  1.00  0.00    -0.426 OA 
BRANCH  11  12
HETATM   12  C   UNL     1     -11.136  11.966  69.386  1.00  0.00    -0.153 C  
BRANCH  12  13
HETATM   13  C   UNL     1     -11.673  10.908  70.316  1.00  0.00    -0.437 A  
HETATM   14  C   UNL     1     -10.984   9.699  70.494  1.00  0.00    -0.374 A  
HETATM   15  C   UNL     1     -11.474   8.725  71.367  1.00  0.00    -0.366 A  
HETATM   16  C   UNL     1     -12.656   8.949  72.069  1.00  0.00    -0.460 A  
HETATM   17  C   UNL     1     -13.350  10.146  71.901  1.00  0.00    -0.505 A  
HETATM   18  C   UNL     1     -12.862  11.120  71.028  1.00  0.00    -0.424 A  
ENDBRANCH  12  13
ENDBRANCH  11  12
ENDBRANCH   9  11
ENDBRANCH   6   9
TORSDOF 4
ENDMDL
MODEL       19
REMARK 921   NORMALIZED FREE ENERGY PREDICTED BY IDOCK:   -5.80 KCAL/MOL
REMARK 922        TOTAL FREE ENERGY PREDICTED BY IDOCK:   -7.78 KCAL/MOL
REMARK 923 INTER-LIGAND FREE ENERGY PREDICTED BY IDOCK:   -7.47 KCAL/MOL
REMARK 924 INTRA-LIGAND FREE ENERGY PREDICTED BY IDOCK:   -0.30 KCAL/MOL
REMARK 927      BINDING AFFINITY PREDICTED BY RF-SCORE:    0.00 PKD
ROOT
HETATM    1  O   UNL     1     -11.728   7.524  73.207  1.00  0.00    -0.604 OA 
HETATM    2  C   UNL     1     -11.779   8.542  72.302  1.00  0.00    -0.373 A  
HETATM    3  H   UNL     1     -10.952   6.986  73.302  1.00  0.00     0.000 HD 
HETATM    4  C   UNL     1     -12.916   9.329  72.163  1.00  0.00    -0.503 A  
HETATM    5  C   UNL     1     -12.927  10.350  71.209  1.00  0.00    -0.517 A  
HETATM    6  C   UNL     1     -11.805  10.583  70.398  1.00  0.00    -0.431 A  
HETATM    7  C   UNL     1     -10.654   8.765  71.515  1.00  0.00    -0.379 A  
HETATM    8  C   UNL     1     -10.664   9.787  70.560  1.00  0.00    -0.381 A  
ENDROOT
BRANCH   6   9
HETATM    9  C   UNL     1     -11.896  11.668  69.381  1.00  0.00    -0.342 C  
HETATM   10  O   UNL     1     -11.859  12.853  69.674  1.00  0.00    -0.311 OA 
BRANCH   9  11
HETATM   11  O   UNL     1     -12.055  11.157  68.138  1.00  0.00    -0.633 OA 
BRANCH  11  12
HETATM   12  C   UNL     1     -10.891  11.178  67.297  1.00  0.00    -0.274 C  
BRANCH  12  13
HETATM   13  C   UNL     1     -11.242  11.771  65.956  1.00  0.00    -0.352 A  
HETATM   14  C   UNL     1     -10.703  11.235  64.777  1.00  0.00    -0.352 A  
HETATM   15  C   UNL     1     -11.039  11.775  63.534  1.00  0.00    -0.503 A  
HETATM   16  C   UNL     1     -11.916  12.855  63.456  1.00  0.00    -0.629 A  
HETATM   17  C   UNL     1     -12.459  13.396  64.621  1.00  0.00    -0.385 A  
HETATM   18  C   UNL     1     -12.122  12.859  65.864  1.00  0.00    -0.503 A  
ENDBRANCH  12  13
ENDBRANCH  11  12
ENDBRANCH   9  11
ENDBRANCH   6   9
TORSDOF 4
ENDMDL
MODEL       20
REMARK 921   NORMALIZED FREE ENERGY PREDICTED BY IDOCK:   -5.76 KCAL/MOL
REMARK 922        TOTAL FREE ENERGY PREDICTED BY IDOCK:   -7.73 KCAL/MOL
REMARK 923 INTER-LIGAND FREE ENERGY PREDICTED BY IDOCK:   -7.36 KCAL/MOL
REMARK 924 INTRA-LIGAND FREE ENERGY PREDICTED BY IDOCK:   -0.36 KCAL/MOL
REMARK 927      BINDING AFFINITY PREDICTED BY RF-SCORE:    0.00 PKD
ROOT
HETATM    1  O   UNL     1     -10.230  10.619  62.333  1.00  0.00    -0.743 OA 
HETATM    2  C   UNL     1     -10.623  11.161  63.520  1.00  0.00    -0.324 A  
HETATM    3  H   UNL     1     -10.492  11.002  61.504  1.00  0.00     0.000 HD 
HETATM    4  C   UNL     1     -10.240  10.600  64.733  1.00  0.00    -0.401 A  
HETATM    5  C   UNL     1     -10.682  11.180  65.924  1.00  0.00    -0.261 A  
HETATM    6  C   UNL     1     -11.504  12.319  65.903  1.00  0.00    -0.428 A  
HETATM    7  C   UNL     1     -11.427  12.295  63.480  1.00  0.00    -0.558 A  
HETATM    8  C   UNL     1     -11.870  12.878  64.672  1.00  0.00    -0.422 A  
ENDROOT
BRANCH   6   9
HETATM    9  C   UNL     1     -11.964  12.869  67.209  1.00  0.00    -0.309 C  
HETATM   10  O   UNL     1     -12.155  14.061  67.393  1.00  0.00    -0.402 OA 
BRANCH   9  11
HETATM   11  O   UNL     1     -12.095  11.887  68.131  1.00  0.00    -0.516 OA 
BRANCH  11  12
HETATM   12  C   UNL     1     -11.824  12.261  69.490  1.00  0.00    -0.315 C  
BRANCH  12  13
HETATM   13  C   UNL     1     -11.906  11.047  70.380  1.00  0.00    -0.460 A  
HETATM   14  C   UNL     1     -13.001  10.865  71.238  1.00  0.00    -0.492 A  
HETATM   15  C   UNL     1     -13.085   9.732  72.050  1.00  0.00    -0.546 A  
HETATM   16  C   UNL     1     -12.077   8.771  72.014  1.00  0.00    -0.447 A  
HETATM   17  C   UNL     1     -10.983   8.941  71.166  1.00  0.00    -0.356 A  
HETATM   18  C   UNL     1     -10.897  10.073  70.354  1.00  0.00    -0.380 A  
ENDBRANCH  12  13
ENDBRANCH  11  12
ENDBRANCH   9  11
ENDBRANCH   6   9
TORSDOF 4
ENDMDL
MODEL       21
REMARK 921   NORMALIZED FREE ENERGY PREDICTED BY IDOCK:   -5.73 KCAL/MOL
REMARK 922        TOTAL FREE ENERGY PREDICTED BY IDOCK:   -7.70 KCAL/MOL
REMARK 923 INTER-LIGAND FREE ENERGY PREDICTED BY IDOCK:   -7.37 KCAL/MOL
REMARK 924 INTRA-LIGAND FREE ENERGY PREDICTED BY IDOCK:   -0.32 KCAL/MOL
REMARK 927      BINDING AFFINITY PREDICTED BY RF-SCORE:    0.00 PKD
ROOT
HETATM    1  O   UNL     1     -11.904   7.208  72.896  1.00  0.00    -0.528 OA 
HETATM    2  C   UNL     1     -11.932   8.344  72.144  1.00  0.00    -0.374 A  
HETATM    3  H   UNL     1     -12.645   6.950  73.430  1.00  0.00     0.000 HD 
HETATM    4  C   UNL     1     -10.847   8.721  71.362  1.00  0.00    -0.359 A  
HETATM    5  C   UNL     1     -10.916   9.905  70.622  1.00  0.00    -0.405 A  
HETATM    6  C   UNL     1     -12.068  10.708  70.665  1.00  0.00    -0.461 A  
HETATM    7  C   UNL     1     -13.085   9.122  72.190  1.00  0.00    -0.516 A  
HETATM    8  C   UNL     1     -13.156  10.307  71.450  1.00  0.00    -0.512 A  
ENDROOT
BRANCH   6   9
HETATM    9  C   UNL     1     -12.063  11.972  69.876  1.00  0.00    -0.263 C  
HETATM   10  O   UNL     1     -12.079  13.076  70.397  1.00  0.00    -0.359 OA 
BRANCH   9  11
HETATM   11  O   UNL     1     -12.074  11.715  68.547  1.00  0.00    -0.491 OA 
BRANCH  11  12
HETATM   12  C   UNL     1     -11.910  12.853  67.687  1.00  0.00    -0.346 C  
BRANCH  12  13
HETATM   13  C   UNL     1     -11.615  12.392  66.282  1.00  0.00    -0.449 A  
HETATM   14  C   UNL     1     -10.660  11.392  66.046  1.00  0.00    -0.319 A  
HETATM   15  C   UNL     1     -10.398  10.954  64.746  1.00  0.00    -0.391 A  
HETATM   16  C   UNL     1     -11.087  11.509  63.671  1.00  0.00    -0.469 A  
HETATM   17  C   UNL     1     -12.039  12.504  63.892  1.00  0.00    -0.581 A  
HETATM   18  C   UNL     1     -12.300  12.944  65.190  1.00  0.00    -0.547 A  
ENDBRANCH  12  13
ENDBRANCH  11  12
ENDBRANCH   9  11
ENDBRANCH   6   9
TORSDOF 4
ENDMDL
MODEL       22
REMARK 921   NORMALIZED FREE ENERGY PREDICTED BY IDOCK:   -5.70 KCAL/MOL
REMARK 922        TOTAL FREE ENERGY PREDICTED BY IDOCK:   -7.66 KCAL/MOL
REMARK 923 INTER-LIGAND FREE ENERGY PREDICTED BY IDOCK:   -7.08 KCAL/MOL
REMARK 924 INTRA-LIGAND FREE ENERGY PREDICTED BY IDOCK:   -0.58 KCAL/MOL
REMARK 927      BINDING AFFINITY PREDICTED BY RF-SCORE:    0.00 PKD
ROOT
HETATM    1  O   UNL     1     -13.441  10.679  72.366  1.00  0.00    -0.603 OA 
HETATM    2  C   UNL     1     -12.999  11.766  71.673  1.00  0.00    -0.362 A  
HETATM    3  H   UNL     1     -13.951  10.773  73.162  1.00  0.00     0.000 HD 
HETATM    4  C   UNL     1     -12.254  11.627  70.508  1.00  0.00    -0.451 A  
HETATM    5  C   UNL     1     -11.808  12.771  69.842  1.00  0.00    -0.371 A  
HETATM    6  C   UNL     1     -12.107  14.050  70.339  1.00  0.00    -0.426 A  
HETATM    7  C   UNL     1     -13.315  13.025  72.174  1.00  0.00    -0.622 A  
HETATM    8  C   UNL     1     -12.869  14.172  71.508  1.00  0.00    -0.430 A  
ENDROOT
BRANCH   6   9
HETATM    9  C   UNL     1     -11.574  15.227  69.596  1.00  0.00    -0.321 C  
HETATM   10  O   UNL     1     -10.907  16.098  70.130  1.00  0.00    -0.332 OA 
BRANCH   9  11
HETATM   11  O   UNL     1     -11.961  15.198  68.299  1.00  0.00    -0.298 OA 
BRANCH  11  12
HETATM   12  C   UNL     1     -10.909  15.316  67.328  1.00  0.00    -0.318 C  
BRANCH  12  13
HETATM   13  C   UNL     1     -11.134  14.329  66.211  1.00  0.00    -0.323 A  
HETATM   14  C   UNL     1     -10.095  14.009  65.324  1.00  0.00    -0.345 A  
HETATM   15  C   UNL     1     -10.299  13.083  64.298  1.00  0.00    -0.385 A  
HETATM   16  C   UNL     1     -11.540  12.469  64.149  1.00  0.00    -0.457 A  
HETATM   17  C   UNL     1     -12.580  12.779  65.024  1.00  0.00    -0.538 A  
HETATM   18  C   UNL     1     -12.379  13.705  66.048  1.00  0.00    -0.493 A  
ENDBRANCH  12  13
ENDBRANCH  11  12
ENDBRANCH   9  11
ENDBRANCH   6   9
TORSDOF 4
ENDMDL
MODEL       23
REMARK 921   NORMALIZED FREE ENERGY PREDICTED BY IDOCK:   -5.69 KCAL/MOL
REMARK 922        TOTAL FREE ENERGY PREDICTED BY IDOCK:   -7.64 KCAL/MOL
REMARK 923 INTER-LIGAND FREE ENERGY PREDICTED BY IDOCK:   -7.31 KCAL/MOL
REMARK 924 INTRA-LIGAND FREE ENERGY PREDICTED BY IDOCK:   -0.33 KCAL/MOL
REMARK 927      BINDING AFFINITY PREDICTED BY RF-SCORE:    0.00 PKD
ROOT
HETATM    1  O   UNL     1     -10.525  10.808  62.602  1.00  0.00    -0.760 OA 
HETATM    2  C   UNL     1     -10.788  11.614  63.669  1.00  0.00    -0.432 A  
HETATM    3  H   UNL     1     -11.053  10.845  61.813  1.00  0.00     0.000 HD 
HETATM    4  C   UNL     1     -10.015  11.560  64.823  1.00  0.00    -0.304 A  
HETATM    5  C   UNL     1     -10.333  12.394  65.898  1.00  0.00    -0.282 A  
HETATM    6  C   UNL     1     -11.421  13.279  65.819  1.00  0.00    -0.349 A  
HETATM    7  C   UNL     1     -11.862  12.493  63.568  1.00  0.00    -0.616 A  
HETATM    8  C   UNL     1     -12.182  13.328  64.643  1.00  0.00    -0.460 A  
ENDROOT
BRANCH   6   9
HETATM    9  C   UNL     1     -11.723  14.118  67.012  1.00  0.00    -0.405 C  
HETATM   10  O   UNL     1     -12.281  13.677  68.005  1.00  0.00    -0.323 OA 
BRANCH   9  11
HETATM   11  O   UNL     1     -11.332  15.399  66.818  1.00  0.00    -0.258 OA 
BRANCH  11  12
HETATM   12  C   UNL     1     -10.527  15.974  67.859  1.00  0.00    -0.292 C  
BRANCH  12  13
HETATM   13  C   UNL     1     -10.376  17.456  67.627  1.00  0.00    -0.355 A  
HETATM   14  C   UNL     1     -10.106  18.321  68.698  1.00  0.00    -0.407 A  
HETATM   15  C   UNL     1      -9.950  19.692  68.480  1.00  0.00    -0.542 A  
HETATM   16  C   UNL     1     -10.062  20.211  67.192  1.00  0.00    -0.590 A  
HETATM   17  C   UNL     1     -10.329  19.361  66.119  1.00  0.00    -0.595 A  
HETATM   18  C   UNL     1     -10.487  17.991  66.336  1.00  0.00    -0.345 A  
ENDBRANCH  12  13
ENDBRANCH  11  12
ENDBRANCH   9  11
ENDBRANCH   6   9
TORSDOF 4
ENDMDL
MODEL       24
REMARK 921   NORMALIZED FREE ENERGY PREDICTED BY IDOCK:   -5.65 KCAL/MOL
REMARK 922        TOTAL FREE ENERGY PREDICTED BY IDOCK:   -7.59 KCAL/MOL
REMARK 923 INTER-LIGAND FREE ENERGY PREDICTED BY IDOCK:   -7.24 KCAL/MOL
REMARK 924 INTRA-LIGAND FREE ENERGY PREDICTED BY IDOCK:   -0.35 KCAL/MOL
REMARK 927      BINDING AFFINITY PREDICTED BY RF-SCORE:    0.00 PKD
ROOT
HETATM    1  O   UNL     1      -9.584   9.322  64.868  1.00  0.00    -0.447 OA 
HETATM    2  C   UNL     1     -10.152  10.560  64.832  1.00  0.00    -0.333 A  
HETATM    3  H   UNL     1      -9.440   8.868  65.690  1.00  0.00     0.000 HD 
HETATM    4  C   UNL     1     -10.363  11.224  63.629  1.00  0.00    -0.464 A  
HETATM    5  C   UNL     1     -10.932  12.499  63.643  1.00  0.00    -0.507 A  
HETATM    6  C   UNL     1     -11.291  13.109  64.857  1.00  0.00    -0.334 A  
HETATM    7  C   UNL     1     -10.511  11.144  66.043  1.00  0.00    -0.312 A  
HETATM    8  C   UNL     1     -11.082  12.421  66.059  1.00  0.00    -0.344 A  
ENDROOT
BRANCH   6   9
HETATM    9  C   UNL     1     -11.865  14.483  64.801  1.00  0.00    -0.441 C  
HETATM   10  O   UNL     1     -12.608  14.852  63.906  1.00  0.00    -0.831 OA 
BRANCH   9  11
HETATM   11  O   UNL     1     -11.423  15.237  65.834  1.00  0.00    -0.243 OA 
BRANCH  11  12
HETATM   12  C   UNL     1     -10.290  16.075  65.561  1.00  0.00    -0.390 C  
BRANCH  12  13
HETATM   13  C   UNL     1     -10.295  17.260  66.493  1.00  0.00    -0.308 A  
HETATM   14  C   UNL     1     -10.064  17.087  67.866  1.00  0.00    -0.306 A  
HETATM   15  C   UNL     1     -10.053  18.186  68.727  1.00  0.00    -0.392 A  
HETATM   16  C   UNL     1     -10.272  19.467  68.226  1.00  0.00    -0.552 A  
HETATM   17  C   UNL     1     -10.503  19.652  66.864  1.00  0.00    -0.606 A  
HETATM   18  C   UNL     1     -10.516  18.554  66.002  1.00  0.00    -0.433 A  
ENDBRANCH  12  13
ENDBRANCH  11  12
ENDBRANCH   9  11
ENDBRANCH   6   9
TORSDOF 4
ENDMDL
MODEL       25
REMARK 921   NORMALIZED FREE ENERGY PREDICTED BY IDOCK:   -5.63 KCAL/MOL
REMARK 922        TOTAL FREE ENERGY PREDICTED BY IDOCK:   -7.57 KCAL/MOL
REMARK 923 INTER-LIGAND FREE ENERGY PREDICTED BY IDOCK:   -7.23 KCAL/MOL
REMARK 924 INTRA-LIGAND FREE ENERGY PREDICTED BY IDOCK:   -0.33 KCAL/MOL
REMARK 927      BINDING AFFINITY PREDICTED BY RF-SCORE:    0.00 PKD
ROOT
HETATM    1  O   UNL     1      -9.611   9.346  64.751  1.00  0.00    -0.446 OA 
HETATM    2  C   UNL     1     -10.159  10.594  64.753  1.00  0.00    -0.344 A  
HETATM    3  H   UNL     1      -9.406   8.896  65.562  1.00  0.00     0.000 HD 
HETATM    4  C   UNL     1     -10.460  11.253  63.566  1.00  0.00    -0.457 A  
HETATM    5  C   UNL     1     -11.004  12.539  63.618  1.00  0.00    -0.507 A  
HETATM    6  C   UNL     1     -11.248  13.163  64.853  1.00  0.00    -0.333 A  
HETATM    7  C   UNL     1     -10.404  11.193  65.985  1.00  0.00    -0.308 A  
HETATM    8  C   UNL     1     -10.949  12.480  66.038  1.00  0.00    -0.318 A  
ENDROOT
BRANCH   6   9
HETATM    9  C   UNL     1     -11.802  14.546  64.834  1.00  0.00    -0.416 C  
HETATM   10  O   UNL     1     -12.551  14.946  63.958  1.00  0.00    -0.832 OA 
BRANCH   9  11
HETATM   11  O   UNL     1     -11.334  15.271  65.878  1.00  0.00    -0.292 OA 
BRANCH  11  12
HETATM   12  C   UNL     1     -10.167  16.066  65.617  1.00  0.00    -0.386 C  
BRANCH  12  13
HETATM   13  C   UNL     1     -10.198  17.311  66.466  1.00  0.00    -0.325 A  
HETATM   14  C   UNL     1     -10.446  18.563  65.885  1.00  0.00    -0.379 A  
HETATM   15  C   UNL     1     -10.490  19.715  66.673  1.00  0.00    -0.610 A  
HETATM   16  C   UNL     1     -10.287  19.627  68.049  1.00  0.00    -0.579 A  
HETATM   17  C   UNL     1     -10.041  18.388  68.638  1.00  0.00    -0.407 A  
HETATM   18  C   UNL     1      -9.994  17.236  67.851  1.00  0.00    -0.297 A  
ENDBRANCH  12  13
ENDBRANCH  11  12
ENDBRANCH   9  11
ENDBRANCH   6   9
TORSDOF 4
ENDMDL
MODEL       26
REMARK 921   NORMALIZED FREE ENERGY PREDICTED BY IDOCK:   -5.62 KCAL/MOL
REMARK 922        TOTAL FREE ENERGY PREDICTED BY IDOCK:   -7.55 KCAL/MOL
REMARK 923 INTER-LIGAND FREE ENERGY PREDICTED BY IDOCK:   -7.15 KCAL/MOL
REMARK 924 INTRA-LIGAND FREE ENERGY PREDICTED BY IDOCK:   -0.40 KCAL/MOL
REMARK 927      BINDING AFFINITY PREDICTED BY RF-SCORE:    0.00 PKD
ROOT
HETATM    1  O   UNL     1     -14.095   8.725  73.313  1.00  0.00    -1.180 OA 
HETATM    2  C   UNL     1     -13.173   9.150  72.404  1.00  0.00    -0.444 A  
HETATM    3  H   UNL     1     -14.019   7.877  73.734  1.00  0.00     0.000 HD 
HETATM    4  C   UNL     1     -13.284  10.392  71.790  1.00  0.00    -0.529 A  
HETATM    5  C   UNL     1     -12.324  10.778  70.850  1.00  0.00    -0.497 A  
HETATM    6  C   UNL     1     -11.256   9.924  70.527  1.00  0.00    -0.399 A  
HETATM    7  C   UNL     1     -12.116   8.296  72.105  1.00  0.00    -0.425 A  
HETATM    8  C   UNL     1     -11.154   8.681  71.165  1.00  0.00    -0.324 A  
ENDROOT
BRANCH   6   9
HETATM    9  C   UNL     1     -10.285  10.385  69.495  1.00  0.00    -0.231 C  
HETATM   10  O   UNL     1      -9.136   9.976  69.441  1.00  0.00    -0.189 OA 
BRANCH   9  11
HETATM   11  O   UNL     1     -10.842  11.315  68.685  1.00  0.00    -0.180 OA 
BRANCH  11  12
HETATM   12  C   UNL     1     -11.062  10.912  67.325  1.00  0.00    -0.283 C  
BRANCH  12  13
HETATM   13  C   UNL     1     -11.508  12.097  66.507  1.00  0.00    -0.430 A  
HETATM   14  C   UNL     1     -11.752  13.335  67.121  1.00  0.00    -0.425 A  
HETATM   15  C   UNL     1     -12.150  14.437  66.362  1.00  0.00    -0.390 A  
HETATM   16  C   UNL     1     -12.307  14.314  64.983  1.00  0.00    -0.434 A  
HETATM   17  C   UNL     1     -12.068  13.090  64.361  1.00  0.00    -0.473 A  
HETATM   18  C   UNL     1     -11.672  11.986  65.119  1.00  0.00    -0.315 A  
ENDBRANCH  12  13
ENDBRANCH  11  12
ENDBRANCH   9  11
ENDBRANCH   6   9
TORSDOF 4
ENDMDL
MODEL       27
REMARK 921   NORMALIZED FREE ENERGY PREDICTED BY IDOCK:   -5.60 KCAL/MOL
REMARK 922        TOTAL FREE ENERGY PREDICTED BY IDOCK:   -7.53 KCAL/MOL
REMARK 923 INTER-LIGAND FREE ENERGY PREDICTED BY IDOCK:   -6.99 KCAL/MOL
REMARK 924 INTRA-LIGAND FREE ENERGY PREDICTED BY IDOCK:   -0.54 KCAL/MOL
REMARK 927      BINDING AFFINITY PREDICTED BY RF-SCORE:    0.00 PKD
ROOT
HETATM    1  O   UNL     1     -11.886  12.978  62.906  1.00  0.00    -0.790 OA 
HETATM    2  C   UNL     1     -11.836  13.438  64.188  1.00  0.00    -0.442 A  
HETATM    3  H   UNL     1     -12.171  12.094  62.710  1.00  0.00     0.000 HD 
HETATM    4  C   UNL     1     -11.420  14.733  64.476  1.00  0.00    -0.333 A  
HETATM    5  C   UNL     1     -11.367  15.154  65.807  1.00  0.00    -0.238 A  
HETATM    6  C   UNL     1     -11.730  14.283  66.847  1.00  0.00    -0.430 A  
HETATM    7  C   UNL     1     -12.210  12.566  65.205  1.00  0.00    -0.509 A  
HETATM    8  C   UNL     1     -12.158  12.986  66.538  1.00  0.00    -0.410 A  
ENDROOT
BRANCH   6   9
HETATM    9  C   UNL     1     -11.622  14.787  68.245  1.00  0.00    -0.323 C  
HETATM   10  O   UNL     1     -11.764  15.964  68.535  1.00  0.00    -0.383 OA 
BRANCH   9  11
HETATM   11  O   UNL     1     -11.317  13.784  69.101  1.00  0.00    -0.255 OA 
BRANCH  11  12
HETATM   12  C   UNL     1     -12.168  13.660  70.252  1.00  0.00    -0.353 C  
BRANCH  12  13
HETATM   13  C   UNL     1     -12.284  12.210  70.647  1.00  0.00    -0.392 A  
HETATM   14  C   UNL     1     -13.152  11.820  71.677  1.00  0.00    -0.443 A  
HETATM   15  C   UNL     1     -13.271  10.475  72.033  1.00  0.00    -0.483 A  
HETATM   16  C   UNL     1     -12.526   9.507  71.363  1.00  0.00    -0.450 A  
HETATM   17  C   UNL     1     -11.660   9.882  70.337  1.00  0.00    -0.356 A  
HETATM   18  C   UNL     1     -11.538  11.227  69.981  1.00  0.00    -0.404 A  
ENDBRANCH  12  13
ENDBRANCH  11  12
ENDBRANCH   9  11
ENDBRANCH   6   9
TORSDOF 4
ENDMDL
MODEL       28
REMARK 921   NORMALIZED FREE ENERGY PREDICTED BY IDOCK:   -5.59 KCAL/MOL
REMARK 922        TOTAL FREE ENERGY PREDICTED BY IDOCK:   -7.51 KCAL/MOL
REMARK 923 INTER-LIGAND FREE ENERGY PREDICTED BY IDOCK:   -6.83 KCAL/MOL
REMARK 924 INTRA-LIGAND FREE ENERGY PREDICTED BY IDOCK:   -0.68 KCAL/MOL
REMARK 927      BINDING AFFINITY PREDICTED BY RF-SCORE:    0.00 PKD
ROOT
HETATM    1  O   UNL     1     -12.039  11.232  62.980  1.00  0.00    -0.869 OA 
HETATM    2  C   UNL     1     -11.633  12.369  63.613  1.00  0.00    -0.499 A  
HETATM    3  H   UNL     1     -12.867  11.192  62.517  1.00  0.00     0.000 HD 
HETATM    4  C   UNL     1     -10.421  12.427  64.290  1.00  0.00    -0.389 A  
HETATM    5  C   UNL     1     -10.057  13.609  64.939  1.00  0.00    -0.293 A  
HETATM    6  C   UNL     1     -10.902  14.731  64.910  1.00  0.00    -0.433 A  
HETATM    7  C   UNL     1     -12.478  13.473  63.564  1.00  0.00    -0.234 A  
HETATM    8  C   UNL     1     -12.115  14.658  64.213  1.00  0.00    -0.437 A  
ENDROOT
BRANCH   6   9
HETATM    9  C   UNL     1     -10.466  15.949  65.649  1.00  0.00    -0.392 C  
HETATM   10  O   UNL     1     -10.571  17.074  65.186  1.00  0.00    -0.688 OA 
BRANCH   9  11
HETATM   11  O   UNL     1      -9.924  15.624  66.846  1.00  0.00    -0.239 OA 
BRANCH  11  12
HETATM   12  C   UNL     1     -10.627  16.100  68.003  1.00  0.00    -0.304 C  
BRANCH  12  13
HETATM   13  C   UNL     1     -11.172  14.932  68.785  1.00  0.00    -0.288 A  
HETATM   14  C   UNL     1     -11.986  15.144  69.908  1.00  0.00    -0.372 A  
HETATM   15  C   UNL     1     -12.503  14.062  70.623  1.00  0.00    -0.435 A  
HETATM   16  C   UNL     1     -12.213  12.759  70.224  1.00  0.00    -0.351 A  
HETATM   17  C   UNL     1     -11.406  12.535  69.110  1.00  0.00    -0.331 A  
HETATM   18  C   UNL     1     -10.886  13.616  68.395  1.00  0.00    -0.274 A  
ENDBRANCH  12  13
ENDBRANCH  11  12
ENDBRANCH   9  11
ENDBRANCH   6   9
TORSDOF 4
ENDMDL
MODEL       29
REMARK 921   NORMALIZED FREE ENERGY PREDICTED BY IDOCK:   -5.58 KCAL/MOL
REMARK 922        TOTAL FREE ENERGY PREDICTED BY IDOCK:   -7.51 KCAL/MOL
REMARK 923 INTER-LIGAND FREE ENERGY PREDICTED BY IDOCK:   -6.91 KCAL/MOL
REMARK 924 INTRA-LIGAND FREE ENERGY PREDICTED BY IDOCK:   -0.60 KCAL/MOL
REMARK 927      BINDING AFFINITY PREDICTED BY RF-SCORE:    0.00 PKD
ROOT
HETATM    1  O   UNL     1     -11.904  11.246  62.909  1.00  0.00    -0.852 OA 
HETATM    2  C   UNL     1     -11.662  12.146  63.903  1.00  0.00    -0.458 A  
HETATM    3  H   UNL     1     -11.601  10.348  62.970  1.00  0.00     0.000 HD 
HETATM    4  C   UNL     1     -12.107  13.460  63.813  1.00  0.00    -0.516 A  
HETATM    5  C   UNL     1     -11.820  14.351  64.850  1.00  0.00    -0.419 A  
HETATM    6  C   UNL     1     -11.091  13.929  65.974  1.00  0.00    -0.289 A  
HETATM    7  C   UNL     1     -10.949  11.707  65.014  1.00  0.00    -0.334 A  
HETATM    8  C   UNL     1     -10.661  12.598  66.054  1.00  0.00    -0.294 A  
ENDROOT
BRANCH   6   9
HETATM    9  C   UNL     1     -10.793  14.938  67.029  1.00  0.00    -0.315 C  
HETATM   10  O   UNL     1     -10.647  16.125  66.784  1.00  0.00    -0.309 OA 
BRANCH   9  11
HETATM   11  O   UNL     1     -10.680  14.353  68.244  1.00  0.00    -0.233 OA 
BRANCH  11  12
HETATM   12  C   UNL     1     -11.758  14.596  69.161  1.00  0.00    -0.309 C  
BRANCH  12  13
HETATM   13  C   UNL     1     -12.125  13.316  69.868  1.00  0.00    -0.377 A  
HETATM   14  C   UNL     1     -11.821  12.073  69.293  1.00  0.00    -0.377 A  
HETATM   15  C   UNL     1     -12.147  10.887  69.955  1.00  0.00    -0.428 A  
HETATM   16  C   UNL     1     -12.779  10.932  71.195  1.00  0.00    -0.530 A  
HETATM   17  C   UNL     1     -13.086  12.161  71.777  1.00  0.00    -0.457 A  
HETATM   18  C   UNL     1     -12.762  13.347  71.116  1.00  0.00    -0.411 A  
ENDBRANCH  12  13
ENDBRANCH  11  12
ENDBRANCH   9  11
ENDBRANCH   6   9
TORSDOF 4
ENDMDL
MODEL       30
REMARK 921   NORMALIZED FREE ENERGY PREDICTED BY IDOCK:   -5.56 KCAL/MOL
REMARK 922        TOTAL FREE ENERGY PREDICTED BY IDOCK:   -7.48 KCAL/MOL
REMARK 923 INTER-LIGAND FREE ENERGY PREDICTED BY IDOCK:   -7.10 KCAL/MOL
REMARK 924 INTRA-LIGAND FREE ENERGY PREDICTED BY IDOCK:   -0.38 KCAL/MOL
REMARK 927      BINDING AFFINITY PREDICTED BY RF-SCORE:    0.00 PKD
ROOT
HETATM    1  O   UNL     1      -9.751   8.303  66.008  1.00  0.00    -0.431 OA 
HETATM    2  C   UNL     1     -10.271   9.518  66.342  1.00  0.00    -0.232 A  
HETATM    3  H   UNL     1      -9.393   8.139  65.144  1.00  0.00     0.000 HD 
HETATM    4  C   UNL     1     -10.794   9.757  67.607  1.00  0.00    -0.301 A  
HETATM    5  C   UNL     1     -11.333  11.014  67.897  1.00  0.00    -0.381 A  
HETATM    6  C   UNL     1     -11.346  12.028  66.925  1.00  0.00    -0.400 A  
HETATM    7  C   UNL     1     -10.265  10.513  65.370  1.00  0.00    -0.340 A  
HETATM    8  C   UNL     1     -10.804  11.772  65.659  1.00  0.00    -0.342 A  
ENDROOT
BRANCH   6   9
HETATM    9  C   UNL     1     -11.963  13.334  67.291  1.00  0.00    -0.343 C  
HETATM   10  O   UNL     1     -12.224  14.195  66.467  1.00  0.00    -0.445 OA 
BRANCH   9  11
HETATM   11  O   UNL     1     -12.146  13.426  68.629  1.00  0.00    -0.346 OA 
BRANCH  11  12
HETATM   12  C   UNL     1     -11.398  14.455  69.295  1.00  0.00    -0.284 C  
BRANCH  12  13
HETATM   13  C   UNL     1     -11.948  14.669  70.683  1.00  0.00    -0.380 A  
HETATM   14  C   UNL     1     -12.800  13.718  71.265  1.00  0.00    -0.434 A  
HETATM   15  C   UNL     1     -13.298  13.909  72.556  1.00  0.00    -0.656 A  
HETATM   16  C   UNL     1     -12.949  15.049  73.277  1.00  0.00    -0.642 A  
HETATM   17  C   UNL     1     -12.103  16.000  72.709  1.00  0.00    -0.635 A  
HETATM   18  C   UNL     1     -11.606  15.812  71.418  1.00  0.00    -0.511 A  
ENDBRANCH  12  13
ENDBRANCH  11  12
ENDBRANCH   9  11
ENDBRANCH   6   9
TORSDOF 4
ENDMDL
MODEL       31
REMARK 921   NORMALIZED FREE ENERGY PREDICTED BY IDOCK:   -5.55 KCAL/MOL
REMARK 922        TOTAL FREE ENERGY PREDICTED BY IDOCK:   -7.47 KCAL/MOL
REMARK 923 INTER-LIGAND FREE ENERGY PREDICTED BY IDOCK:   -6.69 KCAL/MOL
REMARK 924 INTRA-LIGAND FREE ENERGY PREDICTED BY IDOCK:   -0.78 KCAL/MOL
REMARK 927      BINDING AFFINITY PREDICTED BY RF-SCORE:    0.00 PKD
ROOT
HETATM    1  O   UNL     1      -7.847  18.451  68.757  1.00  0.00    -0.306 OA 
HETATM    2  C   UNL     1      -8.600  17.835  67.803  1.00  0.00    -0.237 A  
HETATM    3  H   UNL     1      -8.023  19.345  69.025  1.00  0.00     0.000 HD 
HETATM    4  C   UNL     1      -8.342  16.527  67.411  1.00  0.00    -0.188 A  
HETATM    5  C   UNL     1      -9.130  15.943  66.416  1.00  0.00    -0.355 A  
HETATM    6  C   UNL     1     -10.174  16.666  65.815  1.00  0.00    -0.328 A  
HETATM    7  C   UNL     1      -9.637  18.562  67.226  1.00  0.00    -0.305 A  
HETATM    8  C   UNL     1     -10.427  17.980  66.230  1.00  0.00    -0.340 A  
ENDROOT
BRANCH   6   9
HETATM    9  C   UNL     1     -10.955  15.993  64.739  1.00  0.00    -0.356 C  
HETATM   10  O   UNL     1     -11.578  16.612  63.891  1.00  0.00    -1.204 OA 
BRANCH   9  11
HETATM   11  O   UNL     1     -10.898  14.647  64.866  1.00  0.00    -0.388 OA 
BRANCH  11  12
HETATM   12  C   UNL     1     -12.099  14.009  65.328  1.00  0.00    -0.408 C  
BRANCH  12  13
HETATM   13  C   UNL     1     -11.811  13.230  66.586  1.00  0.00    -0.447 A  
HETATM   14  C   UNL     1     -11.480  11.868  66.520  1.00  0.00    -0.381 A  
HETATM   15  C   UNL     1     -11.198  11.150  67.685  1.00  0.00    -0.364 A  
HETATM   16  C   UNL     1     -11.244  11.785  68.924  1.00  0.00    -0.311 A  
HETATM   17  C   UNL     1     -11.571  13.138  69.002  1.00  0.00    -0.360 A  
HETATM   18  C   UNL     1     -11.855  13.856  67.840  1.00  0.00    -0.413 A  
ENDBRANCH  12  13
ENDBRANCH  11  12
ENDBRANCH   9  11
ENDBRANCH   6   9
TORSDOF 4
ENDMDL
MODEL       32
REMARK 921   NORMALIZED FREE ENERGY PREDICTED BY IDOCK:   -5.54 KCAL/MOL
REMARK 922        TOTAL FREE ENERGY PREDICTED BY IDOCK:   -7.45 KCAL/MOL
REMARK 923 INTER-LIGAND FREE ENERGY PREDICTED BY IDOCK:   -6.81 KCAL/MOL
REMARK 924 INTRA-LIGAND FREE ENERGY PREDICTED BY IDOCK:   -0.64 KCAL/MOL
REMARK 927      BINDING AFFINITY PREDICTED BY RF-SCORE:    0.00 PKD
ROOT
HETATM    1  O   UNL     1     -12.448  13.725  63.121  1.00  0.00    -1.089 OA 
HETATM    2  C   UNL     1     -12.054  14.067  64.380  1.00  0.00    -0.458 A  
HETATM    3  H   UNL     1     -12.271  14.288  62.377  1.00  0.00     0.000 HD 
HETATM    4  C   UNL     1     -12.313  13.242  65.468  1.00  0.00    -0.533 A  
HETATM    5  C   UNL     1     -11.906  13.644  66.743  1.00  0.00    -0.452 A  
HETATM    6  C   UNL     1     -11.239  14.867  66.928  1.00  0.00    -0.343 A  
HETATM    7  C   UNL     1     -11.385  15.276  64.543  1.00  0.00    -0.307 A  
HETATM    8  C   UNL     1     -10.976  15.680  65.818  1.00  0.00    -0.250 A  
ENDROOT
BRANCH   6   9
HETATM    9  C   UNL     1     -10.859  15.247  68.317  1.00  0.00    -0.262 C  
HETATM   10  O   UNL     1     -10.296  14.480  69.081  1.00  0.00    -0.235 OA 
BRANCH   9  11
HETATM   11  O   UNL     1     -11.252  16.511  68.600  1.00  0.00    -0.353 OA 
BRANCH  11  12
HETATM   12  C   UNL     1     -10.320  17.306  69.348  1.00  0.00    -0.158 C  
BRANCH  12  13
HETATM   13  C   UNL     1      -9.696  18.343  68.449  1.00  0.00    -0.379 A  
HETATM   14  C   UNL     1      -8.393  18.169  67.959  1.00  0.00    -0.268 A  
HETATM   15  C   UNL     1      -7.820  19.121  67.113  1.00  0.00    -0.269 A  
HETATM   16  C   UNL     1      -8.543  20.255  66.748  1.00  0.00    -0.334 A  
HETATM   17  C   UNL     1      -9.839  20.439  67.228  1.00  0.00    -0.597 A  
HETATM   18  C   UNL     1     -10.412  19.489  68.075  1.00  0.00    -0.528 A  
ENDBRANCH  12  13
ENDBRANCH  11  12
ENDBRANCH   9  11
ENDBRANCH   6   9
TORSDOF 4
ENDMDL
MODEL       33
REMARK 921   NORMALIZED FREE ENERGY PREDICTED BY IDOCK:   -5.53 KCAL/MOL
REMARK 922        TOTAL FREE ENERGY PREDICTED BY IDOCK:   -7.45 KCAL/MOL
REMARK 923 INTER-LIGAND FREE ENERGY PREDICTED BY IDOCK:   -6.87 KCAL/MOL
REMARK 924 INTRA-LIGAND FREE ENERGY PREDICTED BY IDOCK:   -0.58 KCAL/MOL
REMARK 927      BINDING AFFINITY PREDICTED BY RF-SCORE:    0.00 PKD
ROOT
HETATM    1  O   UNL     1     -11.440  16.507  63.762  1.00  0.00    -1.615 OA 
HETATM    2  C   UNL     1     -11.550  15.655  64.820  1.00  0.00    -0.218 A  
HETATM    3  H   UNL     1     -11.857  16.318  62.930  1.00  0.00     0.000 HD 
HETATM    4  C   UNL     1     -10.939  15.931  66.037  1.00  0.00    -0.139 A  
HETATM    5  C   UNL     1     -11.065  15.019  67.088  1.00  0.00    -0.332 A  
HETATM    6  C   UNL     1     -11.800  13.834  66.922  1.00  0.00    -0.447 A  
HETATM    7  C   UNL     1     -12.291  14.491  64.640  1.00  0.00    -0.419 A  
HETATM    8  C   UNL     1     -12.418  13.577  65.691  1.00  0.00    -0.528 A  
ENDROOT
BRANCH   6   9
HETATM    9  C   UNL     1     -11.868  12.891  68.073  1.00  0.00    -0.343 C  
HETATM   10  O   UNL     1     -11.680  13.243  69.227  1.00  0.00    -0.288 OA 
BRANCH   9  11
HETATM   11  O   UNL     1     -12.125  11.630  67.654  1.00  0.00    -0.615 OA 
BRANCH  11  12
HETATM   12  C   UNL     1     -11.291  10.602  68.211  1.00  0.00    -0.289 C  
BRANCH  12  13
HETATM   13  C   UNL     1     -10.485   9.951  67.115  1.00  0.00    -0.305 A  
HETATM   14  C   UNL     1     -10.101  10.683  65.982  1.00  0.00    -0.308 A  
HETATM   15  C   UNL     1      -9.342  10.084  64.974  1.00  0.00    -0.314 A  
HETATM   16  C   UNL     1      -8.959   8.749  65.089  1.00  0.00    -0.152 A  
HETATM   17  C   UNL     1      -9.333   8.011  66.211  1.00  0.00    -0.246 A  
HETATM   18  C   UNL     1     -10.094   8.608  67.218  1.00  0.00    -0.310 A  
ENDBRANCH  12  13
ENDBRANCH  11  12
ENDBRANCH   9  11
ENDBRANCH   6   9
TORSDOF 4
ENDMDL
MODEL       34
REMARK 921   NORMALIZED FREE ENERGY PREDICTED BY IDOCK:   -5.52 KCAL/MOL
REMARK 922        TOTAL FREE ENERGY PREDICTED BY IDOCK:   -7.43 KCAL/MOL
REMARK 923 INTER-LIGAND FREE ENERGY PREDICTED BY IDOCK:   -6.93 KCAL/MOL
REMARK 924 INTRA-LIGAND FREE ENERGY PREDICTED BY IDOCK:   -0.50 KCAL/MOL
REMARK 927      BINDING AFFINITY PREDICTED BY RF-SCORE:    0.00 PKD
ROOT
HETATM    1  O   UNL     1     -11.946  11.328  67.386  1.00  0.00    -0.581 OA 
HETATM    2  C   UNL     1     -11.658  12.531  66.815  1.00  0.00    -0.382 A  
HETATM    3  H   UNL     1     -12.553  10.720  66.980  1.00  0.00     0.000 HD 
HETATM    4  C   UNL     1     -10.770  13.419  67.410  1.00  0.00    -0.269 A  
HETATM    5  C   UNL     1     -10.519  14.649  66.796  1.00  0.00    -0.277 A  
HETATM    6  C   UNL     1     -11.155  14.989  65.590  1.00  0.00    -0.349 A  
HETATM    7  C   UNL     1     -12.288  12.846  65.615  1.00  0.00    -0.482 A  
HETATM    8  C   UNL     1     -12.038  14.077  64.999  1.00  0.00    -0.427 A  
ENDROOT
BRANCH   6   9
HETATM    9  C   UNL     1     -10.865  16.329  65.006  1.00  0.00    -0.320 C  
HETATM   10  O   UNL     1     -11.489  16.785  64.061  1.00  0.00    -1.198 OA 
BRANCH   9  11
HETATM   11  O   UNL     1      -9.823  16.919  65.635  1.00  0.00    -0.549 OA 
BRANCH  11  12
HETATM   12  C   UNL     1     -10.062  18.241  66.142  1.00  0.00    -0.346 C  
BRANCH  12  13
HETATM   13  C   UNL     1      -8.978  18.616  67.120  1.00  0.00    -0.288 A  
HETATM   14  C   UNL     1      -8.406  17.645  67.956  1.00  0.00    -0.246 A  
HETATM   15  C   UNL     1      -7.391  17.990  68.852  1.00  0.00    -0.249 A  
HETATM   16  C   UNL     1      -6.938  19.305  68.920  1.00  0.00    -0.373 A  
HETATM   17  C   UNL     1      -7.498  20.279  68.094  1.00  0.00    -0.220 A  
HETATM   18  C   UNL     1      -8.514  19.937  67.200  1.00  0.00    -0.376 A  
ENDBRANCH  12  13
ENDBRANCH  11  12
ENDBRANCH   9  11
ENDBRANCH   6   9
TORSDOF 4
ENDMDL
MODEL       35
REMARK 921   NORMALIZED FREE ENERGY PREDICTED BY IDOCK:   -5.46 KCAL/MOL
REMARK 922        TOTAL FREE ENERGY PREDICTED BY IDOCK:   -7.36 KCAL/MOL
REMARK 923 INTER-LIGAND FREE ENERGY PREDICTED BY IDOCK:   -6.81 KCAL/MOL
REMARK 924 INTRA-LIGAND FREE ENERGY PREDICTED BY IDOCK:   -0.55 KCAL/MOL
REMARK 927      BINDING AFFINITY PREDICTED BY RF-SCORE:    0.00 PKD
ROOT
HETATM    1  O   UNL     1      -7.906  21.366  67.215  1.00  0.00    -0.703 OA 
HETATM    2  C   UNL     1      -8.513  20.200  66.856  1.00  0.00    -0.314 A  
HETATM    3  H   UNL     1      -8.360  22.198  67.157  1.00  0.00     0.000 HD 
HETATM    4  C   UNL     1      -7.848  18.983  66.942  1.00  0.00    -0.256 A  
HETATM    5  C   UNL     1      -8.505  17.815  66.546  1.00  0.00    -0.288 A  
HETATM    6  C   UNL     1      -9.824  17.865  66.065  1.00  0.00    -0.180 A  
HETATM    7  C   UNL     1      -9.823  20.268  66.393  1.00  0.00    -0.502 A  
HETATM    8  C   UNL     1     -10.483  19.100  65.996  1.00  0.00    -0.546 A  
ENDROOT
BRANCH   6   9
HETATM    9  C   UNL     1     -10.455  16.587  65.631  1.00  0.00    -0.324 C  
HETATM   10  O   UNL     1     -11.064  16.476  64.579  1.00  0.00    -0.821 OA 
BRANCH   9  11
HETATM   11  O   UNL     1     -10.285  15.620  66.562  1.00  0.00    -0.264 OA 
BRANCH  11  12
HETATM   12  C   UNL     1     -11.455  14.859  66.898  1.00  0.00    -0.313 C  
BRANCH  12  13
HETATM   13  C   UNL     1     -11.633  14.830  68.395  1.00  0.00    -0.350 A  
HETATM   14  C   UNL     1     -12.060  13.659  69.039  1.00  0.00    -0.348 A  
HETATM   15  C   UNL     1     -12.210  13.628  70.427  1.00  0.00    -0.434 A  
HETATM   16  C   UNL     1     -11.935  14.764  71.184  1.00  0.00    -0.392 A  
HETATM   17  C   UNL     1     -11.509  15.933  70.556  1.00  0.00    -0.412 A  
HETATM   18  C   UNL     1     -11.360  15.967  69.168  1.00  0.00    -0.366 A  
ENDBRANCH  12  13
ENDBRANCH  11  12
ENDBRANCH   9  11
ENDBRANCH   6   9
TORSDOF 4
ENDMDL
MODEL       36
REMARK 921   NORMALIZED FREE ENERGY PREDICTED BY IDOCK:   -5.45 KCAL/MOL
REMARK 922        TOTAL FREE ENERGY PREDICTED BY IDOCK:   -7.34 KCAL/MOL
REMARK 923 INTER-LIGAND FREE ENERGY PREDICTED BY IDOCK:   -6.82 KCAL/MOL
REMARK 924 INTRA-LIGAND FREE ENERGY PREDICTED BY IDOCK:   -0.52 KCAL/MOL
REMARK 927      BINDING AFFINITY PREDICTED BY RF-SCORE:    0.00 PKD
ROOT
HETATM    1  O   UNL     1      -9.872  18.410  65.656  1.00  0.00    -0.440 OA 
HETATM    2  C   UNL     1     -10.282  17.214  66.167  1.00  0.00    -0.334 A  
HETATM    3  H   UNL     1      -9.693  18.516  64.730  1.00  0.00     0.000 HD 
HETATM    4  C   UNL     1     -10.543  17.059  67.523  1.00  0.00    -0.310 A  
HETATM    5  C   UNL     1     -10.945  15.810  68.003  1.00  0.00    -0.330 A  
HETATM    6  C   UNL     1     -11.085  14.719  67.129  1.00  0.00    -0.333 A  
HETATM    7  C   UNL     1     -10.426  16.149  65.284  1.00  0.00    -0.356 A  
HETATM    8  C   UNL     1     -10.828  14.897  65.763  1.00  0.00    -0.343 A  
ENDROOT
BRANCH   6   9
HETATM    9  C   UNL     1     -11.487  13.408  67.712  1.00  0.00    -0.316 C  
HETATM   10  O   UNL     1     -12.128  12.578  67.088  1.00  0.00    -0.504 OA 
BRANCH   9  11
HETATM   11  O   UNL     1     -11.078  13.303  68.998  1.00  0.00    -0.255 OA 
BRANCH  11  12
HETATM   12  C   UNL     1     -12.031  12.745  69.915  1.00  0.00    -0.298 C  
BRANCH  12  13
HETATM   13  C   UNL     1     -12.346  13.749  70.996  1.00  0.00    -0.452 A  
HETATM   14  C   UNL     1     -11.546  14.888  71.164  1.00  0.00    -0.347 A  
HETATM   15  C   UNL     1     -11.847  15.825  72.155  1.00  0.00    -0.593 A  
HETATM   16  C   UNL     1     -12.948  15.634  72.986  1.00  0.00    -0.617 A  
HETATM   17  C   UNL     1     -13.751  14.505  72.828  1.00  0.00    -0.466 A  
HETATM   18  C   UNL     1     -13.451  13.567  71.839  1.00  0.00    -0.528 A  
ENDBRANCH  12  13
ENDBRANCH  11  12
ENDBRANCH   9  11
ENDBRANCH   6   9
TORSDOF 4
ENDMDL
MODEL       37
REMARK 921   NORMALIZED FREE ENERGY PREDICTED BY IDOCK:   -5.44 KCAL/MOL
REMARK 922        TOTAL FREE ENERGY PREDICTED BY IDOCK:   -7.34 KCAL/MOL
REMARK 923 INTER-LIGAND FREE ENERGY PREDICTED BY IDOCK:   -6.97 KCAL/MOL
REMARK 924 INTRA-LIGAND FREE ENERGY PREDICTED BY IDOCK:   -0.37 KCAL/MOL
REMARK 927      BINDING AFFINITY PREDICTED BY RF-SCORE:    0.00 PKD
ROOT
HETATM    1  O   UNL     1      -9.161   9.561  63.461  1.00  0.00    -0.403 OA 
HETATM    2  C   UNL     1      -9.904  10.516  64.089  1.00  0.00    -0.337 A  
HETATM    3  H   UNL     1      -9.006   9.592  62.525  1.00  0.00     0.000 HD 
HETATM    4  C   UNL     1     -10.131  10.471  65.459  1.00  0.00    -0.349 A  
HETATM    5  C   UNL     1     -10.914  11.463  66.055  1.00  0.00    -0.286 A  
HETATM    6  C   UNL     1     -11.468  12.498  65.282  1.00  0.00    -0.374 A  
HETATM    7  C   UNL     1     -10.435  11.539  63.309  1.00  0.00    -0.421 A  
HETATM    8  C   UNL     1     -11.219  12.533  63.904  1.00  0.00    -0.496 A  
ENDROOT
BRANCH   6   9
HETATM    9  C   UNL     1     -12.318  13.505  65.977  1.00  0.00    -0.433 C  
HETATM   10  O   UNL     1     -13.127  14.204  65.388  1.00  0.00    -0.743 OA 
BRANCH   9  11
HETATM   11  O   UNL     1     -12.037  13.549  67.300  1.00  0.00    -0.368 OA 
BRANCH  11  12
HETATM   12  C   UNL     1     -11.635  14.827  67.814  1.00  0.00    -0.357 C  
BRANCH  12  13
HETATM   13  C   UNL     1     -11.843  14.865  69.307  1.00  0.00    -0.350 A  
HETATM   14  C   UNL     1     -12.288  13.725  69.993  1.00  0.00    -0.364 A  
HETATM   15  C   UNL     1     -12.466  13.755  71.378  1.00  0.00    -0.404 A  
HETATM   16  C   UNL     1     -12.201  14.923  72.090  1.00  0.00    -0.428 A  
HETATM   17  C   UNL     1     -11.757  16.062  71.420  1.00  0.00    -0.536 A  
HETATM   18  C   UNL     1     -11.581  16.034  70.036  1.00  0.00    -0.316 A  
ENDBRANCH  12  13
ENDBRANCH  11  12
ENDBRANCH   9  11
ENDBRANCH   6   9
TORSDOF 4
ENDMDL
MODEL       38
REMARK 921   NORMALIZED FREE ENERGY PREDICTED BY IDOCK:   -5.42 KCAL/MOL
REMARK 922        TOTAL FREE ENERGY PREDICTED BY IDOCK:   -7.30 KCAL/MOL
REMARK 923 INTER-LIGAND FREE ENERGY PREDICTED BY IDOCK:   -6.43 KCAL/MOL
REMARK 924 INTRA-LIGAND FREE ENERGY PREDICTED BY IDOCK:   -0.87 KCAL/MOL
REMARK 927      BINDING AFFINITY PREDICTED BY RF-SCORE:    0.00 PKD
ROOT
HETATM    1  O   UNL     1     -13.948  13.754  72.821  1.00  0.00    -0.714 OA 
HETATM    2  C   UNL     1     -13.255  13.100  71.847  1.00  0.00    -0.431 A  
HETATM    3  H   UNL     1     -14.397  13.281  73.511  1.00  0.00     0.000 HD 
HETATM    4  C   UNL     1     -12.598  13.793  70.837  1.00  0.00    -0.428 A  
HETATM    5  C   UNL     1     -11.915  13.079  69.850  1.00  0.00    -0.381 A  
HETATM    6  C   UNL     1     -11.888  11.674  69.873  1.00  0.00    -0.434 A  
HETATM    7  C   UNL     1     -13.230  11.710  71.892  1.00  0.00    -0.475 A  
HETATM    8  C   UNL     1     -12.546  10.992  70.905  1.00  0.00    -0.488 A  
ENDROOT
BRANCH   6   9
HETATM    9  C   UNL     1     -11.167  10.975  68.773  1.00  0.00    -0.266 C  
HETATM   10  O   UNL     1     -11.669  10.771  67.680  1.00  0.00    -0.538 OA 
BRANCH   9  11
HETATM   11  O   UNL     1      -9.934  10.585  69.172  1.00  0.00    -0.204 OA 
BRANCH  11  12
HETATM   12  C   UNL     1      -9.644   9.185  69.037  1.00  0.00    -0.156 C  
BRANCH  12  13
HETATM   13  C   UNL     1     -10.164   8.439  70.240  1.00  0.00    -0.204 A  
HETATM   14  C   UNL     1     -11.016   7.336  70.080  1.00  0.00    -0.273 A  
HETATM   15  C   UNL     1     -11.485   6.635  71.193  1.00  0.00    -0.370 A  
HETATM   16  C   UNL     1     -11.108   7.028  72.475  1.00  0.00    -0.310 A  
HETATM   17  C   UNL     1     -10.261   8.122  72.647  1.00  0.00    -0.388 A  
HETATM   18  C   UNL     1      -9.793   8.825  71.535  1.00  0.00    -0.371 A  
ENDBRANCH  12  13
ENDBRANCH  11  12
ENDBRANCH   9  11
ENDBRANCH   6   9
TORSDOF 4
ENDMDL
MODEL       39
REMARK 921   NORMALIZED FREE ENERGY PREDICTED BY IDOCK:   -5.41 KCAL/MOL
REMARK 922        TOTAL FREE ENERGY PREDICTED BY IDOCK:   -7.29 KCAL/MOL
REMARK 923 INTER-LIGAND FREE ENERGY PREDICTED BY IDOCK:   -6.92 KCAL/MOL
REMARK 924 INTRA-LIGAND FREE ENERGY PREDICTED BY IDOCK:   -0.37 KCAL/MOL
REMARK 927      BINDING AFFINITY PREDICTED BY RF-SCORE:    0.00 PKD
ROOT
HETATM    1  O   UNL     1     -11.567  10.079  67.894  1.00  0.00    -0.629 OA 
HETATM    2  C   UNL     1     -11.729  11.356  68.343  1.00  0.00    -0.303 A  
HETATM    3  H   UNL     1     -11.556   9.342  68.493  1.00  0.00     0.000 HD 
HETATM    4  C   UNL     1     -11.744  12.434  67.466  1.00  0.00    -0.425 A  
HETATM    5  C   UNL     1     -11.895  13.726  67.975  1.00  0.00    -0.408 A  
HETATM    6  C   UNL     1     -12.031  13.939  69.357  1.00  0.00    -0.402 A  
HETATM    7  C   UNL     1     -11.873  11.547  69.713  1.00  0.00    -0.429 A  
HETATM    8  C   UNL     1     -12.025  12.840  70.225  1.00  0.00    -0.358 A  
ENDROOT
BRANCH   6   9
HETATM    9  C   UNL     1     -12.158  15.345  69.833  1.00  0.00    -0.355 C  
HETATM   10  O   UNL     1     -12.681  15.636  70.897  1.00  0.00    -0.451 OA 
BRANCH   9  11
HETATM   11  O   UNL     1     -11.657  16.214  68.924  1.00  0.00    -0.357 OA 
BRANCH  11  12
HETATM   12  C   UNL     1     -10.345  16.725  69.202  1.00  0.00    -0.326 C  
BRANCH  12  13
HETATM   13  C   UNL     1     -10.031  17.863  68.263  1.00  0.00    -0.360 A  
HETATM   14  C   UNL     1      -9.105  18.852  68.626  1.00  0.00    -0.386 A  
HETATM   15  C   UNL     1      -8.804  19.897  67.751  1.00  0.00    -0.390 A  
HETATM   16  C   UNL     1      -9.423  19.964  66.505  1.00  0.00    -0.516 A  
HETATM   17  C   UNL     1     -10.345  18.987  66.132  1.00  0.00    -0.537 A  
HETATM   18  C   UNL     1     -10.649  17.942  67.007  1.00  0.00    -0.287 A  
ENDBRANCH  12  13
ENDBRANCH  11  12
ENDBRANCH   9  11
ENDBRANCH   6   9
TORSDOF 4
ENDMDL
MODEL       40
REMARK 921   NORMALIZED FREE ENERGY PREDICTED BY IDOCK:   -5.39 KCAL/MOL
REMARK 922        TOTAL FREE ENERGY PREDICTED BY IDOCK:   -7.27 KCAL/MOL
REMARK 923 INTER-LIGAND FREE ENERGY PREDICTED BY IDOCK:   -6.55 KCAL/MOL
REMARK 924 INTRA-LIGAND FREE ENERGY PREDICTED BY IDOCK:   -0.72 KCAL/MOL
REMARK 927      BINDING AFFINITY PREDICTED BY RF-SCORE:    0.00 PKD
ROOT
HETATM    1  O   UNL     1     -13.467  13.998  73.002  1.00  0.00    -0.655 OA 
HETATM    2  C   UNL     1     -12.773  14.519  71.951  1.00  0.00    -0.338 A  
HETATM    3  H   UNL     1     -13.868  13.139  72.952  1.00  0.00     0.000 HD 
HETATM    4  C   UNL     1     -12.185  15.777  72.025  1.00  0.00    -0.548 A  
HETATM    5  C   UNL     1     -11.499  16.276  70.915  1.00  0.00    -0.336 A  
HETATM    6  C   UNL     1     -11.400  15.520  69.735  1.00  0.00    -0.325 A  
HETATM    7  C   UNL     1     -12.675  13.751  70.795  1.00  0.00    -0.361 A  
HETATM    8  C   UNL     1     -11.988  14.250  69.683  1.00  0.00    -0.387 A  
ENDROOT
BRANCH   6   9
HETATM    9  C   UNL     1     -10.680  16.125  68.580  1.00  0.00    -0.295 C  
HETATM   10  O   UNL     1     -10.970  17.219  68.121  1.00  0.00    -0.347 OA 
BRANCH   9  11
HETATM   11  O   UNL     1      -9.719  15.293  68.115  1.00  0.00    -0.209 OA 
BRANCH  11  12
HETATM   12  C   UNL     1      -9.500  15.317  66.697  1.00  0.00    -0.259 C  
BRANCH  12  13
HETATM   13  C   UNL     1     -10.488  14.406  66.012  1.00  0.00    -0.307 A  
HETATM   14  C   UNL     1     -11.239  14.863  64.919  1.00  0.00    -0.415 A  
HETATM   15  C   UNL     1     -12.142  14.015  64.276  1.00  0.00    -0.476 A  
HETATM   16  C   UNL     1     -12.304  12.703  64.717  1.00  0.00    -0.556 A  
HETATM   17  C   UNL     1     -11.564  12.238  65.802  1.00  0.00    -0.443 A  
HETATM   18  C   UNL     1     -10.661  13.085  66.448  1.00  0.00    -0.295 A  
ENDBRANCH  12  13
ENDBRANCH  11  12
ENDBRANCH   9  11
ENDBRANCH   6   9
TORSDOF 4
ENDMDL
MODEL       41
REMARK 921   NORMALIZED FREE ENERGY PREDICTED BY IDOCK:   -5.39 KCAL/MOL
REMARK 922        TOTAL FREE ENERGY PREDICTED BY IDOCK:   -7.27 KCAL/MOL
REMARK 923 INTER-LIGAND FREE ENERGY PREDICTED BY IDOCK:   -6.47 KCAL/MOL
REMARK 924 INTRA-LIGAND FREE ENERGY PREDICTED BY IDOCK:   -0.79 KCAL/MOL
REMARK 927      BINDING AFFINITY PREDICTED BY RF-SCORE:    0.00 PKD
ROOT
HETATM    1  O   UNL     1      -9.171  15.466  65.736  1.00  0.00    -0.377 OA 
HETATM    2  C   UNL     1      -9.722  14.343  66.277  1.00  0.00    -0.310 A  
HETATM    3  H   UNL     1      -8.272  15.713  65.919  1.00  0.00     0.000 HD 
HETATM    4  C   UNL     1     -11.037  13.982  66.009  1.00  0.00    -0.303 A  
HETATM    5  C   UNL     1     -11.563  12.831  66.601  1.00  0.00    -0.430 A  
HETATM    6  C   UNL     1     -10.776  12.043  67.458  1.00  0.00    -0.262 A  
HETATM    7  C   UNL     1      -8.924  13.569  67.114  1.00  0.00    -0.230 A  
HETATM    8  C   UNL     1      -9.449  12.416  67.707  1.00  0.00    -0.199 A  
ENDROOT
BRANCH   6   9
HETATM    9  C   UNL     1     -11.410  10.846  68.079  1.00  0.00    -0.312 C  
HETATM   10  O   UNL     1     -11.071   9.705  67.808  1.00  0.00    -0.219 OA 
BRANCH   9  11
HETATM   11  O   UNL     1     -12.402  11.206  68.926  1.00  0.00    -0.512 OA 
BRANCH  11  12
HETATM   12  C   UNL     1     -12.024  11.371  70.301  1.00  0.00    -0.373 C  
BRANCH  12  13
HETATM   13  C   UNL     1     -12.484  12.718  70.799  1.00  0.00    -0.357 A  
HETATM   14  C   UNL     1     -12.092  13.892  70.139  1.00  0.00    -0.418 A  
HETATM   15  C   UNL     1     -12.530  15.139  70.590  1.00  0.00    -0.442 A  
HETATM   16  C   UNL     1     -13.364  15.225  71.703  1.00  0.00    -0.553 A  
HETATM   17  C   UNL     1     -13.761  14.065  72.366  1.00  0.00    -0.669 A  
HETATM   18  C   UNL     1     -13.323  12.818  71.918  1.00  0.00    -0.510 A  
ENDBRANCH  12  13
ENDBRANCH  11  12
ENDBRANCH   9  11
ENDBRANCH   6   9
TORSDOF 4
ENDMDL
MODEL       42
REMARK 921   NORMALIZED FREE ENERGY PREDICTED BY IDOCK:   -5.37 KCAL/MOL
REMARK 922        TOTAL FREE ENERGY PREDICTED BY IDOCK:   -7.25 KCAL/MOL
REMARK 923 INTER-LIGAND FREE ENERGY PREDICTED BY IDOCK:   -7.07 KCAL/MOL
REMARK 924 INTRA-LIGAND FREE ENERGY PREDICTED BY IDOCK:   -0.18 KCAL/MOL
REMARK 927      BINDING AFFINITY PREDICTED BY RF-SCORE:    0.00 PKD
ROOT
HETATM    1  O   UNL     1     -13.444  16.360  74.067  1.00  0.00    -0.898 OA 
HETATM    2  C   UNL     1     -13.082  15.807  72.875  1.00  0.00    -0.521 A  
HETATM    3  H   UNL     1     -12.942  17.066  74.457  1.00  0.00     0.000 HD 
HETATM    4  C   UNL     1     -13.817  14.774  72.305  1.00  0.00    -0.590 A  
HETATM    5  C   UNL     1     -13.397  14.226  71.091  1.00  0.00    -0.363 A  
HETATM    6  C   UNL     1     -12.245  14.710  70.448  1.00  0.00    -0.391 A  
HETATM    7  C   UNL     1     -11.946  16.307  72.248  1.00  0.00    -0.605 A  
HETATM    8  C   UNL     1     -11.524  15.759  71.032  1.00  0.00    -0.451 A  
ENDROOT
BRANCH   6   9
HETATM    9  C   UNL     1     -11.837  14.060  69.171  1.00  0.00    -0.350 C  
HETATM   10  O   UNL     1     -12.022  14.575  68.080  1.00  0.00    -0.326 OA 
BRANCH   9  11
HETATM   11  O   UNL     1     -11.287  12.845  69.398  1.00  0.00    -0.250 OA 
BRANCH  11  12
HETATM   12  C   UNL     1     -12.017  11.719  68.886  1.00  0.00    -0.271 C  
BRANCH  12  13
HETATM   13  C   UNL     1     -11.291  11.139  67.699  1.00  0.00    -0.356 A  
HETATM   14  C   UNL     1     -10.656   9.892  67.793  1.00  0.00    -0.313 A  
HETATM   15  C   UNL     1      -9.997   9.347  66.688  1.00  0.00    -0.326 A  
HETATM   16  C   UNL     1      -9.967  10.041  65.481  1.00  0.00    -0.367 A  
HETATM   17  C   UNL     1     -10.596  11.281  65.375  1.00  0.00    -0.312 A  
HETATM   18  C   UNL     1     -11.253  11.828  66.478  1.00  0.00    -0.380 A  
ENDBRANCH  12  13
ENDBRANCH  11  12
ENDBRANCH   9  11
ENDBRANCH   6   9
TORSDOF 4
ENDMDL
MODEL       43
REMARK 921   NORMALIZED FREE ENERGY PREDICTED BY IDOCK:   -5.37 KCAL/MOL
REMARK 922        TOTAL FREE ENERGY PREDICTED BY IDOCK:   -7.24 KCAL/MOL
REMARK 923 INTER-LIGAND FREE ENERGY PREDICTED BY IDOCK:   -6.31 KCAL/MOL
REMARK 924 INTRA-LIGAND FREE ENERGY PREDICTED BY IDOCK:   -0.93 KCAL/MOL
REMARK 927      BINDING AFFINITY PREDICTED BY RF-SCORE:    0.00 PKD
ROOT
HETATM    1  O   UNL     1     -11.114  11.022  70.357  1.00  0.00    -0.467 OA 
HETATM    2  C   UNL     1     -11.338  11.736  69.218  1.00  0.00    -0.286 A  
HETATM    3  H   UNL     1     -10.872  10.105  70.326  1.00  0.00     0.000 HD 
HETATM    4  C   UNL     1     -11.693  13.079  69.264  1.00  0.00    -0.375 A  
HETATM    5  C   UNL     1     -11.930  13.765  68.070  1.00  0.00    -0.390 A  
HETATM    6  C   UNL     1     -11.811  13.109  66.833  1.00  0.00    -0.444 A  
HETATM    7  C   UNL     1     -11.205  11.073  68.002  1.00  0.00    -0.372 A  
HETATM    8  C   UNL     1     -11.441  11.758  66.805  1.00  0.00    -0.352 A  
ENDROOT
BRANCH   6   9
HETATM    9  C   UNL     1     -12.107  13.891  65.600  1.00  0.00    -0.421 C  
HETATM   10  O   UNL     1     -13.233  14.000  65.142  1.00  0.00    -0.768 OA 
BRANCH   9  11
HETATM   11  O   UNL     1     -10.975  14.410  65.070  1.00  0.00    -0.345 OA 
BRANCH  11  12
HETATM   12  C   UNL     1     -10.850  15.839  65.131  1.00  0.00    -0.428 C  
BRANCH  12  13
HETATM   13  C   UNL     1     -10.077  16.232  66.364  1.00  0.00    -0.318 A  
HETATM   14  C   UNL     1     -10.534  17.268  67.191  1.00  0.00    -0.297 A  
HETATM   15  C   UNL     1      -9.825  17.622  68.341  1.00  0.00    -0.334 A  
HETATM   16  C   UNL     1      -8.655  16.944  68.677  1.00  0.00    -0.267 A  
HETATM   17  C   UNL     1      -8.191  15.912  67.863  1.00  0.00    -0.151 A  
HETATM   18  C   UNL     1      -8.897  15.558  66.711  1.00  0.00    -0.297 A  
ENDBRANCH  12  13
ENDBRANCH  11  12
ENDBRANCH   9  11
ENDBRANCH   6   9
TORSDOF 4
ENDMDL
MODEL       44
REMARK 921   NORMALIZED FREE ENERGY PREDICTED BY IDOCK:   -5.34 KCAL/MOL
REMARK 922        TOTAL FREE ENERGY PREDICTED BY IDOCK:   -7.21 KCAL/MOL
REMARK 923 INTER-LIGAND FREE ENERGY PREDICTED BY IDOCK:   -6.72 KCAL/MOL
REMARK 924 INTRA-LIGAND FREE ENERGY PREDICTED BY IDOCK:   -0.49 KCAL/MOL
REMARK 927      BINDING AFFINITY PREDICTED BY RF-SCORE:    0.00 PKD
ROOT
HETATM    1  O   UNL     1     -11.752  10.802  70.620  1.00  0.00    -0.325 OA 
HETATM    2  C   UNL     1     -11.727  11.640  69.546  1.00  0.00    -0.344 A  
HETATM    3  H   UNL     1     -11.896  11.130  71.500  1.00  0.00     0.000 HD 
HETATM    4  C   UNL     1     -11.515  11.160  68.259  1.00  0.00    -0.373 A  
HETATM    5  C   UNL     1     -11.480  12.060  67.191  1.00  0.00    -0.401 A  
HETATM    6  C   UNL     1     -11.657  13.436  67.409  1.00  0.00    -0.394 A  
HETATM    7  C   UNL     1     -11.915  12.999  69.780  1.00  0.00    -0.377 A  
HETATM    8  C   UNL     1     -11.881  13.901  68.711  1.00  0.00    -0.396 A  
ENDROOT
BRANCH   6   9
HETATM    9  C   UNL     1     -11.578  14.343  66.229  1.00  0.00    -0.372 C  
HETATM   10  O   UNL     1     -12.343  14.260  65.281  1.00  0.00    -0.418 OA 
BRANCH   9  11
HETATM   11  O   UNL     1     -10.547  15.211  66.352  1.00  0.00    -0.291 OA 
BRANCH  11  12
HETATM   12  C   UNL     1     -10.651  16.421  65.586  1.00  0.00    -0.323 C  
BRANCH  12  13
HETATM   13  C   UNL     1     -10.413  17.612  66.479  1.00  0.00    -0.283 A  
HETATM   14  C   UNL     1     -10.450  18.913  65.955  1.00  0.00    -0.507 A  
HETATM   15  C   UNL     1     -10.244  20.017  66.785  1.00  0.00    -0.592 A  
HETATM   16  C   UNL     1     -10.000  19.833  68.144  1.00  0.00    -0.557 A  
HETATM   17  C   UNL     1      -9.961  18.545  68.676  1.00  0.00    -0.419 A  
HETATM   18  C   UNL     1     -10.165  17.440  67.848  1.00  0.00    -0.348 A  
ENDBRANCH  12  13
ENDBRANCH  11  12
ENDBRANCH   9  11
ENDBRANCH   6   9
TORSDOF 4
ENDMDL
MODEL       45
REMARK 921   NORMALIZED FREE ENERGY PREDICTED BY IDOCK:   -5.32 KCAL/MOL
REMARK 922        TOTAL FREE ENERGY PREDICTED BY IDOCK:   -7.19 KCAL/MOL
REMARK 923 INTER-LIGAND FREE ENERGY PREDICTED BY IDOCK:   -6.86 KCAL/MOL
REMARK 924 INTRA-LIGAND FREE ENERGY PREDICTED BY IDOCK:   -0.33 KCAL/MOL
REMARK 927      BINDING AFFINITY PREDICTED BY RF-SCORE:    0.00 PKD
ROOT
HETATM    1  O   UNL     1     -12.095   9.612  70.535  1.00  0.00    -0.408 OA 
HETATM    2  C   UNL     1     -12.165  10.968  70.422  1.00  0.00    -0.373 A  
HETATM    3  H   UNL     1     -12.464   9.159  71.284  1.00  0.00     0.000 HD 
HETATM    4  C   UNL     1     -11.625  11.631  69.326  1.00  0.00    -0.385 A  
HETATM    5  C   UNL     1     -11.705  13.024  69.262  1.00  0.00    -0.375 A  
HETATM    6  C   UNL     1     -12.324  13.753  70.291  1.00  0.00    -0.407 A  
HETATM    7  C   UNL     1     -12.792  11.672  71.445  1.00  0.00    -0.461 A  
HETATM    8  C   UNL     1     -12.873  13.068  71.383  1.00  0.00    -0.385 A  
ENDROOT
BRANCH   6   9
HETATM    9  C   UNL     1     -12.348  15.238  70.174  1.00  0.00    -0.353 C  
HETATM   10  O   UNL     1     -12.989  15.949  70.931  1.00  0.00    -0.480 OA 
BRANCH   9  11
HETATM   11  O   UNL     1     -11.610  15.654  69.119  1.00  0.00    -0.337 OA 
BRANCH  11  12
HETATM   12  C   UNL     1     -10.466  16.464  69.433  1.00  0.00    -0.309 C  
BRANCH  12  13
HETATM   13  C   UNL     1     -10.336  17.576  68.424  1.00  0.00    -0.378 A  
HETATM   14  C   UNL     1     -10.420  17.305  67.050  1.00  0.00    -0.287 A  
HETATM   15  C   UNL     1     -10.315  18.338  66.116  1.00  0.00    -0.414 A  
HETATM   16  C   UNL     1     -10.126  19.650  66.544  1.00  0.00    -0.568 A  
HETATM   17  C   UNL     1     -10.042  19.932  67.906  1.00  0.00    -0.571 A  
HETATM   18  C   UNL     1     -10.145  18.901  68.842  1.00  0.00    -0.372 A  
ENDBRANCH  12  13
ENDBRANCH  11  12
ENDBRANCH   9  11
ENDBRANCH   6   9
TORSDOF 4
ENDMDL
MODEL       46
REMARK 921   NORMALIZED FREE ENERGY PREDICTED BY IDOCK:   -5.32 KCAL/MOL
REMARK 922        TOTAL FREE ENERGY PREDICTED BY IDOCK:   -7.19 KCAL/MOL
REMARK 923 INTER-LIGAND FREE ENERGY PREDICTED BY IDOCK:   -6.55 KCAL/MOL
REMARK 924 INTRA-LIGAND FREE ENERGY PREDICTED BY IDOCK:   -0.63 KCAL/MOL
REMARK 927      BINDING AFFINITY PREDICTED BY RF-SCORE:    0.00 PKD
ROOT
HETATM    1  O   UNL     1     -12.514   8.585  70.946  1.00  0.00    -0.487 OA 
HETATM    2  C   UNL     1     -12.481   9.947  70.908  1.00  0.00    -0.307 A  
HETATM    3  H   UNL     1     -12.075   8.061  70.287  1.00  0.00     0.000 HD 
HETATM    4  C   UNL     1     -13.122  10.713  71.873  1.00  0.00    -0.563 A  
HETATM    5  C   UNL     1     -13.075  12.106  71.782  1.00  0.00    -0.457 A  
HETATM    6  C   UNL     1     -12.388  12.731  70.728  1.00  0.00    -0.375 A  
HETATM    7  C   UNL     1     -11.786  10.548  69.863  1.00  0.00    -0.372 A  
HETATM    8  C   UNL     1     -11.738  11.943  69.770  1.00  0.00    -0.403 A  
ENDROOT
BRANCH   6   9
HETATM    9  C   UNL     1     -12.404  14.220  70.674  1.00  0.00    -0.361 C  
HETATM   10  O   UNL     1     -13.224  14.894  71.278  1.00  0.00    -0.356 OA 
BRANCH   9  11
HETATM   11  O   UNL     1     -11.431  14.687  69.857  1.00  0.00    -0.255 OA 
BRANCH  11  12
HETATM   12  C   UNL     1     -11.860  15.579  68.817  1.00  0.00    -0.317 C  
BRANCH  12  13
HETATM   13  C   UNL     1     -11.511  14.997  67.471  1.00  0.00    -0.339 A  
HETATM   14  C   UNL     1     -12.271  13.949  66.929  1.00  0.00    -0.415 A  
HETATM   15  C   UNL     1     -11.957  13.421  65.675  1.00  0.00    -0.439 A  
HETATM   16  C   UNL     1     -10.883  13.932  64.951  1.00  0.00    -0.413 A  
HETATM   17  C   UNL     1     -10.120  14.973  65.478  1.00  0.00    -0.400 A  
HETATM   18  C   UNL     1     -10.431  15.502  66.732  1.00  0.00    -0.295 A  
ENDBRANCH  12  13
ENDBRANCH  11  12
ENDBRANCH   9  11
ENDBRANCH   6   9
TORSDOF 4
ENDMDL
MODEL       47
REMARK 921   NORMALIZED FREE ENERGY PREDICTED BY IDOCK:   -5.30 KCAL/MOL
REMARK 922        TOTAL FREE ENERGY PREDICTED BY IDOCK:   -7.16 KCAL/MOL
REMARK 923 INTER-LIGAND FREE ENERGY PREDICTED BY IDOCK:   -6.98 KCAL/MOL
REMARK 924 INTRA-LIGAND FREE ENERGY PREDICTED BY IDOCK:   -0.18 KCAL/MOL
REMARK 927      BINDING AFFINITY PREDICTED BY RF-SCORE:    0.00 PKD
ROOT
HETATM    1  O   UNL     1     -10.019   9.700  64.782  1.00  0.00    -0.399 OA 
HETATM    2  C   UNL     1     -10.255  11.042  64.793  1.00  0.00    -0.319 A  
HETATM    3  H   UNL     1     -10.360   9.144  64.091  1.00  0.00     0.000 HD 
HETATM    4  C   UNL     1      -9.757  11.855  65.804  1.00  0.00    -0.258 A  
HETATM    5  C   UNL     1     -10.039  13.223  65.782  1.00  0.00    -0.293 A  
HETATM    6  C   UNL     1     -10.817  13.777  64.751  1.00  0.00    -0.410 A  
HETATM    7  C   UNL     1     -11.017  11.574  63.758  1.00  0.00    -0.485 A  
HETATM    8  C   UNL     1     -11.301  12.944  63.734  1.00  0.00    -0.490 A  
ENDROOT
BRANCH   6   9
HETATM    9  C   UNL     1     -11.105  15.238  64.806  1.00  0.00    -0.394 C  
HETATM   10  O   UNL     1     -12.005  15.757  64.165  1.00  0.00    -0.527 OA 
BRANCH   9  11
HETATM   11  O   UNL     1     -10.227  15.876  65.613  1.00  0.00    -0.334 OA 
BRANCH  11  12
HETATM   12  C   UNL     1     -10.738  16.299  66.887  1.00  0.00    -0.217 C  
BRANCH  12  13
HETATM   13  C   UNL     1     -10.469  17.769  67.083  1.00  0.00    -0.338 A  
HETATM   14  C   UNL     1     -10.446  18.641  65.985  1.00  0.00    -0.456 A  
HETATM   15  C   UNL     1     -10.212  20.006  66.168  1.00  0.00    -0.589 A  
HETATM   16  C   UNL     1      -9.999  20.512  67.448  1.00  0.00    -0.525 A  
HETATM   17  C   UNL     1     -10.019  19.655  68.548  1.00  0.00    -0.542 A  
HETATM   18  C   UNL     1     -10.252  18.290  68.366  1.00  0.00    -0.402 A  
ENDBRANCH  12  13
ENDBRANCH  11  12
ENDBRANCH   9  11
ENDBRANCH   6   9
TORSDOF 4
ENDMDL
MODEL       48
REMARK 921   NORMALIZED FREE ENERGY PREDICTED BY IDOCK:   -5.16 KCAL/MOL
REMARK 922        TOTAL FREE ENERGY PREDICTED BY IDOCK:   -6.99 KCAL/MOL
REMARK 923 INTER-LIGAND FREE ENERGY PREDICTED BY IDOCK:   -6.70 KCAL/MOL
REMARK 924 INTRA-LIGAND FREE ENERGY PREDICTED BY IDOCK:   -0.28 KCAL/MOL
REMARK 927      BINDING AFFINITY PREDICTED BY RF-SCORE:    0.00 PKD
ROOT
HETATM    1  O   UNL     1      -9.287   5.380  71.446  1.00  0.00    -0.144 OA 
HETATM    2  C   UNL     1     -10.313   6.271  71.550  1.00  0.00    -0.204 A  
HETATM    3  H   UNL     1      -8.612   5.324  72.111  1.00  0.00     0.000 HD 
HETATM    4  C   UNL     1     -11.302   6.352  70.578  1.00  0.00    -0.438 A  
HETATM    5  C   UNL     1     -12.324   7.294  70.719  1.00  0.00    -0.223 A  
HETATM    6  C   UNL     1     -12.357   8.152  71.831  1.00  0.00    -0.371 A  
HETATM    7  C   UNL     1     -10.335   7.105  72.664  1.00  0.00    -0.246 A  
HETATM    8  C   UNL     1     -11.358   8.049  72.807  1.00  0.00    -0.439 A  
ENDROOT
BRANCH   6   9
HETATM    9  C   UNL     1     -13.458   9.153  71.904  1.00  0.00    -0.430 C  
HETATM   10  O   UNL     1     -14.311   9.134  72.777  1.00  0.00    -0.563 OA 
BRANCH   9  11
HETATM   11  O   UNL     1     -13.388  10.028  70.873  1.00  0.00    -0.382 OA 
BRANCH  11  12
HETATM   12  C   UNL     1     -12.218  10.859  70.833  1.00  0.00    -0.381 C  
BRANCH  12  13
HETATM   13  C   UNL     1     -12.606  12.298  71.063  1.00  0.00    -0.352 A  
HETATM   14  C   UNL     1     -13.503  12.639  72.087  1.00  0.00    -0.561 A  
HETATM   15  C   UNL     1     -13.850  13.973  72.309  1.00  0.00    -0.655 A  
HETATM   16  C   UNL     1     -13.306  14.978  71.513  1.00  0.00    -0.500 A  
HETATM   17  C   UNL     1     -12.414  14.652  70.493  1.00  0.00    -0.408 A  
HETATM   18  C   UNL     1     -12.067  13.319  70.268  1.00  0.00    -0.405 A  
ENDBRANCH  12  13
ENDBRANCH  11  12
ENDBRANCH   9  11
ENDBRANCH   6   9
TORSDOF 4
ENDMDL
MODEL       49
REMARK 921   NORMALIZED FREE ENERGY PREDICTED BY IDOCK:   -5.16 KCAL/MOL
REMARK 922        TOTAL FREE ENERGY PREDICTED BY IDOCK:   -6.98 KCAL/MOL
REMARK 923 INTER-LIGAND FREE ENERGY PREDICTED BY IDOCK:   -6.62 KCAL/MOL
REMARK 924 INTRA-LIGAND FREE ENERGY PREDICTED BY IDOCK:   -0.36 KCAL/MOL
REMARK 927      BINDING AFFINITY PREDICTED BY RF-SCORE:    0.00 PKD
ROOT
HETATM    1  O   UNL     1     -11.052   5.714  66.403  1.00  0.00    -0.704 OA 
HETATM    2  C   UNL     1     -10.967   6.608  67.428  1.00  0.00    -0.360 A  
HETATM    3  H   UNL     1     -11.286   4.806  66.556  1.00  0.00     0.000 HD 
HETATM    4  C   UNL     1     -10.624   7.935  67.203  1.00  0.00    -0.383 A  
HETATM    5  C   UNL     1     -10.533   8.811  68.288  1.00  0.00    -0.236 A  
HETATM    6  C   UNL     1     -10.785   8.359  69.594  1.00  0.00    -0.201 A  
HETATM    7  C   UNL     1     -11.231   6.145  68.713  1.00  0.00    -0.307 A  
HETATM    8  C   UNL     1     -11.141   7.020  69.801  1.00  0.00    -0.278 A  
ENDROOT
BRANCH   6   9
HETATM    9  C   UNL     1     -10.640   9.338  70.708  1.00  0.00    -0.285 C  
HETATM   10  O   UNL     1     -10.076   9.067  71.756  1.00  0.00    -0.326 OA 
BRANCH   9  11
HETATM   11  O   UNL     1     -11.239  10.513  70.403  1.00  0.00    -0.304 OA 
BRANCH  11  12
HETATM   12  C   UNL     1     -12.518  10.743  71.015  1.00  0.00    -0.420 C  
BRANCH  12  13
HETATM   13  C   UNL     1     -12.753  12.225  71.164  1.00  0.00    -0.340 A  
HETATM   14  C   UNL     1     -12.180  13.132  70.260  1.00  0.00    -0.376 A  
HETATM   15  C   UNL     1     -12.410  14.503  70.389  1.00  0.00    -0.400 A  
HETATM   16  C   UNL     1     -13.214  14.981  71.421  1.00  0.00    -0.497 A  
HETATM   17  C   UNL     1     -13.789  14.090  72.326  1.00  0.00    -0.655 A  
HETATM   18  C   UNL     1     -13.559  12.719  72.199  1.00  0.00    -0.547 A  
ENDBRANCH  12  13
ENDBRANCH  11  12
ENDBRANCH   9  11
ENDBRANCH   6   9
TORSDOF 4
ENDMDL
MODEL       50
REMARK 921   NORMALIZED FREE ENERGY PREDICTED BY IDOCK:   -5.15 KCAL/MOL
REMARK 922        TOTAL FREE ENERGY PREDICTED BY IDOCK:   -6.98 KCAL/MOL
REMARK 923 INTER-LIGAND FREE ENERGY PREDICTED BY IDOCK:   -6.28 KCAL/MOL
REMARK 924 INTRA-LIGAND FREE ENERGY PREDICTED BY IDOCK:   -0.70 KCAL/MOL
REMARK 927      BINDING AFFINITY PREDICTED BY RF-SCORE:    0.00 PKD
ROOT
HETATM    1  O   UNL     1      -9.863  14.909  69.735  1.00  0.00    -0.428 OA 
HETATM    2  C   UNL     1     -10.483  14.775  68.528  1.00  0.00    -0.249 A  
HETATM    3  H   UNL     1      -9.108  15.475  69.843  1.00  0.00     0.000 HD 
HETATM    4  C   UNL     1     -11.588  13.947  68.371  1.00  0.00    -0.368 A  
HETATM    5  C   UNL     1     -12.178  13.827  67.111  1.00  0.00    -0.352 A  
HETATM    6  C   UNL     1     -11.665  14.534  66.010  1.00  0.00    -0.347 A  
HETATM    7  C   UNL     1      -9.967  15.491  67.453  1.00  0.00    -0.234 A  
HETATM    8  C   UNL     1     -10.557  15.373  66.190  1.00  0.00    -0.321 A  
ENDROOT
BRANCH   6   9
HETATM    9  C   UNL     1     -12.324  14.337  64.689  1.00  0.00    -0.415 C  
HETATM   10  O   UNL     1     -12.619  15.265  63.953  1.00  0.00    -0.765 OA 
BRANCH   9  11
HETATM   11  O   UNL     1     -12.568  13.026  64.458  1.00  0.00    -0.598 OA 
BRANCH  11  12
HETATM   12  C   UNL     1     -11.900  12.453  63.323  1.00  0.00    -0.402 C  
BRANCH  12  13
HETATM   13  C   UNL     1     -10.711  11.648  63.783  1.00  0.00    -0.482 A  
HETATM   14  C   UNL     1     -10.591  11.260  65.126  1.00  0.00    -0.343 A  
HETATM   15  C   UNL     1      -9.497  10.501  65.548  1.00  0.00    -0.265 A  
HETATM   16  C   UNL     1      -8.515  10.122  64.635  1.00  0.00    -0.178 A  
HETATM   17  C   UNL     1      -8.625  10.502  63.298  1.00  0.00    -0.179 A  
HETATM   18  C   UNL     1      -9.716  11.262  62.874  1.00  0.00    -0.351 A  
ENDBRANCH  12  13
ENDBRANCH  11  12
ENDBRANCH   9  11
ENDBRANCH   6   9
TORSDOF 4
ENDMDL
MODEL       51
REMARK 921   NORMALIZED FREE ENERGY PREDICTED BY IDOCK:   -5.14 KCAL/MOL
REMARK 922        TOTAL FREE ENERGY PREDICTED BY IDOCK:   -6.96 KCAL/MOL
REMARK 923 INTER-LIGAND FREE ENERGY PREDICTED BY IDOCK:   -6.58 KCAL/MOL
REMARK 924 INTRA-LIGAND FREE ENERGY PREDICTED BY IDOCK:   -0.37 KCAL/MOL
REMARK 927      BINDING AFFINITY PREDICTED BY RF-SCORE:    0.00 PKD
ROOT
HETATM    1  O   UNL     1     -14.159  15.888  73.017  1.00  0.00    -0.653 OA 
HETATM    2  C   UNL     1     -13.543  14.976  72.212  1.00  0.00    -0.443 A  
HETATM    3  H   UNL     1     -14.633  15.620  73.795  1.00  0.00     0.000 HD 
HETATM    4  C   UNL     1     -12.848  15.369  71.074  1.00  0.00    -0.525 A  
HETATM    5  C   UNL     1     -12.248  14.396  70.271  1.00  0.00    -0.397 A  
HETATM    6  C   UNL     1     -12.342  13.035  70.605  1.00  0.00    -0.391 A  
HETATM    7  C   UNL     1     -13.637  13.634  72.565  1.00  0.00    -0.675 A  
HETATM    8  C   UNL     1     -13.036  12.658  71.762  1.00  0.00    -0.461 A  
ENDROOT
BRANCH   6   9
HETATM    9  C   UNL     1     -11.704  12.049  69.688  1.00  0.00    -0.335 C  
HETATM   10  O   UNL     1     -11.132  12.377  68.661  1.00  0.00    -0.228 OA 
BRANCH   9  11
HETATM   11  O   UNL     1     -11.884  10.784  70.134  1.00  0.00    -0.282 OA 
BRANCH  11  12
HETATM   12  C   UNL     1     -10.691  10.007  70.316  1.00  0.00    -0.309 C  
BRANCH  12  13
HETATM   13  C   UNL     1     -10.751   8.769  69.458  1.00  0.00    -0.196 A  
HETATM   14  C   UNL     1     -10.615   8.861  68.065  1.00  0.00    -0.226 A  
HETATM   15  C   UNL     1     -10.655   7.713  67.271  1.00  0.00    -0.388 A  
HETATM   16  C   UNL     1     -10.832   6.463  67.860  1.00  0.00    -0.404 A  
HETATM   17  C   UNL     1     -10.968   6.358  69.243  1.00  0.00    -0.418 A  
HETATM   18  C   UNL     1     -10.929   7.505  70.038  1.00  0.00    -0.252 A  
ENDBRANCH  12  13
ENDBRANCH  11  12
ENDBRANCH   9  11
ENDBRANCH   6   9
TORSDOF 4
ENDMDL
MODEL       52
REMARK 921   NORMALIZED FREE ENERGY PREDICTED BY IDOCK:   -5.14 KCAL/MOL
REMARK 922        TOTAL FREE ENERGY PREDICTED BY IDOCK:   -6.96 KCAL/MOL
REMARK 923 INTER-LIGAND FREE ENERGY PREDICTED BY IDOCK:   -6.19 KCAL/MOL
REMARK 924 INTRA-LIGAND FREE ENERGY PREDICTED BY IDOCK:   -0.77 KCAL/MOL
REMARK 927      BINDING AFFINITY PREDICTED BY RF-SCORE:    0.00 PKD
ROOT
HETATM    1  O   UNL     1     -10.097  20.370  66.142  1.00  0.00    -0.548 OA 
HETATM    2  C   UNL     1     -10.146  19.119  66.683  1.00  0.00    -0.395 A  
HETATM    3  H   UNL     1     -10.145  21.146  66.687  1.00  0.00     0.000 HD 
HETATM    4  C   UNL     1     -10.074  17.984  65.885  1.00  0.00    -0.167 A  
HETATM    5  C   UNL     1     -10.147  16.723  66.482  1.00  0.00    -0.322 A  
HETATM    6  C   UNL     1     -10.290  16.599  67.874  1.00  0.00    -0.310 A  
HETATM    7  C   UNL     1     -10.276  19.016  68.064  1.00  0.00    -0.476 A  
HETATM    8  C   UNL     1     -10.349  17.754  68.664  1.00  0.00    -0.351 A  
ENDROOT
BRANCH   6   9
HETATM    9  C   UNL     1     -10.392  15.225  68.443  1.00  0.00    -0.227 C  
HETATM   10  O   UNL     1      -9.415  14.584  68.797  1.00  0.00    -0.205 OA 
BRANCH   9  11
HETATM   11  O   UNL     1     -11.678  14.804  68.470  1.00  0.00    -0.306 OA 
BRANCH  11  12
HETATM   12  C   UNL     1     -11.891  13.419  68.160  1.00  0.00    -0.361 C  
BRANCH  12  13
HETATM   13  C   UNL     1     -11.691  13.189  66.684  1.00  0.00    -0.427 A  
HETATM   14  C   UNL     1     -10.752  12.251  66.230  1.00  0.00    -0.293 A  
HETATM   15  C   UNL     1     -10.578  12.027  64.862  1.00  0.00    -0.334 A  
HETATM   16  C   UNL     1     -11.339  12.736  63.936  1.00  0.00    -0.498 A  
HETATM   17  C   UNL     1     -12.276  13.671  64.375  1.00  0.00    -0.436 A  
HETATM   18  C   UNL     1     -12.450  13.897  65.742  1.00  0.00    -0.530 A  
ENDBRANCH  12  13
ENDBRANCH  11  12
ENDBRANCH   9  11
ENDBRANCH   6   9
TORSDOF 4
ENDMDL
MODEL       53
REMARK 921   NORMALIZED FREE ENERGY PREDICTED BY IDOCK:   -5.09 KCAL/MOL
REMARK 922        TOTAL FREE ENERGY PREDICTED BY IDOCK:   -6.90 KCAL/MOL
REMARK 923 INTER-LIGAND FREE ENERGY PREDICTED BY IDOCK:   -5.92 KCAL/MOL
REMARK 924 INTRA-LIGAND FREE ENERGY PREDICTED BY IDOCK:   -0.98 KCAL/MOL
REMARK 927      BINDING AFFINITY PREDICTED BY RF-SCORE:    0.00 PKD
ROOT
HETATM    1  O   UNL     1     -10.894  10.435  66.483  1.00  0.00    -0.147 OA 
HETATM    2  C   UNL     1     -10.980  11.706  65.998  1.00  0.00    -0.286 A  
HETATM    3  H   UNL     1     -11.425  10.149  67.216  1.00  0.00     0.000 HD 
HETATM    4  C   UNL     1     -10.202  12.124  64.924  1.00  0.00    -0.309 A  
HETATM    5  C   UNL     1     -10.312  13.442  64.473  1.00  0.00    -0.394 A  
HETATM    6  C   UNL     1     -11.197  14.339  65.094  1.00  0.00    -0.345 A  
HETATM    7  C   UNL     1     -11.869  12.577  66.618  1.00  0.00    -0.422 A  
HETATM    8  C   UNL     1     -11.980  13.897  66.168  1.00  0.00    -0.449 A  
ENDROOT
BRANCH   6   9
HETATM    9  C   UNL     1     -11.241  15.738  64.583  1.00  0.00    -0.363 C  
HETATM   10  O   UNL     1     -12.115  16.138  63.831  1.00  0.00    -0.956 OA 
BRANCH   9  11
HETATM   11  O   UNL     1     -10.185  16.454  65.034  1.00  0.00    -0.566 OA 
BRANCH  11  12
HETATM   12  C   UNL     1     -10.448  17.334  66.137  1.00  0.00    -0.278 C  
BRANCH  12  13
HETATM   13  C   UNL     1     -10.183  16.616  67.436  1.00  0.00    -0.286 A  
HETATM   14  C   UNL     1     -11.139  16.623  68.463  1.00  0.00    -0.301 A  
HETATM   15  C   UNL     1     -10.900  15.945  69.660  1.00  0.00    -0.314 A  
HETATM   16  C   UNL     1      -9.704  15.254  69.843  1.00  0.00    -0.108 A  
HETATM   17  C   UNL     1      -8.746  15.238  68.831  1.00  0.00    -0.208 A  
HETATM   18  C   UNL     1      -8.983  15.917  67.634  1.00  0.00    -0.193 A  
ENDBRANCH  12  13
ENDBRANCH  11  12
ENDBRANCH   9  11
ENDBRANCH   6   9
TORSDOF 4
ENDMDL
MODEL       54
REMARK 921   NORMALIZED FREE ENERGY PREDICTED BY IDOCK:   -5.07 KCAL/MOL
REMARK 922        TOTAL FREE ENERGY PREDICTED BY IDOCK:   -6.88 KCAL/MOL
REMARK 923 INTER-LIGAND FREE ENERGY PREDICTED BY IDOCK:   -6.28 KCAL/MOL
REMARK 924 INTRA-LIGAND FREE ENERGY PREDICTED BY IDOCK:   -0.60 KCAL/MOL
REMARK 927      BINDING AFFINITY PREDICTED BY RF-SCORE:    0.00 PKD
ROOT
HETATM    1  O   UNL     1     -13.513  16.328  74.005  1.00  0.00    -0.915 OA 
HETATM    2  C   UNL     1     -13.130  15.517  72.978  1.00  0.00    -0.524 A  
HETATM    3  H   UNL     1     -13.012  17.100  74.239  1.00  0.00     0.000 HD 
HETATM    4  C   UNL     1     -13.863  14.388  72.636  1.00  0.00    -0.480 A  
HETATM    5  C   UNL     1     -13.421  13.578  71.587  1.00  0.00    -0.385 A  
HETATM    6  C   UNL     1     -12.248  13.897  70.882  1.00  0.00    -0.436 A  
HETATM    7  C   UNL     1     -11.972  15.856  72.284  1.00  0.00    -0.617 A  
HETATM    8  C   UNL     1     -11.528  15.046  71.234  1.00  0.00    -0.359 A  
ENDROOT
BRANCH   6   9
HETATM    9  C   UNL     1     -11.817  12.974  69.795  1.00  0.00    -0.311 C  
HETATM   10  O   UNL     1     -12.386  11.919  69.561  1.00  0.00    -0.167 OA 
BRANCH   9  11
HETATM   11  O   UNL     1     -10.721  13.449  69.160  1.00  0.00    -0.179 OA 
BRANCH  11  12
HETATM   12  C   UNL     1     -10.762  13.415  67.725  1.00  0.00    -0.248 C  
BRANCH  12  13
HETATM   13  C   UNL     1     -10.516  14.796  67.175  1.00  0.00    -0.265 A  
HETATM   14  C   UNL     1      -9.819  15.751  67.931  1.00  0.00    -0.217 A  
HETATM   15  C   UNL     1      -9.577  17.026  67.415  1.00  0.00    -0.246 A  
HETATM   16  C   UNL     1     -10.028  17.359  66.139  1.00  0.00    -0.281 A  
HETATM   17  C   UNL     1     -10.721  16.419  65.378  1.00  0.00    -0.310 A  
HETATM   18  C   UNL     1     -10.965  15.145  65.893  1.00  0.00    -0.339 A  
ENDBRANCH  12  13
ENDBRANCH  11  12
ENDBRANCH   9  11
ENDBRANCH   6   9
TORSDOF 4
ENDMDL
MODEL       55
REMARK 921   NORMALIZED FREE ENERGY PREDICTED BY IDOCK:   -5.07 KCAL/MOL
REMARK 922        TOTAL FREE ENERGY PREDICTED BY IDOCK:   -6.87 KCAL/MOL
REMARK 923 INTER-LIGAND FREE ENERGY PREDICTED BY IDOCK:   -6.39 KCAL/MOL
REMARK 924 INTRA-LIGAND FREE ENERGY PREDICTED BY IDOCK:   -0.49 KCAL/MOL
REMARK 927      BINDING AFFINITY PREDICTED BY RF-SCORE:    0.00 PKD
ROOT
HETATM    1  O   UNL     1     -11.649  13.776  70.752  1.00  0.00    -0.515 OA 
HETATM    2  C   UNL     1     -11.723  13.524  69.414  1.00  0.00    -0.325 A  
HETATM    3  H   UNL     1     -11.509  13.077  71.379  1.00  0.00     0.000 HD 
HETATM    4  C   UNL     1     -11.928  14.548  68.496  1.00  0.00    -0.321 A  
HETATM    5  C   UNL     1     -12.014  14.239  67.137  1.00  0.00    -0.449 A  
HETATM    6  C   UNL     1     -11.895  12.910  66.696  1.00  0.00    -0.461 A  
HETATM    7  C   UNL     1     -11.591  12.204  68.996  1.00  0.00    -0.374 A  
HETATM    8  C   UNL     1     -11.677  11.893  67.634  1.00  0.00    -0.346 A  
ENDROOT
BRANCH   6   9
HETATM    9  C   UNL     1     -12.027  12.648  65.236  1.00  0.00    -0.439 C  
HETATM   10  O   UNL     1     -13.108  12.546  64.679  1.00  0.00    -0.845 OA 
BRANCH   9  11
HETATM   11  O   UNL     1     -10.812  12.509  64.655  1.00  0.00    -0.283 OA 
BRANCH  11  12
HETATM   12  C   UNL     1     -10.774  11.709  63.463  1.00  0.00    -0.428 C  
BRANCH  12  13
HETATM   13  C   UNL     1      -9.833  10.547  63.660  1.00  0.00    -0.354 A  
HETATM   14  C   UNL     1      -9.190   9.957  62.561  1.00  0.00    -0.307 A  
HETATM   15  C   UNL     1      -8.308   8.891  62.744  1.00  0.00    -0.201 A  
HETATM   16  C   UNL     1      -8.058   8.404  64.025  1.00  0.00    -0.142 A  
HETATM   17  C   UNL     1      -8.690   8.981  65.125  1.00  0.00    -0.223 A  
HETATM   18  C   UNL     1      -9.575  10.046  64.944  1.00  0.00    -0.375 A  
ENDBRANCH  12  13
ENDBRANCH  11  12
ENDBRANCH   9  11
ENDBRANCH   6   9
TORSDOF 4
ENDMDL
MODEL       56
REMARK 921   NORMALIZED FREE ENERGY PREDICTED BY IDOCK:   -5.03 KCAL/MOL
REMARK 922        TOTAL FREE ENERGY PREDICTED BY IDOCK:   -6.83 KCAL/MOL
REMARK 923 INTER-LIGAND FREE ENERGY PREDICTED BY IDOCK:   -6.40 KCAL/MOL
REMARK 924 INTRA-LIGAND FREE ENERGY PREDICTED BY IDOCK:   -0.43 KCAL/MOL
REMARK 927      BINDING AFFINITY PREDICTED BY RF-SCORE:    0.00 PKD
ROOT
HETATM    1  O   UNL     1     -11.758  14.184  69.512  1.00  0.00    -0.272 OA 
HETATM    2  C   UNL     1     -12.102  13.030  70.149  1.00  0.00    -0.307 A  
HETATM    3  H   UNL     1     -11.978  15.034  69.874  1.00  0.00     0.000 HD 
HETATM    4  C   UNL     1     -11.779  11.787  69.618  1.00  0.00    -0.413 A  
HETATM    5  C   UNL     1     -12.168  10.631  70.299  1.00  0.00    -0.417 A  
HETATM    6  C   UNL     1     -12.878  10.718  71.508  1.00  0.00    -0.567 A  
HETATM    7  C   UNL     1     -12.794  13.136  71.351  1.00  0.00    -0.401 A  
HETATM    8  C   UNL     1     -13.185  11.979  72.034  1.00  0.00    -0.481 A  
ENDROOT
BRANCH   6   9
HETATM    9  C   UNL     1     -13.289   9.446  72.166  1.00  0.00    -0.468 C  
HETATM   10  O   UNL     1     -14.354   9.318  72.749  1.00  0.00    -0.496 OA 
BRANCH   9  11
HETATM   11  O   UNL     1     -12.322   8.506  72.053  1.00  0.00    -0.320 OA 
BRANCH  11  12
HETATM   12  C   UNL     1     -12.760   7.199  71.650  1.00  0.00    -0.379 C  
BRANCH  12  13
HETATM   13  C   UNL     1     -11.587   6.402  71.140  1.00  0.00    -0.378 A  
HETATM   14  C   UNL     1     -10.898   5.524  71.990  1.00  0.00    -0.287 A  
HETATM   15  C   UNL     1      -9.821   4.775  71.514  1.00  0.00    -0.253 A  
HETATM   16  C   UNL     1      -9.421   4.894  70.185  1.00  0.00    -0.240 A  
HETATM   17  C   UNL     1     -10.098   5.762  69.329  1.00  0.00    -0.268 A  
HETATM   18  C   UNL     1     -11.174   6.514  69.805  1.00  0.00    -0.456 A  
ENDBRANCH  12  13
ENDBRANCH  11  12
ENDBRANCH   9  11
ENDBRANCH   6   9
TORSDOF 4
ENDMDL
MODEL       57
REMARK 921   NORMALIZED FREE ENERGY PREDICTED BY IDOCK:   -4.99 KCAL/MOL
REMARK 922        TOTAL FREE ENERGY PREDICTED BY IDOCK:   -6.78 KCAL/MOL
REMARK 923 INTER-LIGAND FREE ENERGY PREDICTED BY IDOCK:   -6.27 KCAL/MOL
REMARK 924 INTRA-LIGAND FREE ENERGY PREDICTED BY IDOCK:   -0.51 KCAL/MOL
REMARK 927      BINDING AFFINITY PREDICTED BY RF-SCORE:    0.00 PKD
ROOT
HETATM    1  O   UNL     1      -9.019  17.175  67.610  1.00  0.00    -0.222 OA 
HETATM    2  C   UNL     1      -9.791  16.151  67.150  1.00  0.00    -0.241 A  
HETATM    3  H   UNL     1      -8.244  17.459  67.142  1.00  0.00     0.000 HD 
HETATM    4  C   UNL     1     -10.926  15.736  67.836  1.00  0.00    -0.324 A  
HETATM    5  C   UNL     1     -11.676  14.669  67.335  1.00  0.00    -0.413 A  
HETATM    6  C   UNL     1     -11.292  14.019  66.150  1.00  0.00    -0.322 A  
HETATM    7  C   UNL     1      -9.401  15.527  65.969  1.00  0.00    -0.379 A  
HETATM    8  C   UNL     1     -10.151  14.458  65.466  1.00  0.00    -0.382 A  
ENDROOT
BRANCH   6   9
HETATM    9  C   UNL     1     -12.119  12.870  65.688  1.00  0.00    -0.458 C  
HETATM   10  O   UNL     1     -12.673  12.850  64.600  1.00  0.00    -0.654 OA 
BRANCH   9  11
HETATM   11  O   UNL     1     -12.188  11.908  66.637  1.00  0.00    -0.493 OA 
BRANCH  11  12
HETATM   12  C   UNL     1     -10.937  11.320  67.027  1.00  0.00    -0.294 C  
BRANCH  12  13
HETATM   13  C   UNL     1     -11.055  10.744  68.415  1.00  0.00    -0.323 A  
HETATM   14  C   UNL     1     -10.457   9.514  68.729  1.00  0.00    -0.243 A  
HETATM   15  C   UNL     1     -10.553   8.989  70.020  1.00  0.00    -0.246 A  
HETATM   16  C   UNL     1     -11.245   9.686  71.008  1.00  0.00    -0.445 A  
HETATM   17  C   UNL     1     -11.842  10.909  70.708  1.00  0.00    -0.424 A  
HETATM   18  C   UNL     1     -11.749  11.435  69.418  1.00  0.00    -0.406 A  
ENDBRANCH  12  13
ENDBRANCH  11  12
ENDBRANCH   9  11
ENDBRANCH   6   9
TORSDOF 4
ENDMDL
MODEL       58
REMARK 921   NORMALIZED FREE ENERGY PREDICTED BY IDOCK:   -4.99 KCAL/MOL
REMARK 922        TOTAL FREE ENERGY PREDICTED BY IDOCK:   -6.78 KCAL/MOL
REMARK 923 INTER-LIGAND FREE ENERGY PREDICTED BY IDOCK:   -6.31 KCAL/MOL
REMARK 924 INTRA-LIGAND FREE ENERGY PREDICTED BY IDOCK:   -0.47 KCAL/MOL
REMARK 927      BINDING AFFINITY PREDICTED BY RF-SCORE:    0.00 PKD
ROOT
HETATM    1  O   UNL     1     -13.638  11.791  72.611  1.00  0.00    -0.481 OA 
HETATM    2  C   UNL     1     -13.076  12.497  71.589  1.00  0.00    -0.315 A  
HETATM    3  H   UNL     1     -13.544  10.848  72.671  1.00  0.00     0.000 HD 
HETATM    4  C   UNL     1     -13.215  13.877  71.502  1.00  0.00    -0.425 A  
HETATM    5  C   UNL     1     -12.636  14.555  70.427  1.00  0.00    -0.405 A  
HETATM    6  C   UNL     1     -11.919  13.855  69.442  1.00  0.00    -0.402 A  
HETATM    7  C   UNL     1     -12.361  11.788  70.630  1.00  0.00    -0.421 A  
HETATM    8  C   UNL     1     -11.780  12.465  69.552  1.00  0.00    -0.388 A  
ENDROOT
BRANCH   6   9
HETATM    9  C   UNL     1     -11.354  14.636  68.306  1.00  0.00    -0.297 C  
HETATM   10  O   UNL     1     -10.510  15.505  68.458  1.00  0.00    -0.229 OA 
BRANCH   9  11
HETATM   11  O   UNL     1     -11.925  14.273  67.134  1.00  0.00    -0.405 OA 
BRANCH  11  12
HETATM   12  C   UNL     1     -11.121  14.460  65.959  1.00  0.00    -0.324 C  
BRANCH  12  13
HETATM   13  C   UNL     1     -10.768  13.121  65.364  1.00  0.00    -0.308 A  
HETATM   14  C   UNL     1     -10.499  12.021  66.192  1.00  0.00    -0.271 A  
HETATM   15  C   UNL     1     -10.187  10.777  65.640  1.00  0.00    -0.320 A  
HETATM   16  C   UNL     1     -10.142  10.619  64.257  1.00  0.00    -0.411 A  
HETATM   17  C   UNL     1     -10.408  11.704  63.423  1.00  0.00    -0.482 A  
HETATM   18  C   UNL     1     -10.717  12.949  63.973  1.00  0.00    -0.429 A  
ENDBRANCH  12  13
ENDBRANCH  11  12
ENDBRANCH   9  11
ENDBRANCH   6   9
TORSDOF 4
ENDMDL
MODEL       59
REMARK 921   NORMALIZED FREE ENERGY PREDICTED BY IDOCK:   -4.98 KCAL/MOL
REMARK 922        TOTAL FREE ENERGY PREDICTED BY IDOCK:   -6.76 KCAL/MOL
REMARK 923 INTER-LIGAND FREE ENERGY PREDICTED BY IDOCK:   -6.08 KCAL/MOL
REMARK 924 INTRA-LIGAND FREE ENERGY PREDICTED BY IDOCK:   -0.68 KCAL/MOL
REMARK 927      BINDING AFFINITY PREDICTED BY RF-SCORE:    0.00 PKD
ROOT
HETATM    1  O   UNL     1     -13.414  14.128  65.380  1.00  0.00    -0.648 OA 
HETATM    2  C   UNL     1     -12.408  13.428  65.978  1.00  0.00    -0.413 A  
HETATM    3  H   UNL     1     -13.744  13.884  64.524  1.00  0.00     0.000 HD 
HETATM    4  C   UNL     1     -11.925  13.786  67.231  1.00  0.00    -0.436 A  
HETATM    5  C   UNL     1     -10.881  13.050  67.796  1.00  0.00    -0.257 A  
HETATM    6  C   UNL     1     -10.322  11.958  67.111  1.00  0.00    -0.235 A  
HETATM    7  C   UNL     1     -11.875  12.344  65.289  1.00  0.00    -0.451 A  
HETATM    8  C   UNL     1     -10.830  11.605  65.853  1.00  0.00    -0.339 A  
ENDROOT
BRANCH   6   9
HETATM    9  C   UNL     1      -9.192  11.236  67.758  1.00  0.00    -0.156 C  
HETATM   10  O   UNL     1      -8.181  10.915  67.153  1.00  0.00    -0.121 OA 
BRANCH   9  11
HETATM   11  O   UNL     1      -9.465  10.969  69.056  1.00  0.00    -0.184 OA 
BRANCH  11  12
HETATM   12  C   UNL     1      -9.918   9.637  69.342  1.00  0.00    -0.197 C  
BRANCH  12  13
HETATM   13  C   UNL     1     -11.054   9.686  70.332  1.00  0.00    -0.346 A  
HETATM   14  C   UNL     1     -11.308   8.596  71.179  1.00  0.00    -0.329 A  
HETATM   15  C   UNL     1     -12.350   8.648  72.107  1.00  0.00    -0.452 A  
HETATM   16  C   UNL     1     -13.147   9.786  72.199  1.00  0.00    -0.513 A  
HETATM   17  C   UNL     1     -12.905  10.876  71.364  1.00  0.00    -0.554 A  
HETATM   18  C   UNL     1     -11.864  10.825  70.434  1.00  0.00    -0.450 A  
ENDBRANCH  12  13
ENDBRANCH  11  12
ENDBRANCH   9  11
ENDBRANCH   6   9
TORSDOF 4
ENDMDL
MODEL       60
REMARK 921   NORMALIZED FREE ENERGY PREDICTED BY IDOCK:   -4.96 KCAL/MOL
REMARK 922        TOTAL FREE ENERGY PREDICTED BY IDOCK:   -6.75 KCAL/MOL
REMARK 923 INTER-LIGAND FREE ENERGY PREDICTED BY IDOCK:   -6.42 KCAL/MOL
REMARK 924 INTRA-LIGAND FREE ENERGY PREDICTED BY IDOCK:   -0.33 KCAL/MOL
REMARK 927      BINDING AFFINITY PREDICTED BY RF-SCORE:    0.00 PKD
ROOT
HETATM    1  O   UNL     1     -12.054  15.030  68.735  1.00  0.00    -0.530 OA 
HETATM    2  C   UNL     1     -12.153  13.862  69.432  1.00  0.00    -0.337 A  
HETATM    3  H   UNL     1     -12.383  15.847  69.091  1.00  0.00     0.000 HD 
HETATM    4  C   UNL     1     -11.672  12.667  68.911  1.00  0.00    -0.370 A  
HETATM    5  C   UNL     1     -11.811  11.493  69.655  1.00  0.00    -0.421 A  
HETATM    6  C   UNL     1     -12.430  11.514  70.917  1.00  0.00    -0.464 A  
HETATM    7  C   UNL     1     -12.758  13.905  70.684  1.00  0.00    -0.351 A  
HETATM    8  C   UNL     1     -12.898  12.730  71.430  1.00  0.00    -0.371 A  
ENDROOT
BRANCH   6   9
HETATM    9  C   UNL     1     -12.573  10.221  71.643  1.00  0.00    -0.432 C  
HETATM   10  O   UNL     1     -13.618   9.872  72.169  1.00  0.00    -0.409 OA 
BRANCH   9  11
HETATM   11  O   UNL     1     -11.403   9.541  71.659  1.00  0.00    -0.383 OA 
BRANCH  11  12
HETATM   12  C   UNL     1     -11.438   8.218  71.103  1.00  0.00    -0.273 C  
BRANCH  12  13
HETATM   13  C   UNL     1     -11.124   7.205  72.175  1.00  0.00    -0.282 A  
HETATM   14  C   UNL     1     -10.305   7.548  73.261  1.00  0.00    -0.412 A  
HETATM   15  C   UNL     1     -10.027   6.615  74.261  1.00  0.00    -0.372 A  
HETATM   16  C   UNL     1     -10.563   5.332  74.188  1.00  0.00    -0.301 A  
HETATM   17  C   UNL     1     -11.379   4.979  73.114  1.00  0.00    -0.397 A  
HETATM   18  C   UNL     1     -11.657   5.910  72.111  1.00  0.00    -0.314 A  
ENDBRANCH  12  13
ENDBRANCH  11  12
ENDBRANCH   9  11
ENDBRANCH   6   9
TORSDOF 4
ENDMDL
MODEL       61
REMARK 921   NORMALIZED FREE ENERGY PREDICTED BY IDOCK:   -4.96 KCAL/MOL
REMARK 922        TOTAL FREE ENERGY PREDICTED BY IDOCK:   -6.75 KCAL/MOL
REMARK 923 INTER-LIGAND FREE ENERGY PREDICTED BY IDOCK:   -6.37 KCAL/MOL
REMARK 924 INTRA-LIGAND FREE ENERGY PREDICTED BY IDOCK:   -0.38 KCAL/MOL
REMARK 927      BINDING AFFINITY PREDICTED BY RF-SCORE:    0.00 PKD
ROOT
HETATM    1  O   UNL     1     -12.473   7.973  73.005  1.00  0.00    -0.625 OA 
HETATM    2  C   UNL     1     -12.111   8.861  72.036  1.00  0.00    -0.371 A  
HETATM    3  H   UNL     1     -11.904   7.254  73.253  1.00  0.00     0.000 HD 
HETATM    4  C   UNL     1     -12.944   9.913  71.672  1.00  0.00    -0.536 A  
HETATM    5  C   UNL     1     -12.538  10.787  70.661  1.00  0.00    -0.446 A  
HETATM    6  C   UNL     1     -11.303  10.610  70.015  1.00  0.00    -0.400 A  
HETATM    7  C   UNL     1     -10.880   8.676  71.415  1.00  0.00    -0.339 A  
HETATM    8  C   UNL     1     -10.472   9.550  70.402  1.00  0.00    -0.336 A  
ENDROOT
BRANCH   6   9
HETATM    9  C   UNL     1     -10.946  11.560  68.925  1.00  0.00    -0.229 C  
HETATM   10  O   UNL     1      -9.846  11.573  68.394  1.00  0.00    -0.193 OA 
BRANCH   9  11
HETATM   11  O   UNL     1     -11.975  12.395  68.652  1.00  0.00    -0.310 OA 
BRANCH  11  12
HETATM   12  C   UNL     1     -11.657  13.795  68.624  1.00  0.00    -0.334 C  
BRANCH  12  13
HETATM   13  C   UNL     1     -11.665  14.292  67.200  1.00  0.00    -0.430 A  
HETATM   14  C   UNL     1     -10.866  15.380  66.821  1.00  0.00    -0.306 A  
HETATM   15  C   UNL     1     -10.862  15.830  65.499  1.00  0.00    -0.343 A  
HETATM   16  C   UNL     1     -11.655  15.198  64.544  1.00  0.00    -0.330 A  
HETATM   17  C   UNL     1     -12.453  14.115  64.909  1.00  0.00    -0.419 A  
HETATM   18  C   UNL     1     -12.460  13.665  66.230  1.00  0.00    -0.420 A  
ENDBRANCH  12  13
ENDBRANCH  11  12
ENDBRANCH   9  11
ENDBRANCH   6   9
TORSDOF 4
ENDMDL
MODEL       62
REMARK 921   NORMALIZED FREE ENERGY PREDICTED BY IDOCK:   -4.96 KCAL/MOL
REMARK 922        TOTAL FREE ENERGY PREDICTED BY IDOCK:   -6.74 KCAL/MOL
REMARK 923 INTER-LIGAND FREE ENERGY PREDICTED BY IDOCK:   -5.88 KCAL/MOL
REMARK 924 INTRA-LIGAND FREE ENERGY PREDICTED BY IDOCK:   -0.85 KCAL/MOL
REMARK 927      BINDING AFFINITY PREDICTED BY RF-SCORE:    0.00 PKD
ROOT
HETATM    1  O   UNL     1     -10.790  11.147  62.910  1.00  0.00    -0.801 OA 
HETATM    2  C   UNL     1     -11.090  11.551  64.176  1.00  0.00    -0.344 A  
HETATM    3  H   UNL     1     -10.101  10.515  62.743  1.00  0.00     0.000 HD 
HETATM    4  C   UNL     1     -12.098  12.475  64.420  1.00  0.00    -0.500 A  
HETATM    5  C   UNL     1     -12.358  12.873  65.734  1.00  0.00    -0.437 A  
HETATM    6  C   UNL     1     -11.611  12.346  66.801  1.00  0.00    -0.444 A  
HETATM    7  C   UNL     1     -10.347  11.010  65.221  1.00  0.00    -0.338 A  
HETATM    8  C   UNL     1     -10.606  11.407  66.538  1.00  0.00    -0.309 A  
ENDROOT
BRANCH   6   9
HETATM    9  C   UNL     1     -11.920  12.836  68.174  1.00  0.00    -0.246 C  
HETATM   10  O   UNL     1     -11.926  12.103  69.150  1.00  0.00    -0.299 OA 
BRANCH   9  11
HETATM   11  O   UNL     1     -12.216  14.156  68.164  1.00  0.00    -0.306 OA 
BRANCH  11  12
HETATM   12  C   UNL     1     -11.331  15.004  68.911  1.00  0.00    -0.297 C  
BRANCH  12  13
HETATM   13  C   UNL     1     -10.186  15.444  68.036  1.00  0.00    -0.235 A  
HETATM   14  C   UNL     1     -10.430  16.022  66.781  1.00  0.00    -0.308 A  
HETATM   15  C   UNL     1      -9.369  16.444  65.976  1.00  0.00    -0.335 A  
HETATM   16  C   UNL     1      -8.056  16.294  66.416  1.00  0.00    -0.334 A  
HETATM   17  C   UNL     1      -7.801  15.721  67.662  1.00  0.00    -0.168 A  
HETATM   18  C   UNL     1      -8.860  15.297  68.467  1.00  0.00    -0.185 A  
ENDBRANCH  12  13
ENDBRANCH  11  12
ENDBRANCH   9  11
ENDBRANCH   6   9
TORSDOF 4
ENDMDL
MODEL       63
REMARK 921   NORMALIZED FREE ENERGY PREDICTED BY IDOCK:   -4.95 KCAL/MOL
REMARK 922        TOTAL FREE ENERGY PREDICTED BY IDOCK:   -6.73 KCAL/MOL
REMARK 923 INTER-LIGAND FREE ENERGY PREDICTED BY IDOCK:   -6.17 KCAL/MOL
REMARK 924 INTRA-LIGAND FREE ENERGY PREDICTED BY IDOCK:   -0.56 KCAL/MOL
REMARK 927      BINDING AFFINITY PREDICTED BY RF-SCORE:    0.00 PKD
ROOT
HETATM    1  O   UNL     1     -10.119  13.036  63.667  1.00  0.00    -0.699 OA 
HETATM    2  C   UNL     1     -10.198  12.025  64.578  1.00  0.00    -0.286 A  
HETATM    3  H   UNL     1      -9.715  12.905  62.818  1.00  0.00     0.000 HD 
HETATM    4  C   UNL     1     -10.789  12.217  65.821  1.00  0.00    -0.319 A  
HETATM    5  C   UNL     1     -10.832  11.155  66.728  1.00  0.00    -0.322 A  
HETATM    6  C   UNL     1     -10.285   9.905  66.393  1.00  0.00    -0.292 A  
HETATM    7  C   UNL     1      -9.662  10.791  64.224  1.00  0.00    -0.357 A  
HETATM    8  C   UNL     1      -9.704   9.727  65.131  1.00  0.00    -0.338 A  
ENDROOT
BRANCH   6   9
HETATM    9  C   UNL     1     -10.337   8.826  67.419  1.00  0.00    -0.280 C  
HETATM   10  O   UNL     1     -10.769   7.709  67.180  1.00  0.00    -0.332 OA 
BRANCH   9  11
HETATM   11  O   UNL     1      -9.885   9.270  68.615  1.00  0.00    -0.155 OA 
BRANCH  11  12
HETATM   12  C   UNL     1     -10.350   8.551  69.767  1.00  0.00    -0.212 C  
BRANCH  12  13
HETATM   13  C   UNL     1     -11.342   9.394  70.528  1.00  0.00    -0.328 A  
HETATM   14  C   UNL     1     -11.442  10.772  70.282  1.00  0.00    -0.406 A  
HETATM   15  C   UNL     1     -12.372  11.550  70.976  1.00  0.00    -0.434 A  
HETATM   16  C   UNL     1     -13.210  10.960  71.920  1.00  0.00    -0.508 A  
HETATM   17  C   UNL     1     -13.120   9.592  72.172  1.00  0.00    -0.520 A  
HETATM   18  C   UNL     1     -12.190   8.813  71.481  1.00  0.00    -0.382 A  
ENDBRANCH  12  13
ENDBRANCH  11  12
ENDBRANCH   9  11
ENDBRANCH   6   9
TORSDOF 4
ENDMDL
MODEL       64
REMARK 921   NORMALIZED FREE ENERGY PREDICTED BY IDOCK:   -4.95 KCAL/MOL
REMARK 922        TOTAL FREE ENERGY PREDICTED BY IDOCK:   -6.73 KCAL/MOL
REMARK 923 INTER-LIGAND FREE ENERGY PREDICTED BY IDOCK:   -6.06 KCAL/MOL
REMARK 924 INTRA-LIGAND FREE ENERGY PREDICTED BY IDOCK:   -0.67 KCAL/MOL
REMARK 927      BINDING AFFINITY PREDICTED BY RF-SCORE:    0.00 PKD
ROOT
HETATM    1  O   UNL     1      -7.415  17.863  65.619  1.00  0.00    -0.544 OA 
HETATM    2  C   UNL     1      -8.421  17.196  66.253  1.00  0.00    -0.244 A  
HETATM    3  H   UNL     1      -6.583  17.443  65.435  1.00  0.00     0.000 HD 
HETATM    4  C   UNL     1      -9.638  17.811  66.522  1.00  0.00    -0.315 A  
HETATM    5  C   UNL     1     -10.633  17.093  67.190  1.00  0.00    -0.244 A  
HETATM    6  C   UNL     1     -10.412  15.764  67.586  1.00  0.00    -0.282 A  
HETATM    7  C   UNL     1      -8.188  15.877  66.628  1.00  0.00    -0.317 A  
HETATM    8  C   UNL     1      -9.183  15.157  67.296  1.00  0.00    -0.208 A  
ENDROOT
BRANCH   6   9
HETATM    9  C   UNL     1     -11.505  15.067  68.321  1.00  0.00    -0.332 C  
HETATM   10  O   UNL     1     -12.014  15.522  69.333  1.00  0.00    -0.345 OA 
BRANCH   9  11
HETATM   11  O   UNL     1     -11.805  13.884  67.737  1.00  0.00    -0.344 OA 
BRANCH  11  12
HETATM   12  C   UNL     1     -12.379  13.960  66.423  1.00  0.00    -0.426 C  
BRANCH  12  13
HETATM   13  C   UNL     1     -11.710  12.959  65.515  1.00  0.00    -0.423 A  
HETATM   14  C   UNL     1     -10.709  12.108  66.008  1.00  0.00    -0.308 A  
HETATM   15  C   UNL     1     -10.101  11.170  65.172  1.00  0.00    -0.335 A  
HETATM   16  C   UNL     1     -10.485  11.073  63.836  1.00  0.00    -0.422 A  
HETATM   17  C   UNL     1     -11.479  11.912  63.335  1.00  0.00    -0.470 A  
HETATM   18  C   UNL     1     -12.087  12.852  64.169  1.00  0.00    -0.503 A  
ENDBRANCH  12  13
ENDBRANCH  11  12
ENDBRANCH   9  11
ENDBRANCH   6   9
TORSDOF 4
ENDMDL
MODEL       65
REMARK 921   NORMALIZED FREE ENERGY PREDICTED BY IDOCK:   -4.95 KCAL/MOL
REMARK 922        TOTAL FREE ENERGY PREDICTED BY IDOCK:   -6.73 KCAL/MOL
REMARK 923 INTER-LIGAND FREE ENERGY PREDICTED BY IDOCK:   -6.24 KCAL/MOL
REMARK 924 INTRA-LIGAND FREE ENERGY PREDICTED BY IDOCK:   -0.49 KCAL/MOL
REMARK 927      BINDING AFFINITY PREDICTED BY RF-SCORE:    0.00 PKD
ROOT
HETATM    1  O   UNL     1     -11.410  13.135  65.100  1.00  0.00    -0.291 OA 
HETATM    2  C   UNL     1     -11.592  13.096  66.450  1.00  0.00    -0.349 A  
HETATM    3  H   UNL     1     -11.450  13.953  64.619  1.00  0.00     0.000 HD 
HETATM    4  C   UNL     1     -11.532  11.898  67.153  1.00  0.00    -0.386 A  
HETATM    5  C   UNL     1     -11.744  11.905  68.533  1.00  0.00    -0.388 A  
HETATM    6  C   UNL     1     -12.013  13.107  69.210  1.00  0.00    -0.344 A  
HETATM    7  C   UNL     1     -11.846  14.297  67.104  1.00  0.00    -0.454 A  
HETATM    8  C   UNL     1     -12.058  14.306  68.487  1.00  0.00    -0.295 A  
ENDROOT
BRANCH   6   9
HETATM    9  C   UNL     1     -12.258  13.038  70.678  1.00  0.00    -0.307 C  
HETATM   10  O   UNL     1     -12.595  14.009  71.336  1.00  0.00    -0.341 OA 
BRANCH   9  11
HETATM   11  O   UNL     1     -12.022  11.793  71.152  1.00  0.00    -0.090 OA 
BRANCH  11  12
HETATM   12  C   UNL     1     -13.116  11.165  71.839  1.00  0.00    -0.408 C  
BRANCH  12  13
HETATM   13  C   UNL     1     -12.985   9.666  71.745  1.00  0.00    -0.514 A  
HETATM   14  C   UNL     1     -11.732   9.073  71.526  1.00  0.00    -0.415 A  
HETATM   15  C   UNL     1     -11.608   7.684  71.455  1.00  0.00    -0.300 A  
HETATM   16  C   UNL     1     -12.732   6.875  71.602  1.00  0.00    -0.396 A  
HETATM   17  C   UNL     1     -13.982   7.452  71.820  1.00  0.00    -0.469 A  
HETATM   18  C   UNL     1     -14.108   8.840  71.890  1.00  0.00    -0.488 A  
ENDBRANCH  12  13
ENDBRANCH  11  12
ENDBRANCH   9  11
ENDBRANCH   6   9
TORSDOF 4
ENDMDL
MODEL       66
REMARK 921   NORMALIZED FREE ENERGY PREDICTED BY IDOCK:   -4.89 KCAL/MOL
REMARK 922        TOTAL FREE ENERGY PREDICTED BY IDOCK:   -6.66 KCAL/MOL
REMARK 923 INTER-LIGAND FREE ENERGY PREDICTED BY IDOCK:   -5.80 KCAL/MOL
REMARK 924 INTRA-LIGAND FREE ENERGY PREDICTED BY IDOCK:   -0.85 KCAL/MOL
REMARK 927      BINDING AFFINITY PREDICTED BY RF-SCORE:    0.00 PKD
ROOT
HETATM    1  O   UNL     1      -7.830   8.558  64.773  1.00  0.00    -0.110 OA 
HETATM    2  C   UNL     1      -8.799   9.480  64.509  1.00  0.00    -0.213 A  
HETATM    3  H   UNL     1      -7.262   8.229  64.088  1.00  0.00     0.000 HD 
HETATM    4  C   UNL     1      -9.630   9.963  65.513  1.00  0.00    -0.341 A  
HETATM    5  C   UNL     1     -10.621  10.894  65.191  1.00  0.00    -0.268 A  
HETATM    6  C   UNL     1     -10.778  11.342  63.869  1.00  0.00    -0.462 A  
HETATM    7  C   UNL     1      -8.933   9.921  63.197  1.00  0.00    -0.275 A  
HETATM    8  C   UNL     1      -9.924  10.854  62.872  1.00  0.00    -0.251 A  
ENDROOT
BRANCH   6   9
HETATM    9  C   UNL     1     -11.874  12.313  63.590  1.00  0.00    -0.522 C  
HETATM   10  O   UNL     1     -12.997  11.964  63.261  1.00  0.00    -0.707 OA 
BRANCH   9  11
HETATM   11  O   UNL     1     -11.438  13.587  63.718  1.00  0.00    -0.313 OA 
BRANCH  11  12
HETATM   12  C   UNL     1     -12.156  14.406  64.653  1.00  0.00    -0.471 C  
BRANCH  12  13
HETATM   13  C   UNL     1     -11.500  14.328  66.008  1.00  0.00    -0.347 A  
HETATM   14  C   UNL     1     -12.107  13.616  67.053  1.00  0.00    -0.423 A  
HETATM   15  C   UNL     1     -11.492  13.530  68.304  1.00  0.00    -0.345 A  
HETATM   16  C   UNL     1     -10.266  14.153  68.523  1.00  0.00    -0.247 A  
HETATM   17  C   UNL     1      -9.652  14.863  67.492  1.00  0.00    -0.204 A  
HETATM   18  C   UNL     1     -10.266  14.951  66.242  1.00  0.00    -0.306 A  
ENDBRANCH  12  13
ENDBRANCH  11  12
ENDBRANCH   9  11
ENDBRANCH   6   9
TORSDOF 4
ENDMDL
MODEL       67
REMARK 921   NORMALIZED FREE ENERGY PREDICTED BY IDOCK:   -4.88 KCAL/MOL
REMARK 922        TOTAL FREE ENERGY PREDICTED BY IDOCK:   -6.64 KCAL/MOL
REMARK 923 INTER-LIGAND FREE ENERGY PREDICTED BY IDOCK:   -6.00 KCAL/MOL
REMARK 924 INTRA-LIGAND FREE ENERGY PREDICTED BY IDOCK:   -0.64 KCAL/MOL
REMARK 927      BINDING AFFINITY PREDICTED BY RF-SCORE:    0.00 PKD
ROOT
HETATM    1  O   UNL     1      -8.667   7.435  65.077  1.00  0.00    -0.355 OA 
HETATM    2  C   UNL     1      -9.307   8.458  65.710  1.00  0.00    -0.071 A  
HETATM    3  H   UNL     1      -8.694   6.549  65.417  1.00  0.00     0.000 HD 
HETATM    4  C   UNL     1      -9.267   9.755  65.211  1.00  0.00    -0.294 A  
HETATM    5  C   UNL     1      -9.924  10.774  65.905  1.00  0.00    -0.304 A  
HETATM    6  C   UNL     1     -10.620  10.498  67.093  1.00  0.00    -0.319 A  
HETATM    7  C   UNL     1     -10.001   8.163  66.879  1.00  0.00    -0.343 A  
HETATM    8  C   UNL     1     -10.659   9.183  67.575  1.00  0.00    -0.317 A  
ENDROOT
BRANCH   6   9
HETATM    9  C   UNL     1     -11.272  11.636  67.798  1.00  0.00    -0.268 C  
HETATM   10  O   UNL     1     -12.043  12.402  67.241  1.00  0.00    -0.516 OA 
BRANCH   9  11
HETATM   11  O   UNL     1     -10.865  11.708  69.086  1.00  0.00    -0.221 OA 
BRANCH  11  12
HETATM   12  C   UNL     1     -11.901  11.904  70.062  1.00  0.00    -0.328 C  
BRANCH  12  13
HETATM   13  C   UNL     1     -12.031  10.673  70.922  1.00  0.00    -0.469 A  
HETATM   14  C   UNL     1     -13.233  10.394  71.589  1.00  0.00    -0.502 A  
HETATM   15  C   UNL     1     -13.359   9.246  72.374  1.00  0.00    -0.521 A  
HETATM   16  C   UNL     1     -12.287   8.365  72.498  1.00  0.00    -0.358 A  
HETATM   17  C   UNL     1     -11.087   8.631  71.839  1.00  0.00    -0.416 A  
HETATM   18  C   UNL     1     -10.959   9.779  71.057  1.00  0.00    -0.402 A  
ENDBRANCH  12  13
ENDBRANCH  11  12
ENDBRANCH   9  11
ENDBRANCH   6   9
TORSDOF 4
ENDMDL
MODEL       68
REMARK 921   NORMALIZED FREE ENERGY PREDICTED BY IDOCK:   -4.88 KCAL/MOL
REMARK 922        TOTAL FREE ENERGY PREDICTED BY IDOCK:   -6.64 KCAL/MOL
REMARK 923 INTER-LIGAND FREE ENERGY PREDICTED BY IDOCK:   -5.79 KCAL/MOL
REMARK 924 INTRA-LIGAND FREE ENERGY PREDICTED BY IDOCK:   -0.85 KCAL/MOL
REMARK 927      BINDING AFFINITY PREDICTED BY RF-SCORE:    0.00 PKD
ROOT
HETATM    1  O   UNL     1     -10.262   5.264  65.731  1.00  0.00    -0.390 OA 
HETATM    2  C   UNL     1     -10.307   5.382  67.088  1.00  0.00    -0.236 A  
HETATM    3  H   UNL     1      -9.819   4.535  65.313  1.00  0.00     0.000 HD 
HETATM    4  C   UNL     1     -10.956   6.448  67.699  1.00  0.00    -0.441 A  
HETATM    5  C   UNL     1     -10.961   6.537  69.093  1.00  0.00    -0.380 A  
HETATM    6  C   UNL     1     -10.319   5.561  69.874  1.00  0.00    -0.368 A  
HETATM    7  C   UNL     1      -9.676   4.401  67.845  1.00  0.00    -0.186 A  
HETATM    8  C   UNL     1      -9.680   4.487  69.241  1.00  0.00    -0.260 A  
ENDROOT
BRANCH   6   9
HETATM    9  C   UNL     1     -10.337   5.733  71.354  1.00  0.00    -0.224 C  
HETATM   10  O   UNL     1     -10.978   5.006  72.095  1.00  0.00    -0.162 OA 
BRANCH   9  11
HETATM   11  O   UNL     1      -9.591   6.799  71.728  1.00  0.00    -0.158 OA 
BRANCH  11  12
HETATM   12  C   UNL     1     -10.167   7.645  72.735  1.00  0.00    -0.279 C  
BRANCH  12  13
HETATM   13  C   UNL     1     -11.128   8.616  72.097  1.00  0.00    -0.434 A  
HETATM   14  C   UNL     1     -12.488   8.603  72.441  1.00  0.00    -0.428 A  
HETATM   15  C   UNL     1     -13.374   9.513  71.861  1.00  0.00    -0.518 A  
HETATM   16  C   UNL     1     -12.912  10.444  70.933  1.00  0.00    -0.475 A  
HETATM   17  C   UNL     1     -11.562  10.467  70.584  1.00  0.00    -0.445 A  
HETATM   18  C   UNL     1     -10.675   9.557  71.161  1.00  0.00    -0.408 A  
ENDBRANCH  12  13
ENDBRANCH  11  12
ENDBRANCH   9  11
ENDBRANCH   6   9
TORSDOF 4
ENDMDL
MODEL       69
REMARK 921   NORMALIZED FREE ENERGY PREDICTED BY IDOCK:   -4.88 KCAL/MOL
REMARK 922        TOTAL FREE ENERGY PREDICTED BY IDOCK:   -6.64 KCAL/MOL
REMARK 923 INTER-LIGAND FREE ENERGY PREDICTED BY IDOCK:   -6.00 KCAL/MOL
REMARK 924 INTRA-LIGAND FREE ENERGY PREDICTED BY IDOCK:   -0.64 KCAL/MOL
REMARK 927      BINDING AFFINITY PREDICTED BY RF-SCORE:    0.00 PKD
ROOT
HETATM    1  O   UNL     1     -12.008  14.532  69.721  1.00  0.00    -0.294 OA 
HETATM    2  C   UNL     1     -12.274  13.311  70.264  1.00  0.00    -0.321 A  
HETATM    3  H   UNL     1     -12.297  15.333  70.140  1.00  0.00     0.000 HD 
HETATM    4  C   UNL     1     -11.850  12.138  69.650  1.00  0.00    -0.391 A  
HETATM    5  C   UNL     1     -12.162  10.909  70.235  1.00  0.00    -0.432 A  
HETATM    6  C   UNL     1     -12.895  10.852  71.432  1.00  0.00    -0.554 A  
HETATM    7  C   UNL     1     -12.991  13.275  71.456  1.00  0.00    -0.426 A  
HETATM    8  C   UNL     1     -13.304  12.045  72.044  1.00  0.00    -0.447 A  
ENDROOT
BRANCH   6   9
HETATM    9  C   UNL     1     -13.219   9.508  71.986  1.00  0.00    -0.452 C  
HETATM   10  O   UNL     1     -14.163   9.312  72.735  1.00  0.00    -0.502 OA 
BRANCH   9  11
HETATM   11  O   UNL     1     -12.319   8.584  71.576  1.00  0.00    -0.298 OA 
BRANCH  11  12
HETATM   12  C   UNL     1     -11.565   7.939  72.614  1.00  0.00    -0.377 C  
BRANCH  12  13
HETATM   13  C   UNL     1     -10.090   8.149  72.378  1.00  0.00    -0.355 A  
HETATM   14  C   UNL     1      -9.154   7.795  73.361  1.00  0.00    -0.336 A  
HETATM   15  C   UNL     1      -7.788   7.975  73.136  1.00  0.00    -0.206 A  
HETATM   16  C   UNL     1      -7.343   8.509  71.929  1.00  0.00    -0.119 A  
HETATM   17  C   UNL     1      -8.264   8.865  70.944  1.00  0.00    -0.207 A  
HETATM   18  C   UNL     1      -9.630   8.687  71.167  1.00  0.00    -0.281 A  
ENDBRANCH  12  13
ENDBRANCH  11  12
ENDBRANCH   9  11
ENDBRANCH   6   9
TORSDOF 4
ENDMDL
MODEL       70
REMARK 921   NORMALIZED FREE ENERGY PREDICTED BY IDOCK:   -4.87 KCAL/MOL
REMARK 922        TOTAL FREE ENERGY PREDICTED BY IDOCK:   -6.63 KCAL/MOL
REMARK 923 INTER-LIGAND FREE ENERGY PREDICTED BY IDOCK:   -6.25 KCAL/MOL
REMARK 924 INTRA-LIGAND FREE ENERGY PREDICTED BY IDOCK:   -0.38 KCAL/MOL
REMARK 927      BINDING AFFINITY PREDICTED BY RF-SCORE:    0.00 PKD
ROOT
HETATM    1  O   UNL     1     -14.273  13.500  72.696  1.00  0.00    -0.751 OA 
HETATM    2  C   UNL     1     -13.398  13.147  71.712  1.00  0.00    -0.389 A  
HETATM    3  H   UNL     1     -14.517  14.406  72.840  1.00  0.00     0.000 HD 
HETATM    4  C   UNL     1     -13.042  11.820  71.503  1.00  0.00    -0.389 A  
HETATM    5  C   UNL     1     -12.127  11.510  70.493  1.00  0.00    -0.472 A  
HETATM    6  C   UNL     1     -11.571  12.524  69.695  1.00  0.00    -0.323 A  
HETATM    7  C   UNL     1     -12.866  14.163  70.925  1.00  0.00    -0.404 A  
HETATM    8  C   UNL     1     -11.950  13.854  69.914  1.00  0.00    -0.405 A  
ENDROOT
BRANCH   6   9
HETATM    9  C   UNL     1     -10.579  12.126  68.657  1.00  0.00    -0.223 C  
HETATM   10  O   UNL     1      -9.687  11.320  68.871  1.00  0.00    -0.196 OA 
BRANCH   9  11
HETATM   11  O   UNL     1     -10.791  12.796  67.501  1.00  0.00    -0.231 OA 
BRANCH  11  12
HETATM   12  C   UNL     1     -11.669  12.162  66.559  1.00  0.00    -0.321 C  
BRANCH  12  13
HETATM   13  C   UNL     1     -10.871  11.623  65.399  1.00  0.00    -0.336 A  
HETATM   14  C   UNL     1     -10.816  12.326  64.186  1.00  0.00    -0.412 A  
HETATM   15  C   UNL     1     -10.064  11.835  63.116  1.00  0.00    -0.386 A  
HETATM   16  C   UNL     1      -9.360  10.640  63.248  1.00  0.00    -0.329 A  
HETATM   17  C   UNL     1      -9.407   9.933  64.449  1.00  0.00    -0.326 A  
HETATM   18  C   UNL     1     -10.160  10.421  65.518  1.00  0.00    -0.352 A  
ENDBRANCH  12  13
ENDBRANCH  11  12
ENDBRANCH   9  11
ENDBRANCH   6   9
TORSDOF 4
ENDMDL
MODEL       71
REMARK 921   NORMALIZED FREE ENERGY PREDICTED BY IDOCK:   -4.85 KCAL/MOL
REMARK 922        TOTAL FREE ENERGY PREDICTED BY IDOCK:   -6.61 KCAL/MOL
REMARK 923 INTER-LIGAND FREE ENERGY PREDICTED BY IDOCK:   -6.20 KCAL/MOL
REMARK 924 INTRA-LIGAND FREE ENERGY PREDICTED BY IDOCK:   -0.41 KCAL/MOL
REMARK 927      BINDING AFFINITY PREDICTED BY RF-SCORE:    0.00 PKD
ROOT
HETATM    1  O   UNL     1      -7.986  21.130  66.893  1.00  0.00    -0.609 OA 
HETATM    2  C   UNL     1      -8.573  19.909  67.044  1.00  0.00    -0.330 A  
HETATM    3  H   UNL     1      -8.498  21.929  66.908  1.00  0.00     0.000 HD 
HETATM    4  C   UNL     1      -7.824  18.739  67.022  1.00  0.00    -0.249 A  
HETATM    5  C   UNL     1      -8.472  17.509  67.164  1.00  0.00    -0.232 A  
HETATM    6  C   UNL     1      -9.866  17.451  67.328  1.00  0.00    -0.278 A  
HETATM    7  C   UNL     1      -9.953  19.871  67.217  1.00  0.00    -0.556 A  
HETATM    8  C   UNL     1     -10.604  18.641  67.359  1.00  0.00    -0.490 A  
ENDROOT
BRANCH   6   9
HETATM    9  C   UNL     1     -10.496  16.106  67.443  1.00  0.00    -0.310 C  
HETATM   10  O   UNL     1     -10.205  15.314  68.325  1.00  0.00    -0.222 OA 
BRANCH   9  11
HETATM   11  O   UNL     1     -11.377  15.894  66.437  1.00  0.00    -0.007 OA 
BRANCH  11  12
HETATM   12  C   UNL     1     -10.806  15.651  65.142  1.00  0.00    -0.431 C  
BRANCH  12  13
HETATM   13  C   UNL     1     -11.005  14.207  64.759  1.00  0.00    -0.409 A  
HETATM   14  C   UNL     1     -12.023  13.841  63.866  1.00  0.00    -0.414 A  
HETATM   15  C   UNL     1     -12.198  12.505  63.499  1.00  0.00    -0.652 A  
HETATM   16  C   UNL     1     -11.359  11.523  64.020  1.00  0.00    -0.380 A  
HETATM   17  C   UNL     1     -10.344  11.874  64.908  1.00  0.00    -0.328 A  
HETATM   18  C   UNL     1     -10.168  13.209  65.277  1.00  0.00    -0.299 A  
ENDBRANCH  12  13
ENDBRANCH  11  12
ENDBRANCH   9  11
ENDBRANCH   6   9
TORSDOF 4
ENDMDL
MODEL       72
REMARK 921   NORMALIZED FREE ENERGY PREDICTED BY IDOCK:   -4.84 KCAL/MOL
REMARK 922        TOTAL FREE ENERGY PREDICTED BY IDOCK:   -6.59 KCAL/MOL
REMARK 923 INTER-LIGAND FREE ENERGY PREDICTED BY IDOCK:   -6.23 KCAL/MOL
REMARK 924 INTRA-LIGAND FREE ENERGY PREDICTED BY IDOCK:   -0.36 KCAL/MOL
REMARK 927      BINDING AFFINITY PREDICTED BY RF-SCORE:    0.00 PKD
ROOT
HETATM    1  O   UNL     1     -13.616  10.905  72.415  1.00  0.00    -0.545 OA 
HETATM    2  C   UNL     1     -12.999  11.666  71.467  1.00  0.00    -0.358 A  
HETATM    3  H   UNL     1     -14.076  11.302  73.145  1.00  0.00     0.000 HD 
HETATM    4  C   UNL     1     -12.326  11.084  70.399  1.00  0.00    -0.442 A  
HETATM    5  C   UNL     1     -11.695  11.905  69.461  1.00  0.00    -0.410 A  
HETATM    6  C   UNL     1     -11.737  13.303  69.591  1.00  0.00    -0.369 A  
HETATM    7  C   UNL     1     -13.062  13.049  71.605  1.00  0.00    -0.440 A  
HETATM    8  C   UNL     1     -12.430  13.872  70.667  1.00  0.00    -0.436 A  
ENDROOT
BRANCH   6   9
HETATM    9  C   UNL     1     -11.017  14.117  68.572  1.00  0.00    -0.254 C  
HETATM   10  O   UNL     1     -10.613  13.650  67.519  1.00  0.00    -0.239 OA 
BRANCH   9  11
HETATM   11  O   UNL     1     -10.855  15.393  68.995  1.00  0.00    -0.224 OA 
BRANCH  11  12
HETATM   12  C   UNL     1     -11.375  16.412  68.128  1.00  0.00    -0.205 C  
BRANCH  12  13
HETATM   13  C   UNL     1     -10.434  17.590  68.104  1.00  0.00    -0.386 A  
HETATM   14  C   UNL     1     -10.872  18.843  67.649  1.00  0.00    -0.407 A  
HETATM   15  C   UNL     1     -10.004  19.937  67.641  1.00  0.00    -0.553 A  
HETATM   16  C   UNL     1      -8.693  19.791  68.088  1.00  0.00    -0.333 A  
HETATM   17  C   UNL     1      -8.246  18.552  68.543  1.00  0.00    -0.360 A  
HETATM   18  C   UNL     1      -9.111  17.456  68.549  1.00  0.00    -0.273 A  
ENDBRANCH  12  13
ENDBRANCH  11  12
ENDBRANCH   9  11
ENDBRANCH   6   9
TORSDOF 4
ENDMDL
MODEL       73
REMARK 921   NORMALIZED FREE ENERGY PREDICTED BY IDOCK:   -4.82 KCAL/MOL
REMARK 922        TOTAL FREE ENERGY PREDICTED BY IDOCK:   -6.57 KCAL/MOL
REMARK 923 INTER-LIGAND FREE ENERGY PREDICTED BY IDOCK:   -5.91 KCAL/MOL
REMARK 924 INTRA-LIGAND FREE ENERGY PREDICTED BY IDOCK:   -0.66 KCAL/MOL
REMARK 927      BINDING AFFINITY PREDICTED BY RF-SCORE:    0.00 PKD
ROOT
HETATM    1  O   UNL     1     -14.015  15.996  73.376  1.00  0.00    -0.751 OA 
HETATM    2  C   UNL     1     -13.480  15.176  72.427  1.00  0.00    -0.449 A  
HETATM    3  H   UNL     1     -13.996  16.940  73.281  1.00  0.00     0.000 HD 
HETATM    4  C   UNL     1     -13.508  13.794  72.566  1.00  0.00    -0.682 A  
HETATM    5  C   UNL     1     -12.932  12.996  71.575  1.00  0.00    -0.398 A  
HETATM    6  C   UNL     1     -12.329  13.579  70.448  1.00  0.00    -0.397 A  
HETATM    7  C   UNL     1     -12.898  15.771  71.312  1.00  0.00    -0.486 A  
HETATM    8  C   UNL     1     -12.320  14.973  70.319  1.00  0.00    -0.392 A  
ENDROOT
BRANCH   6   9
HETATM    9  C   UNL     1     -11.707  12.670  69.444  1.00  0.00    -0.325 C  
HETATM   10  O   UNL     1     -11.671  11.458  69.584  1.00  0.00    -0.285 OA 
BRANCH   9  11
HETATM   11  O   UNL     1     -11.176  13.372  68.416  1.00  0.00    -0.250 OA 
BRANCH  11  12
HETATM   12  C   UNL     1      -9.756  13.250  68.239  1.00  0.00    -0.225 C  
BRANCH  12  13
HETATM   13  C   UNL     1      -9.104  14.599  68.404  1.00  0.00    -0.192 A  
HETATM   14  C   UNL     1      -9.797  15.771  68.064  1.00  0.00    -0.217 A  
HETATM   15  C   UNL     1      -9.198  17.022  68.231  1.00  0.00    -0.255 A  
HETATM   16  C   UNL     1      -7.904  17.114  68.740  1.00  0.00    -0.258 A  
HETATM   17  C   UNL     1      -7.206  15.957  69.082  1.00  0.00    -0.196 A  
HETATM   18  C   UNL     1      -7.802  14.706  68.913  1.00  0.00    -0.148 A  
ENDBRANCH  12  13
ENDBRANCH  11  12
ENDBRANCH   9  11
ENDBRANCH   6   9
TORSDOF 4
ENDMDL
MODEL       74
REMARK 921   NORMALIZED FREE ENERGY PREDICTED BY IDOCK:   -4.81 KCAL/MOL
REMARK 922        TOTAL FREE ENERGY PREDICTED BY IDOCK:   -6.55 KCAL/MOL
REMARK 923 INTER-LIGAND FREE ENERGY PREDICTED BY IDOCK:   -6.04 KCAL/MOL
REMARK 924 INTRA-LIGAND FREE ENERGY PREDICTED BY IDOCK:   -0.51 KCAL/MOL
REMARK 927      BINDING AFFINITY PREDICTED BY RF-SCORE:    0.00 PKD
ROOT
HETATM    1  O   UNL     1     -14.137   8.938  73.206  1.00  0.00    -1.211 OA 
HETATM    2  C   UNL     1     -13.089   9.186  72.370  1.00  0.00    -0.423 A  
HETATM    3  H   UNL     1     -14.809   9.590  73.362  1.00  0.00     0.000 HD 
HETATM    4  C   UNL     1     -12.105   8.231  72.141  1.00  0.00    -0.425 A  
HETATM    5  C   UNL     1     -11.040   8.537  71.291  1.00  0.00    -0.320 A  
HETATM    6  C   UNL     1     -10.959   9.795  70.671  1.00  0.00    -0.398 A  
HETATM    7  C   UNL     1     -13.031  10.433  71.756  1.00  0.00    -0.580 A  
HETATM    8  C   UNL     1     -11.966  10.741  70.904  1.00  0.00    -0.438 A  
ENDROOT
BRANCH   6   9
HETATM    9  C   UNL     1      -9.781  10.066  69.800  1.00  0.00    -0.226 C  
HETATM   10  O   UNL     1      -8.640   9.783  70.126  1.00  0.00    -0.203 OA 
BRANCH   9  11
HETATM   11  O   UNL     1     -10.155  10.684  68.655  1.00  0.00    -0.168 OA 
BRANCH  11  12
HETATM   12  C   UNL     1     -10.972   9.911  67.763  1.00  0.00    -0.217 C  
BRANCH  12  13
HETATM   13  C   UNL     1     -10.120   8.901  67.036  1.00  0.00    -0.331 A  
HETATM   14  C   UNL     1      -9.122   9.321  66.145  1.00  0.00    -0.224 A  
HETATM   15  C   UNL     1      -8.323   8.387  65.483  1.00  0.00    -0.161 A  
HETATM   16  C   UNL     1      -8.512   7.025  65.706  1.00  0.00    -0.154 A  
HETATM   17  C   UNL     1      -9.500   6.594  66.591  1.00  0.00    -0.201 A  
HETATM   18  C   UNL     1     -10.301   7.527  67.251  1.00  0.00    -0.366 A  
ENDBRANCH  12  13
ENDBRANCH  11  12
ENDBRANCH   9  11
ENDBRANCH   6   9
TORSDOF 4
ENDMDL
MODEL       75
REMARK 921   NORMALIZED FREE ENERGY PREDICTED BY IDOCK:   -4.79 KCAL/MOL
REMARK 922        TOTAL FREE ENERGY PREDICTED BY IDOCK:   -6.53 KCAL/MOL
REMARK 923 INTER-LIGAND FREE ENERGY PREDICTED BY IDOCK:   -6.17 KCAL/MOL
REMARK 924 INTRA-LIGAND FREE ENERGY PREDICTED BY IDOCK:   -0.36 KCAL/MOL
REMARK 927      BINDING AFFINITY PREDICTED BY RF-SCORE:    0.00 PKD
ROOT
HETATM    1  O   UNL     1     -12.119  15.376  63.705  1.00  0.00    -0.945 OA 
HETATM    2  C   UNL     1     -11.928  14.353  64.585  1.00  0.00    -0.464 A  
HETATM    3  H   UNL     1     -12.460  16.216  63.989  1.00  0.00     0.000 HD 
HETATM    4  C   UNL     1     -11.430  13.124  64.169  1.00  0.00    -0.449 A  
HETATM    5  C   UNL     1     -11.268  12.100  65.104  1.00  0.00    -0.378 A  
HETATM    6  C   UNL     1     -11.603  12.304  66.454  1.00  0.00    -0.445 A  
HETATM    7  C   UNL     1     -12.254  14.577  65.919  1.00  0.00    -0.270 A  
HETATM    8  C   UNL     1     -12.093  13.553  66.858  1.00  0.00    -0.417 A  
ENDROOT
BRANCH   6   9
HETATM    9  C   UNL     1     -11.433  11.160  67.392  1.00  0.00    -0.180 C  
HETATM   10  O   UNL     1     -12.139  11.004  68.377  1.00  0.00    -0.594 OA 
BRANCH   9  11
HETATM   11  O   UNL     1     -10.396  10.374  67.020  1.00  0.00    -0.217 OA 
BRANCH  11  12
HETATM   12  C   UNL     1      -9.663   9.754  68.087  1.00  0.00    -0.145 C  
BRANCH  12  13
HETATM   13  C   UNL     1     -10.045   8.300  68.191  1.00  0.00    -0.238 A  
HETATM   14  C   UNL     1     -10.575   7.622  67.083  1.00  0.00    -0.410 A  
HETATM   15  C   UNL     1     -10.915   6.270  67.175  1.00  0.00    -0.453 A  
HETATM   16  C   UNL     1     -10.729   5.584  68.372  1.00  0.00    -0.156 A  
HETATM   17  C   UNL     1     -10.203   6.246  69.480  1.00  0.00    -0.239 A  
HETATM   18  C   UNL     1      -9.864   7.597  69.391  1.00  0.00    -0.171 A  
ENDBRANCH  12  13
ENDBRANCH  11  12
ENDBRANCH   9  11
ENDBRANCH   6   9
TORSDOF 4
ENDMDL
MODEL       76
REMARK 921   NORMALIZED FREE ENERGY PREDICTED BY IDOCK:   -4.77 KCAL/MOL
REMARK 922        TOTAL FREE ENERGY PREDICTED BY IDOCK:   -6.51 KCAL/MOL
REMARK 923 INTER-LIGAND FREE ENERGY PREDICTED BY IDOCK:   -6.12 KCAL/MOL
REMARK 924 INTRA-LIGAND FREE ENERGY PREDICTED BY IDOCK:   -0.39 KCAL/MOL
REMARK 927      BINDING AFFINITY PREDICTED BY RF-SCORE:    0.00 PKD
ROOT
HETATM    1  O   UNL     1     -12.975  16.186  71.145  1.00  0.00    -0.524 OA 
HETATM    2  C   UNL     1     -12.653  14.972  70.616  1.00  0.00    -0.374 A  
HETATM    3  H   UNL     1     -12.866  16.987  70.647  1.00  0.00     0.000 HD 
HETATM    4  C   UNL     1     -12.813  13.800  71.345  1.00  0.00    -0.449 A  
HETATM    5  C   UNL     1     -12.453  12.581  70.766  1.00  0.00    -0.357 A  
HETATM    6  C   UNL     1     -11.936  12.534  69.461  1.00  0.00    -0.329 A  
HETATM    7  C   UNL     1     -12.153  14.944  69.318  1.00  0.00    -0.286 A  
HETATM    8  C   UNL     1     -11.792  13.724  68.736  1.00  0.00    -0.398 A  
ENDROOT
BRANCH   6   9
HETATM    9  C   UNL     1     -11.544  11.203  68.916  1.00  0.00    -0.317 C  
HETATM   10  O   UNL     1     -11.710  10.894  67.747  1.00  0.00    -0.569 OA 
BRANCH   9  11
HETATM   11  O   UNL     1     -11.031  10.412  69.887  1.00  0.00    -0.266 OA 
BRANCH  11  12
HETATM   12  C   UNL     1     -10.672   9.081  69.487  1.00  0.00    -0.206 C  
BRANCH  12  13
HETATM   13  C   UNL     1     -10.774   8.149  70.668  1.00  0.00    -0.238 A  
HETATM   14  C   UNL     1     -10.742   8.652  71.977  1.00  0.00    -0.427 A  
HETATM   15  C   UNL     1     -10.851   7.790  73.070  1.00  0.00    -0.451 A  
HETATM   16  C   UNL     1     -10.995   6.419  72.867  1.00  0.00    -0.281 A  
HETATM   17  C   UNL     1     -11.028   5.908  71.571  1.00  0.00    -0.323 A  
HETATM   18  C   UNL     1     -10.917   6.767  70.477  1.00  0.00    -0.327 A  
ENDBRANCH  12  13
ENDBRANCH  11  12
ENDBRANCH   9  11
ENDBRANCH   6   9
TORSDOF 4
ENDMDL
MODEL       77
REMARK 921   NORMALIZED FREE ENERGY PREDICTED BY IDOCK:   -4.77 KCAL/MOL
REMARK 922        TOTAL FREE ENERGY PREDICTED BY IDOCK:   -6.51 KCAL/MOL
REMARK 923 INTER-LIGAND FREE ENERGY PREDICTED BY IDOCK:   -6.00 KCAL/MOL
REMARK 924 INTRA-LIGAND FREE ENERGY PREDICTED BY IDOCK:   -0.51 KCAL/MOL
REMARK 927      BINDING AFFINITY PREDICTED BY RF-SCORE:    0.00 PKD
ROOT
HETATM    1  O   UNL     1     -10.064   6.758  69.065  1.00  0.00    -0.155 OA 
HETATM    2  C   UNL     1     -10.350   8.021  68.638  1.00  0.00    -0.200 A  
HETATM    3  H   UNL     1     -10.134   6.518  69.981  1.00  0.00     0.000 HD 
HETATM    4  C   UNL     1     -10.248   8.371  67.297  1.00  0.00    -0.349 A  
HETATM    5  C   UNL     1     -10.535   9.682  66.909  1.00  0.00    -0.282 A  
HETATM    6  C   UNL     1     -10.923  10.640  67.861  1.00  0.00    -0.351 A  
HETATM    7  C   UNL     1     -10.744   8.953  69.592  1.00  0.00    -0.222 A  
HETATM    8  C   UNL     1     -11.031  10.267  69.206  1.00  0.00    -0.284 A  
ENDROOT
BRANCH   6   9
HETATM    9  C   UNL     1     -11.184  12.027  67.384  1.00  0.00    -0.307 C  
HETATM   10  O   UNL     1     -10.624  12.507  66.411  1.00  0.00    -0.242 OA 
BRANCH   9  11
HETATM   11  O   UNL     1     -12.074  12.658  68.185  1.00  0.00    -0.278 OA 
BRANCH  11  12
HETATM   12  C   UNL     1     -11.597  13.841  68.844  1.00  0.00    -0.319 C  
BRANCH  12  13
HETATM   13  C   UNL     1     -12.339  14.038  70.141  1.00  0.00    -0.409 A  
HETATM   14  C   UNL     1     -12.747  15.319  70.541  1.00  0.00    -0.440 A  
HETATM   15  C   UNL     1     -13.449  15.499  71.735  1.00  0.00    -0.576 A  
HETATM   16  C   UNL     1     -13.750  14.402  72.540  1.00  0.00    -0.589 A  
HETATM   17  C   UNL     1     -13.350  13.124  72.153  1.00  0.00    -0.621 A  
HETATM   18  C   UNL     1     -12.648  12.942  70.960  1.00  0.00    -0.376 A  
ENDBRANCH  12  13
ENDBRANCH  11  12
ENDBRANCH   9  11
ENDBRANCH   6   9
TORSDOF 4
ENDMDL
MODEL       78
REMARK 921   NORMALIZED FREE ENERGY PREDICTED BY IDOCK:   -4.77 KCAL/MOL
REMARK 922        TOTAL FREE ENERGY PREDICTED BY IDOCK:   -6.50 KCAL/MOL
REMARK 923 INTER-LIGAND FREE ENERGY PREDICTED BY IDOCK:   -5.91 KCAL/MOL
REMARK 924 INTRA-LIGAND FREE ENERGY PREDICTED BY IDOCK:   -0.59 KCAL/MOL
REMARK 927      BINDING AFFINITY PREDICTED BY RF-SCORE:    0.00 PKD
ROOT
HETATM    1  O   UNL     1      -9.493  10.899  66.261  1.00  0.00    -0.183 OA 
HETATM    2  C   UNL     1     -10.249  10.842  67.394  1.00  0.00    -0.204 A  
HETATM    3  H   UNL     1      -9.669  11.537  65.581  1.00  0.00     0.000 HD 
HETATM    4  C   UNL     1      -9.989   9.908  68.390  1.00  0.00    -0.177 A  
HETATM    5  C   UNL     1     -10.803   9.876  69.525  1.00  0.00    -0.274 A  
HETATM    6  C   UNL     1     -11.872  10.776  69.664  1.00  0.00    -0.392 A  
HETATM    7  C   UNL     1     -11.296  11.749  67.519  1.00  0.00    -0.377 A  
HETATM    8  C   UNL     1     -12.112  11.718  68.656  1.00  0.00    -0.164 A  
ENDROOT
BRANCH   6   9
HETATM    9  C   UNL     1     -12.718  10.667  70.886  1.00  0.00    -0.404 C  
HETATM   10  O   UNL     1     -13.573   9.806  71.022  1.00  0.00    -0.320 OA 
BRANCH   9  11
HETATM   11  O   UNL     1     -12.428  11.653  71.767  1.00  0.00    -0.144 OA 
BRANCH  11  12
HETATM   12  C   UNL     1     -13.505  12.547  72.086  1.00  0.00    -0.422 C  
BRANCH  12  13
HETATM   13  C   UNL     1     -12.993  13.964  72.139  1.00  0.00    -0.441 A  
HETATM   14  C   UNL     1     -13.076  14.707  73.326  1.00  0.00    -0.505 A  
HETATM   15  C   UNL     1     -12.588  16.015  73.379  1.00  0.00    -0.673 A  
HETATM   16  C   UNL     1     -12.011  16.591  72.250  1.00  0.00    -0.365 A  
HETATM   17  C   UNL     1     -11.922  15.862  71.064  1.00  0.00    -0.453 A  
HETATM   18  C   UNL     1     -12.412  14.556  71.009  1.00  0.00    -0.412 A  
ENDBRANCH  12  13
ENDBRANCH  11  12
ENDBRANCH   9  11
ENDBRANCH   6   9
TORSDOF 4
ENDMDL
MODEL       79
REMARK 921   NORMALIZED FREE ENERGY PREDICTED BY IDOCK:   -4.76 KCAL/MOL
REMARK 922        TOTAL FREE ENERGY PREDICTED BY IDOCK:   -6.50 KCAL/MOL
REMARK 923 INTER-LIGAND FREE ENERGY PREDICTED BY IDOCK:   -5.70 KCAL/MOL
REMARK 924 INTRA-LIGAND FREE ENERGY PREDICTED BY IDOCK:   -0.80 KCAL/MOL
REMARK 927      BINDING AFFINITY PREDICTED BY RF-SCORE:    0.00 PKD
ROOT
HETATM    1  O   UNL     1     -13.310  13.871  73.298  1.00  0.00    -0.495 OA 
HETATM    2  C   UNL     1     -12.733  14.371  72.169  1.00  0.00    -0.323 A  
HETATM    3  H   UNL     1     -13.737  13.023  73.301  1.00  0.00     0.000 HD 
HETATM    4  C   UNL     1     -12.107  15.612  72.165  1.00  0.00    -0.539 A  
HETATM    5  C   UNL     1     -11.545  16.090  70.979  1.00  0.00    -0.472 A  
HETATM    6  C   UNL     1     -11.608  15.329  69.800  1.00  0.00    -0.335 A  
HETATM    7  C   UNL     1     -12.795  13.598  71.014  1.00  0.00    -0.360 A  
HETATM    8  C   UNL     1     -12.232  14.075  69.825  1.00  0.00    -0.396 A  
ENDROOT
BRANCH   6   9
HETATM    9  C   UNL     1     -11.015  15.912  68.563  1.00  0.00    -0.324 C  
HETATM   10  O   UNL     1     -10.211  16.830  68.587  1.00  0.00    -0.260 OA 
BRANCH   9  11
HETATM   11  O   UNL     1     -11.514  15.314  67.456  1.00  0.00    -0.333 OA 
BRANCH  11  12
HETATM   12  C   UNL     1     -10.556  14.659  66.611  1.00  0.00    -0.289 C  
BRANCH  12  13
HETATM   13  C   UNL     1     -10.396  13.222  67.039  1.00  0.00    -0.246 A  
HETATM   14  C   UNL     1      -9.222  12.795  67.676  1.00  0.00    -0.192 A  
HETATM   15  C   UNL     1      -9.080  11.467  68.086  1.00  0.00    -0.181 A  
HETATM   16  C   UNL     1     -10.110  10.555  67.865  1.00  0.00    -0.204 A  
HETATM   17  C   UNL     1     -11.282  10.967  67.234  1.00  0.00    -0.330 A  
HETATM   18  C   UNL     1     -11.424  12.293  66.821  1.00  0.00    -0.421 A  
ENDBRANCH  12  13
ENDBRANCH  11  12
ENDBRANCH   9  11
ENDBRANCH   6   9
TORSDOF 4
ENDMDL
MODEL       80
REMARK 921   NORMALIZED FREE ENERGY PREDICTED BY IDOCK:   -4.74 KCAL/MOL
REMARK 922        TOTAL FREE ENERGY PREDICTED BY IDOCK:   -6.47 KCAL/MOL
REMARK 923 INTER-LIGAND FREE ENERGY PREDICTED BY IDOCK:   -6.02 KCAL/MOL
REMARK 924 INTRA-LIGAND FREE ENERGY PREDICTED BY IDOCK:   -0.44 KCAL/MOL
REMARK 927      BINDING AFFINITY PREDICTED BY RF-SCORE:    0.00 PKD
ROOT
HETATM    1  O   UNL     1      -9.456   3.731  68.808  1.00  0.00    -0.161 OA 
HETATM    2  C   UNL     1      -9.975   4.709  69.601  1.00  0.00    -0.211 A  
HETATM    3  H   UNL     1      -9.537   3.766  67.862  1.00  0.00     0.000 HD 
HETATM    4  C   UNL     1      -9.855   4.657  70.985  1.00  0.00    -0.268 A  
HETATM    5  C   UNL     1     -10.420   5.675  71.758  1.00  0.00    -0.284 A  
HETATM    6  C   UNL     1     -11.101   6.742  71.149  1.00  0.00    -0.313 A  
HETATM    7  C   UNL     1     -10.636   5.764  68.980  1.00  0.00    -0.351 A  
HETATM    8  C   UNL     1     -11.202   6.784  69.753  1.00  0.00    -0.368 A  
ENDROOT
BRANCH   6   9
HETATM    9  C   UNL     1     -11.705   7.777  72.034  1.00  0.00    -0.304 C  
HETATM   10  O   UNL     1     -11.395   7.903  73.209  1.00  0.00    -0.312 OA 
BRANCH   9  11
HETATM   11  O   UNL     1     -12.637   8.500  71.371  1.00  0.00    -0.309 OA 
BRANCH  11  12
HETATM   12  C   UNL     1     -13.205   9.604  72.093  1.00  0.00    -0.444 C  
BRANCH  12  13
HETATM   13  C   UNL     1     -12.828  10.900  71.422  1.00  0.00    -0.554 A  
HETATM   14  C   UNL     1     -13.185  12.129  71.997  1.00  0.00    -0.496 A  
HETATM   15  C   UNL     1     -12.823  13.330  71.384  1.00  0.00    -0.411 A  
HETATM   16  C   UNL     1     -12.101  13.316  70.192  1.00  0.00    -0.403 A  
HETATM   17  C   UNL     1     -11.740  12.101  69.611  1.00  0.00    -0.396 A  
HETATM   18  C   UNL     1     -12.103  10.899  70.222  1.00  0.00    -0.440 A  
ENDBRANCH  12  13
ENDBRANCH  11  12
ENDBRANCH   9  11
ENDBRANCH   6   9
TORSDOF 4
ENDMDL
MODEL       81
REMARK 921   NORMALIZED FREE ENERGY PREDICTED BY IDOCK:   -4.72 KCAL/MOL
REMARK 922        TOTAL FREE ENERGY PREDICTED BY IDOCK:   -6.45 KCAL/MOL
REMARK 923 INTER-LIGAND FREE ENERGY PREDICTED BY IDOCK:   -6.06 KCAL/MOL
REMARK 924 INTRA-LIGAND FREE ENERGY PREDICTED BY IDOCK:   -0.39 KCAL/MOL
REMARK 927      BINDING AFFINITY PREDICTED BY RF-SCORE:    0.00 PKD
ROOT
HETATM    1  O   UNL     1     -13.930  12.993  72.788  1.00  0.00    -0.745 OA 
HETATM    2  C   UNL     1     -13.299  13.550  71.716  1.00  0.00    -0.397 A  
HETATM    3  H   UNL     1     -13.925  12.054  72.931  1.00  0.00     0.000 HD 
HETATM    4  C   UNL     1     -13.307  14.925  71.508  1.00  0.00    -0.476 A  
HETATM    5  C   UNL     1     -12.661  15.449  70.386  1.00  0.00    -0.407 A  
HETATM    6  C   UNL     1     -12.010  14.601  69.474  1.00  0.00    -0.361 A  
HETATM    7  C   UNL     1     -12.650  12.696  70.831  1.00  0.00    -0.338 A  
HETATM    8  C   UNL     1     -12.003  13.220  69.706  1.00  0.00    -0.391 A  
ENDROOT
BRANCH   6   9
HETATM    9  C   UNL     1     -11.368  15.224  68.282  1.00  0.00    -0.336 C  
HETATM   10  O   UNL     1     -11.505  14.781  67.153  1.00  0.00    -0.354 OA 
BRANCH   9  11
HETATM   11  O   UNL     1     -10.613  16.288  68.638  1.00  0.00    -0.263 OA 
BRANCH  11  12
HETATM   12  C   UNL     1      -9.226  16.017  68.895  1.00  0.00    -0.233 C  
BRANCH  12  13
HETATM   13  C   UNL     1      -8.431  17.294  68.804  1.00  0.00    -0.233 A  
HETATM   14  C   UNL     1      -9.034  18.479  68.356  1.00  0.00    -0.346 A  
HETATM   15  C   UNL     1      -8.301  19.665  68.287  1.00  0.00    -0.354 A  
HETATM   16  C   UNL     1      -6.960  19.681  68.664  1.00  0.00    -0.362 A  
HETATM   17  C   UNL     1      -6.350  18.510  69.111  1.00  0.00    -0.264 A  
HETATM   18  C   UNL     1      -7.080  17.322  69.179  1.00  0.00    -0.204 A  
ENDBRANCH  12  13
ENDBRANCH  11  12
ENDBRANCH   9  11
ENDBRANCH   6   9
TORSDOF 4
ENDMDL
MODEL       82
REMARK 921   NORMALIZED FREE ENERGY PREDICTED BY IDOCK:   -4.71 KCAL/MOL
REMARK 922        TOTAL FREE ENERGY PREDICTED BY IDOCK:   -6.44 KCAL/MOL
REMARK 923 INTER-LIGAND FREE ENERGY PREDICTED BY IDOCK:   -5.93 KCAL/MOL
REMARK 924 INTRA-LIGAND FREE ENERGY PREDICTED BY IDOCK:   -0.51 KCAL/MOL
REMARK 927      BINDING AFFINITY PREDICTED BY RF-SCORE:    0.00 PKD
ROOT
HETATM    1  O   UNL     1      -8.541   8.841  66.488  1.00  0.00    -0.112 OA 
HETATM    2  C   UNL     1      -9.462   9.790  66.155  1.00  0.00    -0.205 A  
HETATM    3  H   UNL     1      -7.996   8.429  65.830  1.00  0.00     0.000 HD 
HETATM    4  C   UNL     1     -10.260  10.393  67.119  1.00  0.00    -0.271 A  
HETATM    5  C   UNL     1     -11.202  11.347  66.727  1.00  0.00    -0.319 A  
HETATM    6  C   UNL     1     -11.344  11.698  65.373  1.00  0.00    -0.218 A  
HETATM    7  C   UNL     1      -9.581  10.132  64.811  1.00  0.00    -0.378 A  
HETATM    8  C   UNL     1     -10.523  11.087  64.417  1.00  0.00    -0.422 A  
ENDROOT
BRANCH   6   9
HETATM    9  C   UNL     1     -12.388  12.700  65.021  1.00  0.00    -0.497 C  
HETATM   10  O   UNL     1     -12.912  12.748  63.920  1.00  0.00    -0.679 OA 
BRANCH   9  11
HETATM   11  O   UNL     1     -12.628  13.537  66.057  1.00  0.00    -0.420 OA 
BRANCH  11  12
HETATM   12  C   UNL     1     -11.763  14.679  66.155  1.00  0.00    -0.313 C  
BRANCH  12  13
HETATM   13  C   UNL     1     -11.539  15.026  67.605  1.00  0.00    -0.327 A  
HETATM   14  C   UNL     1     -10.844  16.192  67.959  1.00  0.00    -0.333 A  
HETATM   15  C   UNL     1     -10.650  16.522  69.302  1.00  0.00    -0.327 A  
HETATM   16  C   UNL     1     -11.150  15.692  70.304  1.00  0.00    -0.361 A  
HETATM   17  C   UNL     1     -11.843  14.531  69.965  1.00  0.00    -0.372 A  
HETATM   18  C   UNL     1     -12.036  14.199  68.623  1.00  0.00    -0.373 A  
ENDBRANCH  12  13
ENDBRANCH  11  12
ENDBRANCH   9  11
ENDBRANCH   6   9
TORSDOF 4
ENDMDL
MODEL       83
REMARK 921   NORMALIZED FREE ENERGY PREDICTED BY IDOCK:   -4.71 KCAL/MOL
REMARK 922        TOTAL FREE ENERGY PREDICTED BY IDOCK:   -6.43 KCAL/MOL
REMARK 923 INTER-LIGAND FREE ENERGY PREDICTED BY IDOCK:   -6.03 KCAL/MOL
REMARK 924 INTRA-LIGAND FREE ENERGY PREDICTED BY IDOCK:   -0.40 KCAL/MOL
REMARK 927      BINDING AFFINITY PREDICTED BY RF-SCORE:    0.00 PKD
ROOT
HETATM    1  O   UNL     1     -12.131  13.476  62.782  1.00  0.00    -0.746 OA 
HETATM    2  C   UNL     1     -11.927  13.160  64.093  1.00  0.00    -0.436 A  
HETATM    3  H   UNL     1     -12.608  14.257  62.530  1.00  0.00     0.000 HD 
HETATM    4  C   UNL     1     -11.228  12.017  64.461  1.00  0.00    -0.390 A  
HETATM    5  C   UNL     1     -11.060  11.726  65.817  1.00  0.00    -0.351 A  
HETATM    6  C   UNL     1     -11.589  12.576  66.802  1.00  0.00    -0.446 A  
HETATM    7  C   UNL     1     -12.448  14.020  65.054  1.00  0.00    -0.446 A  
HETATM    8  C   UNL     1     -12.281  13.730  66.412  1.00  0.00    -0.480 A  
ENDROOT
BRANCH   6   9
HETATM    9  C   UNL     1     -11.399  12.190  68.228  1.00  0.00    -0.289 C  
HETATM   10  O   UNL     1     -11.914  12.801  69.151  1.00  0.00    -0.291 OA 
BRANCH   9  11
HETATM   11  O   UNL     1     -10.573  11.124  68.337  1.00  0.00    -0.175 OA 
BRANCH  11  12
HETATM   12  C   UNL     1     -10.084  10.841  69.657  1.00  0.00    -0.011 C  
BRANCH  12  13
HETATM   13  C   UNL     1     -10.658   9.535  70.145  1.00  0.00    -0.298 A  
HETATM   14  C   UNL     1     -10.412   8.343  69.445  1.00  0.00    -0.222 A  
HETATM   15  C   UNL     1     -10.930   7.131  69.905  1.00  0.00    -0.278 A  
HETATM   16  C   UNL     1     -11.698   7.097  71.067  1.00  0.00    -0.358 A  
HETATM   17  C   UNL     1     -11.950   8.273  71.771  1.00  0.00    -0.364 A  
HETATM   18  C   UNL     1     -11.434   9.486  71.311  1.00  0.00    -0.447 A  
ENDBRANCH  12  13
ENDBRANCH  11  12
ENDBRANCH   9  11
ENDBRANCH   6   9
TORSDOF 4
ENDMDL
MODEL       84
REMARK 921   NORMALIZED FREE ENERGY PREDICTED BY IDOCK:   -4.70 KCAL/MOL
REMARK 922        TOTAL FREE ENERGY PREDICTED BY IDOCK:   -6.42 KCAL/MOL
REMARK 923 INTER-LIGAND FREE ENERGY PREDICTED BY IDOCK:   -5.65 KCAL/MOL
REMARK 924 INTRA-LIGAND FREE ENERGY PREDICTED BY IDOCK:   -0.77 KCAL/MOL
REMARK 927      BINDING AFFINITY PREDICTED BY RF-SCORE:    0.00 PKD
ROOT
HETATM    1  O   UNL     1     -11.464   7.011  73.039  1.00  0.00    -0.515 OA 
HETATM    2  C   UNL     1     -11.617   8.099  72.232  1.00  0.00    -0.374 A  
HETATM    3  H   UNL     1     -12.162   6.720  73.614  1.00  0.00     0.000 HD 
HETATM    4  C   UNL     1     -10.595   8.524  71.391  1.00  0.00    -0.312 A  
HETATM    5  C   UNL     1     -10.792   9.655  70.595  1.00  0.00    -0.386 A  
HETATM    6  C   UNL     1     -12.007  10.359  70.640  1.00  0.00    -0.448 A  
HETATM    7  C   UNL     1     -12.830   8.777  72.282  1.00  0.00    -0.465 A  
HETATM    8  C   UNL     1     -13.029   9.910  71.486  1.00  0.00    -0.523 A  
ENDROOT
BRANCH   6   9
HETATM    9  C   UNL     1     -12.138  11.574  69.789  1.00  0.00    -0.306 C  
HETATM   10  O   UNL     1     -12.160  12.704  70.250  1.00  0.00    -0.349 OA 
BRANCH   9  11
HETATM   11  O   UNL     1     -12.261  11.241  68.482  1.00  0.00    -0.588 OA 
BRANCH  11  12
HETATM   12  C   UNL     1     -11.186  11.656  67.625  1.00  0.00    -0.281 C  
BRANCH  12  13
HETATM   13  C   UNL     1     -10.323  10.469  67.279  1.00  0.00    -0.275 A  
HETATM   14  C   UNL     1      -8.925  10.583  67.271  1.00  0.00    -0.145 A  
HETATM   15  C   UNL     1      -8.125   9.479  66.966  1.00  0.00    -0.113 A  
HETATM   16  C   UNL     1      -8.714   8.253  66.666  1.00  0.00    -0.150 A  
HETATM   17  C   UNL     1     -10.102   8.127  66.671  1.00  0.00    -0.344 A  
HETATM   18  C   UNL     1     -10.903   9.229  66.974  1.00  0.00    -0.077 A  
ENDBRANCH  12  13
ENDBRANCH  11  12
ENDBRANCH   9  11
ENDBRANCH   6   9
TORSDOF 4
ENDMDL
MODEL       85
REMARK 921   NORMALIZED FREE ENERGY PREDICTED BY IDOCK:   -4.69 KCAL/MOL
REMARK 922        TOTAL FREE ENERGY PREDICTED BY IDOCK:   -6.41 KCAL/MOL
REMARK 923 INTER-LIGAND FREE ENERGY PREDICTED BY IDOCK:   -5.73 KCAL/MOL
REMARK 924 INTRA-LIGAND FREE ENERGY PREDICTED BY IDOCK:   -0.69 KCAL/MOL
REMARK 927      BINDING AFFINITY PREDICTED BY RF-SCORE:    0.00 PKD
ROOT
HETATM    1  O   UNL     1     -13.894  13.099  72.825  1.00  0.00    -0.721 OA 
HETATM    2  C   UNL     1     -13.288  13.692  71.758  1.00  0.00    -0.388 A  
HETATM    3  H   UNL     1     -13.877  12.157  72.942  1.00  0.00     0.000 HD 
HETATM    4  C   UNL     1     -13.312  15.071  71.587  1.00  0.00    -0.490 A  
HETATM    5  C   UNL     1     -12.692  15.632  70.468  1.00  0.00    -0.391 A  
HETATM    6  C   UNL     1     -12.050  14.816  69.522  1.00  0.00    -0.328 A  
HETATM    7  C   UNL     1     -12.647  12.869  70.837  1.00  0.00    -0.355 A  
HETATM    8  C   UNL     1     -12.026  13.428  69.716  1.00  0.00    -0.396 A  
ENDROOT
BRANCH   6   9
HETATM    9  C   UNL     1     -11.436  15.477  68.336  1.00  0.00    -0.363 C  
HETATM   10  O   UNL     1     -10.831  16.535  68.410  1.00  0.00    -0.319 OA 
BRANCH   9  11
HETATM   11  O   UNL     1     -11.675  14.769  67.207  1.00  0.00    -0.379 OA 
BRANCH  11  12
HETATM   12  C   UNL     1     -10.528  14.479  66.394  1.00  0.00    -0.295 C  
BRANCH  12  13
HETATM   13  C   UNL     1     -10.007  13.102  66.719  1.00  0.00    -0.250 A  
HETATM   14  C   UNL     1     -10.417  11.990  65.967  1.00  0.00    -0.284 A  
HETATM   15  C   UNL     1      -9.924  10.717  66.259  1.00  0.00    -0.274 A  
HETATM   16  C   UNL     1      -9.016  10.542  67.301  1.00  0.00    -0.145 A  
HETATM   17  C   UNL     1      -8.601  11.639  68.054  1.00  0.00    -0.152 A  
HETATM   18  C   UNL     1      -9.095  12.912  67.766  1.00  0.00    -0.197 A  
ENDBRANCH  12  13
ENDBRANCH  11  12
ENDBRANCH   9  11
ENDBRANCH   6   9
TORSDOF 4
ENDMDL
MODEL       86
REMARK 921   NORMALIZED FREE ENERGY PREDICTED BY IDOCK:   -4.69 KCAL/MOL
REMARK 922        TOTAL FREE ENERGY PREDICTED BY IDOCK:   -6.41 KCAL/MOL
REMARK 923 INTER-LIGAND FREE ENERGY PREDICTED BY IDOCK:   -5.99 KCAL/MOL
REMARK 924 INTRA-LIGAND FREE ENERGY PREDICTED BY IDOCK:   -0.42 KCAL/MOL
REMARK 927      BINDING AFFINITY PREDICTED BY RF-SCORE:    0.00 PKD
ROOT
HETATM    1  O   UNL     1     -11.535  16.315  63.458  1.00  0.00    -1.164 OA 
HETATM    2  C   UNL     1     -11.108  16.208  64.748  1.00  0.00    -0.333 A  
HETATM    3  H   UNL     1     -11.682  15.546  62.921  1.00  0.00     0.000 HD 
HETATM    4  C   UNL     1     -10.892  17.334  65.534  1.00  0.00    -0.024 A  
HETATM    5  C   UNL     1     -10.437  17.175  66.845  1.00  0.00    -0.274 A  
HETATM    6  C   UNL     1     -10.198  15.893  67.369  1.00  0.00    -0.270 A  
HETATM    7  C   UNL     1     -10.887  14.931  65.253  1.00  0.00    -0.398 A  
HETATM    8  C   UNL     1     -10.432  14.770  66.566  1.00  0.00    -0.291 A  
ENDROOT
BRANCH   6   9
HETATM    9  C   UNL     1      -9.685  15.797  68.764  1.00  0.00    -0.213 C  
HETATM   10  O   UNL     1      -8.709  16.420  69.152  1.00  0.00    -0.245 OA 
BRANCH   9  11
HETATM   11  O   UNL     1     -10.415  14.921  69.492  1.00  0.00    -0.237 OA 
BRANCH  11  12
HETATM   12  C   UNL     1     -10.317  15.054  70.918  1.00  0.00     0.515 C  
BRANCH  12  13
HETATM   13  C   UNL     1     -11.694  15.212  71.511  1.00  0.00    -0.447 A  
HETATM   14  C   UNL     1     -11.854  15.500  72.875  1.00  0.00    -0.565 A  
HETATM   15  C   UNL     1     -13.129  15.662  73.421  1.00  0.00    -0.670 A  
HETATM   16  C   UNL     1     -14.256  15.538  72.612  1.00  0.00    -0.397 A  
HETATM   17  C   UNL     1     -14.110  15.252  71.255  1.00  0.00    -0.527 A  
HETATM   18  C   UNL     1     -12.837  15.088  70.708  1.00  0.00    -0.447 A  
ENDBRANCH  12  13
ENDBRANCH  11  12
ENDBRANCH   9  11
ENDBRANCH   6   9
TORSDOF 4
ENDMDL
MODEL       87
REMARK 921   NORMALIZED FREE ENERGY PREDICTED BY IDOCK:   -4.68 KCAL/MOL
REMARK 922        TOTAL FREE ENERGY PREDICTED BY IDOCK:   -6.40 KCAL/MOL
REMARK 923 INTER-LIGAND FREE ENERGY PREDICTED BY IDOCK:   -5.84 KCAL/MOL
REMARK 924 INTRA-LIGAND FREE ENERGY PREDICTED BY IDOCK:   -0.56 KCAL/MOL
REMARK 927      BINDING AFFINITY PREDICTED BY RF-SCORE:    0.00 PKD
ROOT
HETATM    1  O   UNL     1      -9.874  21.110  67.379  1.00  0.00    -0.498 OA 
HETATM    2  C   UNL     1      -9.748  19.762  67.535  1.00  0.00    -0.368 A  
HETATM    3  H   UNL     1     -10.147  21.667  68.099  1.00  0.00     0.000 HD 
HETATM    4  C   UNL     1      -9.349  18.947  66.482  1.00  0.00    -0.351 A  
HETATM    5  C   UNL     1      -9.251  17.568  66.685  1.00  0.00    -0.277 A  
HETATM    6  C   UNL     1      -9.550  17.006  67.937  1.00  0.00    -0.249 A  
HETATM    7  C   UNL     1     -10.037  19.225  68.785  1.00  0.00    -0.477 A  
HETATM    8  C   UNL     1      -9.939  17.844  68.990  1.00  0.00    -0.276 A  
ENDROOT
BRANCH   6   9
HETATM    9  C   UNL     1      -9.454  15.526  68.075  1.00  0.00    -0.194 C  
HETATM   10  O   UNL     1      -8.713  14.985  68.881  1.00  0.00    -0.180 OA 
BRANCH   9  11
HETATM   11  O   UNL     1     -10.254  14.901  67.181  1.00  0.00    -0.243 OA 
BRANCH  11  12
HETATM   12  C   UNL     1     -11.652  14.866  67.506  1.00  0.00    -0.339 C  
BRANCH  12  13
HETATM   13  C   UNL     1     -11.888  13.900  68.640  1.00  0.00    -0.407 A  
HETATM   14  C   UNL     1     -11.670  12.526  68.461  1.00  0.00    -0.369 A  
HETATM   15  C   UNL     1     -11.873  11.633  69.516  1.00  0.00    -0.414 A  
HETATM   16  C   UNL     1     -12.295  12.103  70.757  1.00  0.00    -0.391 A  
HETATM   17  C   UNL     1     -12.515  13.467  70.947  1.00  0.00    -0.439 A  
HETATM   18  C   UNL     1     -12.314  14.361  69.893  1.00  0.00    -0.365 A  
ENDBRANCH  12  13
ENDBRANCH  11  12
ENDBRANCH   9  11
ENDBRANCH   6   9
TORSDOF 4
ENDMDL
MODEL       88
REMARK 921   NORMALIZED FREE ENERGY PREDICTED BY IDOCK:   -4.64 KCAL/MOL
REMARK 922        TOTAL FREE ENERGY PREDICTED BY IDOCK:   -6.35 KCAL/MOL
REMARK 923 INTER-LIGAND FREE ENERGY PREDICTED BY IDOCK:   -6.02 KCAL/MOL
REMARK 924 INTRA-LIGAND FREE ENERGY PREDICTED BY IDOCK:   -0.33 KCAL/MOL
REMARK 927      BINDING AFFINITY PREDICTED BY RF-SCORE:    0.00 PKD
ROOT
HETATM    1  O   UNL     1     -11.565  16.387  63.658  1.00  0.00    -1.514 OA 
HETATM    2  C   UNL     1     -11.509  15.629  64.789  1.00  0.00    -0.283 A  
HETATM    3  H   UNL     1     -12.071  16.112  62.903  1.00  0.00     0.000 HD 
HETATM    4  C   UNL     1     -10.767  16.032  65.894  1.00  0.00    -0.287 A  
HETATM    5  C   UNL     1     -10.726  15.213  67.025  1.00  0.00    -0.307 A  
HETATM    6  C   UNL     1     -11.425  13.994  67.051  1.00  0.00    -0.370 A  
HETATM    7  C   UNL     1     -12.217  14.431  64.802  1.00  0.00    -0.458 A  
HETATM    8  C   UNL     1     -12.176  13.610  65.934  1.00  0.00    -0.502 A  
ENDROOT
BRANCH   6   9
HETATM    9  C   UNL     1     -11.313  13.156  68.278  1.00  0.00    -0.297 C  
HETATM   10  O   UNL     1     -11.492  13.601  69.400  1.00  0.00    -0.270 OA 
BRANCH   9  11
HETATM   11  O   UNL     1     -10.960  11.886  67.968  1.00  0.00    -0.201 OA 
BRANCH  11  12
HETATM   12  C   UNL     1     -11.605  10.852  68.727  1.00  0.00    -0.309 C  
BRANCH  12  13
HETATM   13  C   UNL     1     -10.943   9.527  68.449  1.00  0.00    -0.117 A  
HETATM   14  C   UNL     1     -10.581   8.677  69.505  1.00  0.00    -0.218 A  
HETATM   15  C   UNL     1      -9.981   7.442  69.247  1.00  0.00    -0.173 A  
HETATM   16  C   UNL     1      -9.738   7.045  67.934  1.00  0.00    -0.141 A  
HETATM   17  C   UNL     1     -10.094   7.881  66.876  1.00  0.00    -0.362 A  
HETATM   18  C   UNL     1     -10.692   9.116  67.132  1.00  0.00    -0.213 A  
ENDBRANCH  12  13
ENDBRANCH  11  12
ENDBRANCH   9  11
ENDBRANCH   6   9
TORSDOF 4
ENDMDL
MODEL       89
REMARK 921   NORMALIZED FREE ENERGY PREDICTED BY IDOCK:   -4.63 KCAL/MOL
REMARK 922        TOTAL FREE ENERGY PREDICTED BY IDOCK:   -6.34 KCAL/MOL
REMARK 923 INTER-LIGAND FREE ENERGY PREDICTED BY IDOCK:   -5.79 KCAL/MOL
REMARK 924 INTRA-LIGAND FREE ENERGY PREDICTED BY IDOCK:   -0.55 KCAL/MOL
REMARK 927      BINDING AFFINITY PREDICTED BY RF-SCORE:    0.00 PKD
ROOT
HETATM    1  O   UNL     1      -6.340  14.253  67.462  1.00  0.00    -0.295 OA 
HETATM    2  C   UNL     1      -7.588  13.733  67.287  1.00  0.00    -0.055 A  
HETATM    3  H   UNL     1      -5.595  13.696  67.650  1.00  0.00     0.000 HD 
HETATM    4  C   UNL     1      -8.679  14.548  67.012  1.00  0.00    -0.256 A  
HETATM    5  C   UNL     1      -9.942  13.971  66.858  1.00  0.00    -0.263 A  
HETATM    6  C   UNL     1     -10.113  12.582  66.980  1.00  0.00    -0.222 A  
HETATM    7  C   UNL     1      -7.736  12.354  67.400  1.00  0.00    -0.170 A  
HETATM    8  C   UNL     1      -9.000  11.774  67.246  1.00  0.00    -0.172 A  
ENDROOT
BRANCH   6   9
HETATM    9  C   UNL     1     -11.492  12.036  66.835  1.00  0.00    -0.337 C  
HETATM   10  O   UNL     1     -12.254  12.395  65.951  1.00  0.00    -0.629 OA 
BRANCH   9  11
HETATM   11  O   UNL     1     -11.768  11.146  67.816  1.00  0.00    -0.560 OA 
BRANCH  11  12
HETATM   12  C   UNL     1     -12.119  11.705  69.091  1.00  0.00    -0.251 C  
BRANCH  12  13
HETATM   13  C   UNL     1     -11.982  10.655  70.163  1.00  0.00    -0.417 A  
HETATM   14  C   UNL     1     -13.019  10.437  71.083  1.00  0.00    -0.506 A  
HETATM   15  C   UNL     1     -12.899   9.454  72.067  1.00  0.00    -0.496 A  
HETATM   16  C   UNL     1     -11.743   8.679  72.142  1.00  0.00    -0.442 A  
HETATM   17  C   UNL     1     -10.706   8.885  71.234  1.00  0.00    -0.357 A  
HETATM   18  C   UNL     1     -10.824   9.869  70.250  1.00  0.00    -0.367 A  
ENDBRANCH  12  13
ENDBRANCH  11  12
ENDBRANCH   9  11
ENDBRANCH   6   9
TORSDOF 4
ENDMDL
MODEL       90
REMARK 921   NORMALIZED FREE ENERGY PREDICTED BY IDOCK:   -4.60 KCAL/MOL
REMARK 922        TOTAL FREE ENERGY PREDICTED BY IDOCK:   -6.29 KCAL/MOL
REMARK 923 INTER-LIGAND FREE ENERGY PREDICTED BY IDOCK:   -5.93 KCAL/MOL
REMARK 924 INTRA-LIGAND FREE ENERGY PREDICTED BY IDOCK:   -0.37 KCAL/MOL
REMARK 927      BINDING AFFINITY PREDICTED BY RF-SCORE:    0.00 PKD
ROOT
HETATM    1  O   UNL     1      -5.808  18.462  69.706  1.00  0.00    -0.235 OA 
HETATM    2  C   UNL     1      -6.779  18.283  68.766  1.00  0.00    -0.249 A  
HETATM    3  H   UNL     1      -5.057  17.884  69.757  1.00  0.00     0.000 HD 
HETATM    4  C   UNL     1      -7.878  19.130  68.691  1.00  0.00    -0.390 A  
HETATM    5  C   UNL     1      -8.856  18.895  67.722  1.00  0.00    -0.318 A  
HETATM    6  C   UNL     1      -8.735  17.817  66.830  1.00  0.00    -0.273 A  
HETATM    7  C   UNL     1      -6.636  17.217  67.884  1.00  0.00    -0.154 A  
HETATM    8  C   UNL     1      -7.615  16.980  66.912  1.00  0.00    -0.244 A  
ENDROOT
BRANCH   6   9
HETATM    9  C   UNL     1      -9.830  17.607  65.841  1.00  0.00    -0.073 C  
HETATM   10  O   UNL     1     -10.565  18.508  65.469  1.00  0.00    -0.621 OA 
BRANCH   9  11
HETATM   11  O   UNL     1      -9.902  16.309  65.464  1.00  0.00    -0.489 OA 
BRANCH  11  12
HETATM   12  C   UNL     1     -11.150  15.890  64.893  1.00  0.00    -0.389 C  
BRANCH  12  13
HETATM   13  C   UNL     1     -11.136  14.398  64.675  1.00  0.00    -0.363 A  
HETATM   14  C   UNL     1     -10.185  13.593  65.320  1.00  0.00    -0.341 A  
HETATM   15  C   UNL     1     -10.181  12.210  65.130  1.00  0.00    -0.308 A  
HETATM   16  C   UNL     1     -11.127  11.617  64.296  1.00  0.00    -0.406 A  
HETATM   17  C   UNL     1     -12.078  12.406  63.651  1.00  0.00    -0.648 A  
HETATM   18  C   UNL     1     -12.082  13.789  63.838  1.00  0.00    -0.423 A  
ENDBRANCH  12  13
ENDBRANCH  11  12
ENDBRANCH   9  11
ENDBRANCH   6   9
TORSDOF 4
ENDMDL
MODEL       91
REMARK 921   NORMALIZED FREE ENERGY PREDICTED BY IDOCK:   -4.57 KCAL/MOL
REMARK 922        TOTAL FREE ENERGY PREDICTED BY IDOCK:   -6.27 KCAL/MOL
REMARK 923 INTER-LIGAND FREE ENERGY PREDICTED BY IDOCK:   -5.57 KCAL/MOL
REMARK 924 INTRA-LIGAND FREE ENERGY PREDICTED BY IDOCK:   -0.69 KCAL/MOL
REMARK 927      BINDING AFFINITY PREDICTED BY RF-SCORE:    0.00 PKD
ROOT
HETATM    1  O   UNL     1      -8.810   8.529  68.301  1.00  0.00    -0.141 OA 
HETATM    2  C   UNL     1      -9.270   9.272  67.255  1.00  0.00    -0.126 A  
HETATM    3  H   UNL     1      -8.178   7.832  68.172  1.00  0.00     0.000 HD 
HETATM    4  C   UNL     1     -10.195  10.292  67.444  1.00  0.00    -0.265 A  
HETATM    5  C   UNL     1     -10.651  11.014  66.339  1.00  0.00    -0.308 A  
HETATM    6  C   UNL     1     -10.183  10.717  65.048  1.00  0.00    -0.373 A  
HETATM    7  C   UNL     1      -8.788   8.971  65.985  1.00  0.00    -0.208 A  
HETATM    8  C   UNL     1      -9.243   9.693  64.877  1.00  0.00    -0.306 A  
ENDROOT
BRANCH   6   9
HETATM    9  C   UNL     1     -10.734  11.506  63.910  1.00  0.00    -0.395 C  
HETATM   10  O   UNL     1     -10.143  11.638  62.850  1.00  0.00    -0.325 OA 
BRANCH   9  11
HETATM   11  O   UNL     1     -11.925  12.062  64.235  1.00  0.00    -0.366 OA 
BRANCH  11  12
HETATM   12  C   UNL     1     -12.064  13.462  63.950  1.00  0.00    -0.455 C  
BRANCH  12  13
HETATM   13  C   UNL     1     -11.612  14.272  65.139  1.00  0.00    -0.355 A  
HETATM   14  C   UNL     1     -10.641  15.273  64.991  1.00  0.00    -0.444 A  
HETATM   15  C   UNL     1     -10.233  16.034  66.089  1.00  0.00    -0.340 A  
HETATM   16  C   UNL     1     -10.791  15.802  67.344  1.00  0.00    -0.306 A  
HETATM   17  C   UNL     1     -11.758  14.810  67.504  1.00  0.00    -0.370 A  
HETATM   18  C   UNL     1     -12.165  14.047  66.408  1.00  0.00    -0.492 A  
ENDBRANCH  12  13
ENDBRANCH  11  12
ENDBRANCH   9  11
ENDBRANCH   6   9
TORSDOF 4
ENDMDL
MODEL       92
REMARK 921   NORMALIZED FREE ENERGY PREDICTED BY IDOCK:   -4.57 KCAL/MOL
REMARK 922        TOTAL FREE ENERGY PREDICTED BY IDOCK:   -6.26 KCAL/MOL
REMARK 923 INTER-LIGAND FREE ENERGY PREDICTED BY IDOCK:   -5.80 KCAL/MOL
REMARK 924 INTRA-LIGAND FREE ENERGY PREDICTED BY IDOCK:   -0.45 KCAL/MOL
REMARK 927      BINDING AFFINITY PREDICTED BY RF-SCORE:    0.00 PKD
ROOT
HETATM    1  O   UNL     1     -12.315  13.767  63.010  1.00  0.00    -1.089 OA 
HETATM    2  C   UNL     1     -12.112  13.361  64.295  1.00  0.00    -0.424 A  
HETATM    3  H   UNL     1     -12.743  14.591  62.814  1.00  0.00     0.000 HD 
HETATM    4  C   UNL     1     -11.483  12.155  64.581  1.00  0.00    -0.388 A  
HETATM    5  C   UNL     1     -11.313  11.772  65.914  1.00  0.00    -0.324 A  
HETATM    6  C   UNL     1     -11.770  12.594  66.957  1.00  0.00    -0.438 A  
HETATM    7  C   UNL     1     -12.560  14.193  65.315  1.00  0.00    -0.460 A  
HETATM    8  C   UNL     1     -12.390  13.812  66.650  1.00  0.00    -0.403 A  
ENDROOT
BRANCH   6   9
HETATM    9  C   UNL     1     -11.583  12.112  68.355  1.00  0.00    -0.327 C  
HETATM   10  O   UNL     1     -11.331  12.862  69.284  1.00  0.00    -0.261 OA 
BRANCH   9  11
HETATM   11  O   UNL     1     -11.695  10.765  68.423  1.00  0.00    -0.428 OA 
BRANCH  11  12
HETATM   12  C   UNL     1     -11.334  10.167  69.677  1.00  0.00    -0.235 C  
BRANCH  12  13
HETATM   13  C   UNL     1     -10.082   9.344  69.508  1.00  0.00    -0.214 A  
HETATM   14  C   UNL     1      -8.963   9.572  70.323  1.00  0.00    -0.288 A  
HETATM   15  C   UNL     1      -7.810   8.800  70.176  1.00  0.00    -0.094 A  
HETATM   16  C   UNL     1      -7.762   7.791  69.216  1.00  0.00    -0.100 A  
HETATM   17  C   UNL     1      -8.868   7.554  68.400  1.00  0.00    -0.126 A  
HETATM   18  C   UNL     1     -10.021   8.327  68.544  1.00  0.00    -0.206 A  
ENDBRANCH  12  13
ENDBRANCH  11  12
ENDBRANCH   9  11
ENDBRANCH   6   9
TORSDOF 4
ENDMDL
MODEL       93
REMARK 921   NORMALIZED FREE ENERGY PREDICTED BY IDOCK:   -4.56 KCAL/MOL
REMARK 922        TOTAL FREE ENERGY PREDICTED BY IDOCK:   -6.25 KCAL/MOL
REMARK 923 INTER-LIGAND FREE ENERGY PREDICTED BY IDOCK:   -5.89 KCAL/MOL
REMARK 924 INTRA-LIGAND FREE ENERGY PREDICTED BY IDOCK:   -0.37 KCAL/MOL
REMARK 927      BINDING AFFINITY PREDICTED BY RF-SCORE:    0.00 PKD
ROOT
HETATM    1  O   UNL     1     -13.160  15.977  74.238  1.00  0.00    -0.904 OA 
HETATM    2  C   UNL     1     -12.955  15.424  73.010  1.00  0.00    -0.488 A  
HETATM    3  H   UNL     1     -12.885  16.865  74.433  1.00  0.00     0.000 HD 
HETATM    4  C   UNL     1     -13.359  14.125  72.725  1.00  0.00    -0.618 A  
HETATM    5  C   UNL     1     -13.111  13.595  71.457  1.00  0.00    -0.431 A  
HETATM    6  C   UNL     1     -12.463  14.363  70.475  1.00  0.00    -0.416 A  
HETATM    7  C   UNL     1     -12.322  16.203  72.047  1.00  0.00    -0.475 A  
HETATM    8  C   UNL     1     -12.074  15.674  70.776  1.00  0.00    -0.454 A  
ENDROOT
BRANCH   6   9
HETATM    9  C   UNL     1     -12.203  13.725  69.153  1.00  0.00    -0.250 C  
HETATM   10  O   UNL     1     -12.339  14.320  68.096  1.00  0.00    -0.212 OA 
BRANCH   9  11
HETATM   11  O   UNL     1     -11.845  12.429  69.301  1.00  0.00    -0.303 OA 
BRANCH  11  12
HETATM   12  C   UNL     1     -10.941  11.911  68.313  1.00  0.00    -0.230 C  
BRANCH  12  13
HETATM   13  C   UNL     1     -10.410  10.572  68.759  1.00  0.00    -0.208 A  
HETATM   14  C   UNL     1      -9.152  10.125  68.328  1.00  0.00    -0.122 A  
HETATM   15  C   UNL     1      -8.654   8.892  68.753  1.00  0.00    -0.136 A  
HETATM   16  C   UNL     1      -9.406   8.094  69.613  1.00  0.00    -0.159 A  
HETATM   17  C   UNL     1     -10.657   8.528  70.048  1.00  0.00    -0.230 A  
HETATM   18  C   UNL     1     -11.158   9.759  69.623  1.00  0.00    -0.251 A  
ENDBRANCH  12  13
ENDBRANCH  11  12
ENDBRANCH   9  11
ENDBRANCH   6   9
TORSDOF 4
ENDMDL
MODEL       94
REMARK 921   NORMALIZED FREE ENERGY PREDICTED BY IDOCK:   -4.56 KCAL/MOL
REMARK 922        TOTAL FREE ENERGY PREDICTED BY IDOCK:   -6.25 KCAL/MOL
REMARK 923 INTER-LIGAND FREE ENERGY PREDICTED BY IDOCK:   -5.45 KCAL/MOL
REMARK 924 INTRA-LIGAND FREE ENERGY PREDICTED BY IDOCK:   -0.79 KCAL/MOL
REMARK 927      BINDING AFFINITY PREDICTED BY RF-SCORE:    0.00 PKD
ROOT
HETATM    1  O   UNL     1      -9.194   5.193  71.643  1.00  0.00    -0.142 OA 
HETATM    2  C   UNL     1     -10.220   6.086  71.733  1.00  0.00    -0.202 A  
HETATM    3  H   UNL     1      -8.466   5.213  72.252  1.00  0.00     0.000 HD 
HETATM    4  C   UNL     1     -11.285   6.056  70.840  1.00  0.00    -0.335 A  
HETATM    5  C   UNL     1     -12.305   7.002  70.962  1.00  0.00    -0.402 A  
HETATM    6  C   UNL     1     -12.261   7.976  71.974  1.00  0.00    -0.374 A  
HETATM    7  C   UNL     1     -10.165   7.035  72.748  1.00  0.00    -0.227 A  
HETATM    8  C   UNL     1     -11.185   7.984  72.872  1.00  0.00    -0.389 A  
ENDROOT
BRANCH   6   9
HETATM    9  C   UNL     1     -13.366   8.974  72.027  1.00  0.00    -0.438 C  
HETATM   10  O   UNL     1     -14.174   9.014  72.941  1.00  0.00    -0.528 OA 
BRANCH   9  11
HETATM   11  O   UNL     1     -13.355   9.770  70.933  1.00  0.00    -0.318 OA 
BRANCH  11  12
HETATM   12  C   UNL     1     -12.682  11.030  71.080  1.00  0.00    -0.386 C  
BRANCH  12  13
HETATM   13  C   UNL     1     -11.589  11.147  70.048  1.00  0.00    -0.421 A  
HETATM   14  C   UNL     1     -10.469  10.304  70.098  1.00  0.00    -0.259 A  
HETATM   15  C   UNL     1      -9.464  10.403  69.134  1.00  0.00    -0.220 A  
HETATM   16  C   UNL     1      -9.568  11.343  68.111  1.00  0.00    -0.190 A  
HETATM   17  C   UNL     1     -10.676  12.186  68.050  1.00  0.00    -0.242 A  
HETATM   18  C   UNL     1     -11.681  12.090  69.014  1.00  0.00    -0.382 A  
ENDBRANCH  12  13
ENDBRANCH  11  12
ENDBRANCH   9  11
ENDBRANCH   6   9
TORSDOF 4
ENDMDL
MODEL       95
REMARK 921   NORMALIZED FREE ENERGY PREDICTED BY IDOCK:   -4.55 KCAL/MOL
REMARK 922        TOTAL FREE ENERGY PREDICTED BY IDOCK:   -6.24 KCAL/MOL
REMARK 923 INTER-LIGAND FREE ENERGY PREDICTED BY IDOCK:   -5.61 KCAL/MOL
REMARK 924 INTRA-LIGAND FREE ENERGY PREDICTED BY IDOCK:   -0.63 KCAL/MOL
REMARK 927      BINDING AFFINITY PREDICTED BY RF-SCORE:    0.00 PKD
ROOT
HETATM    1  O   UNL     1      -7.801  16.707  67.835  1.00  0.00    -0.161 OA 
HETATM    2  C   UNL     1      -8.740  16.083  67.069  1.00  0.00    -0.210 A  
HETATM    3  H   UNL     1      -7.750  17.654  67.880  1.00  0.00     0.000 HD 
HETATM    4  C   UNL     1      -8.815  14.697  67.003  1.00  0.00    -0.262 A  
HETATM    5  C   UNL     1      -9.783  14.103  66.190  1.00  0.00    -0.310 A  
HETATM    6  C   UNL     1     -10.675  14.893  65.446  1.00  0.00    -0.391 A  
HETATM    7  C   UNL     1      -9.622  16.882  66.348  1.00  0.00    -0.305 A  
HETATM    8  C   UNL     1     -10.593  16.289  65.534  1.00  0.00    -0.369 A  
ENDROOT
BRANCH   6   9
HETATM    9  C   UNL     1     -11.663  14.195  64.576  1.00  0.00    -0.413 C  
HETATM   10  O   UNL     1     -12.865  14.391  64.655  1.00  0.00    -0.643 OA 
BRANCH   9  11
HETATM   11  O   UNL     1     -11.048  13.320  63.748  1.00  0.00    -0.320 OA 
BRANCH  11  12
HETATM   12  C   UNL     1     -11.603  11.996  63.708  1.00  0.00    -0.476 C  
BRANCH  12  13
HETATM   13  C   UNL     1     -10.533  10.984  64.029  1.00  0.00    -0.433 A  
HETATM   14  C   UNL     1      -9.716  10.466  63.013  1.00  0.00    -0.288 A  
HETATM   15  C   UNL     1      -8.714   9.540  63.312  1.00  0.00    -0.238 A  
HETATM   16  C   UNL     1      -8.519   9.123  64.627  1.00  0.00    -0.197 A  
HETATM   17  C   UNL     1      -9.324   9.632  65.646  1.00  0.00    -0.296 A  
HETATM   18  C   UNL     1     -10.327  10.556  65.348  1.00  0.00    -0.292 A  
ENDBRANCH  12  13
ENDBRANCH  11  12
ENDBRANCH   9  11
ENDBRANCH   6   9
TORSDOF 4
ENDMDL
MODEL       96
REMARK 921   NORMALIZED FREE ENERGY PREDICTED BY IDOCK:   -4.55 KCAL/MOL
REMARK 922        TOTAL FREE ENERGY PREDICTED BY IDOCK:   -6.23 KCAL/MOL
REMARK 923 INTER-LIGAND FREE ENERGY PREDICTED BY IDOCK:   -5.90 KCAL/MOL
REMARK 924 INTRA-LIGAND FREE ENERGY PREDICTED BY IDOCK:   -0.33 KCAL/MOL
REMARK 927      BINDING AFFINITY PREDICTED BY RF-SCORE:    0.00 PKD
ROOT
HETATM    1  O   UNL     1     -10.040   5.396  72.611  1.00  0.00    -0.169 OA 
HETATM    2  C   UNL     1     -10.602   6.589  72.268  1.00  0.00    -0.212 A  
HETATM    3  H   UNL     1     -10.564   4.608  72.697  1.00  0.00     0.000 HD 
HETATM    4  C   UNL     1      -9.835   7.740  72.142  1.00  0.00    -0.242 A  
HETATM    5  C   UNL     1     -10.459   8.944  71.806  1.00  0.00    -0.431 A  
HETATM    6  C   UNL     1     -11.847   8.995  71.595  1.00  0.00    -0.431 A  
HETATM    7  C   UNL     1     -11.976   6.618  72.052  1.00  0.00    -0.361 A  
HETATM    8  C   UNL     1     -12.603   7.822  71.715  1.00  0.00    -0.356 A  
ENDROOT
BRANCH   6   9
HETATM    9  C   UNL     1     -12.452  10.317  71.269  1.00  0.00    -0.408 C  
HETATM   10  O   UNL     1     -13.350  10.813  71.930  1.00  0.00    -0.427 OA 
BRANCH   9  11
HETATM   11  O   UNL     1     -11.899  10.843  70.151  1.00  0.00    -0.290 OA 
BRANCH  11  12
HETATM   12  C   UNL     1     -11.983  12.270  70.020  1.00  0.00    -0.304 C  
BRANCH  12  13
HETATM   13  C   UNL     1     -11.837  12.658  68.570  1.00  0.00    -0.342 A  
HETATM   14  C   UNL     1     -11.503  11.696  67.605  1.00  0.00    -0.373 A  
HETATM   15  C   UNL     1     -11.383  12.053  66.261  1.00  0.00    -0.415 A  
HETATM   16  C   UNL     1     -11.595  13.372  65.867  1.00  0.00    -0.370 A  
HETATM   17  C   UNL     1     -11.928  14.337  66.817  1.00  0.00    -0.462 A  
HETATM   18  C   UNL     1     -12.047  13.983  68.161  1.00  0.00    -0.307 A  
ENDBRANCH  12  13
ENDBRANCH  11  12
ENDBRANCH   9  11
ENDBRANCH   6   9
TORSDOF 4
ENDMDL
MODEL       97
REMARK 921   NORMALIZED FREE ENERGY PREDICTED BY IDOCK:   -4.55 KCAL/MOL
REMARK 922        TOTAL FREE ENERGY PREDICTED BY IDOCK:   -6.23 KCAL/MOL
REMARK 923 INTER-LIGAND FREE ENERGY PREDICTED BY IDOCK:   -5.41 KCAL/MOL
REMARK 924 INTRA-LIGAND FREE ENERGY PREDICTED BY IDOCK:   -0.82 KCAL/MOL
REMARK 927      BINDING AFFINITY PREDICTED BY RF-SCORE:    0.00 PKD
ROOT
HETATM    1  O   UNL     1     -14.360   8.946  73.278  1.00  0.00    -1.143 OA 
HETATM    2  C   UNL     1     -13.255   9.117  72.498  1.00  0.00    -0.397 A  
HETATM    3  H   UNL     1     -15.032   9.615  73.336  1.00  0.00     0.000 HD 
HETATM    4  C   UNL     1     -12.272   8.138  72.412  1.00  0.00    -0.374 A  
HETATM    5  C   UNL     1     -11.149   8.366  71.613  1.00  0.00    -0.344 A  
HETATM    6  C   UNL     1     -11.010   9.569  70.901  1.00  0.00    -0.407 A  
HETATM    7  C   UNL     1     -13.140  10.310  71.791  1.00  0.00    -0.570 A  
HETATM    8  C   UNL     1     -12.016  10.539  70.990  1.00  0.00    -0.466 A  
ENDROOT
BRANCH   6   9
HETATM    9  C   UNL     1      -9.773   9.758  70.092  1.00  0.00    -0.248 C  
HETATM   10  O   UNL     1      -9.740  10.457  69.092  1.00  0.00    -0.201 OA 
BRANCH   9  11
HETATM   11  O   UNL     1      -8.746   9.035  70.597  1.00  0.00    -0.173 OA 
BRANCH  11  12
HETATM   12  C   UNL     1      -8.011   8.244  69.652  1.00  0.00    -0.111 C  
BRANCH  12  13
HETATM   13  C   UNL     1      -8.625   6.871  69.549  1.00  0.00    -0.134 A  
HETATM   14  C   UNL     1      -8.541   5.971  70.621  1.00  0.00    -0.134 A  
HETATM   15  C   UNL     1      -9.123   4.705  70.532  1.00  0.00    -0.174 A  
HETATM   16  C   UNL     1      -9.795   4.326  69.371  1.00  0.00    -0.205 A  
HETATM   17  C   UNL     1      -9.885   5.212  68.299  1.00  0.00    -0.212 A  
HETATM   18  C   UNL     1      -9.302   6.477  68.386  1.00  0.00    -0.122 A  
ENDBRANCH  12  13
ENDBRANCH  11  12
ENDBRANCH   9  11
ENDBRANCH   6   9
TORSDOF 4
ENDMDL
MODEL       98
REMARK 921   NORMALIZED FREE ENERGY PREDICTED BY IDOCK:   -4.54 KCAL/MOL
REMARK 922        TOTAL FREE ENERGY PREDICTED BY IDOCK:   -6.22 KCAL/MOL
REMARK 923 INTER-LIGAND FREE ENERGY PREDICTED BY IDOCK:   -5.83 KCAL/MOL
REMARK 924 INTRA-LIGAND FREE ENERGY PREDICTED BY IDOCK:   -0.39 KCAL/MOL
REMARK 927      BINDING AFFINITY PREDICTED BY RF-SCORE:    0.00 PKD
ROOT
HETATM    1  O   UNL     1     -12.598   7.244  72.182  1.00  0.00    -0.469 OA 
HETATM    2  C   UNL     1     -12.516   8.533  71.746  1.00  0.00    -0.342 A  
HETATM    3  H   UNL     1     -13.225   6.987  72.848  1.00  0.00     0.000 HD 
HETATM    4  C   UNL     1     -11.599   8.909  70.771  1.00  0.00    -0.301 A  
HETATM    5  C   UNL     1     -11.539  10.245  70.369  1.00  0.00    -0.411 A  
HETATM    6  C   UNL     1     -12.394  11.203  70.940  1.00  0.00    -0.500 A  
HETATM    7  C   UNL     1     -13.378   9.465  72.314  1.00  0.00    -0.539 A  
HETATM    8  C   UNL     1     -13.319  10.804  71.912  1.00  0.00    -0.445 A  
ENDROOT
BRANCH   6   9
HETATM    9  C   UNL     1     -12.256  12.616  70.486  1.00  0.00    -0.299 C  
HETATM   10  O   UNL     1     -12.847  13.541  71.020  1.00  0.00    -0.317 OA 
BRANCH   9  11
HETATM   11  O   UNL     1     -11.436  12.704  69.413  1.00  0.00    -0.276 OA 
BRANCH  11  12
HETATM   12  C   UNL     1     -11.770  13.715  68.450  1.00  0.00    -0.358 C  
BRANCH  12  13
HETATM   13  C   UNL     1     -10.754  14.827  68.504  1.00  0.00    -0.247 A  
HETATM   14  C   UNL     1      -9.381  14.538  68.510  1.00  0.00    -0.203 A  
HETATM   15  C   UNL     1      -8.440  15.568  68.545  1.00  0.00    -0.163 A  
HETATM   16  C   UNL     1      -8.859  16.896  68.573  1.00  0.00    -0.251 A  
HETATM   17  C   UNL     1     -10.221  17.197  68.567  1.00  0.00    -0.346 A  
HETATM   18  C   UNL     1     -11.163  16.168  68.534  1.00  0.00    -0.365 A  
ENDBRANCH  12  13
ENDBRANCH  11  12
ENDBRANCH   9  11
ENDBRANCH   6   9
TORSDOF 4
ENDMDL
MODEL       99
REMARK 921   NORMALIZED FREE ENERGY PREDICTED BY IDOCK:   -4.52 KCAL/MOL
REMARK 922        TOTAL FREE ENERGY PREDICTED BY IDOCK:   -6.20 KCAL/MOL
REMARK 923 INTER-LIGAND FREE ENERGY PREDICTED BY IDOCK:   -6.13 KCAL/MOL
REMARK 924 INTRA-LIGAND FREE ENERGY PREDICTED BY IDOCK:   -0.07 KCAL/MOL
REMARK 927      BINDING AFFINITY PREDICTED BY RF-SCORE:    0.00 PKD
ROOT
HETATM    1  O   UNL     1     -13.148   8.455  72.920  1.00  0.00    -0.639 OA 
HETATM    2  C   UNL     1     -12.680   9.376  72.031  1.00  0.00    -0.403 A  
HETATM    3  H   UNL     1     -12.748   7.597  73.000  1.00  0.00     0.000 HD 
HETATM    4  C   UNL     1     -13.265  10.631  71.915  1.00  0.00    -0.528 A  
HETATM    5  C   UNL     1     -12.762  11.536  70.977  1.00  0.00    -0.426 A  
HETATM    6  C   UNL     1     -11.675  11.186  70.158  1.00  0.00    -0.439 A  
HETATM    7  C   UNL     1     -11.596   9.016  71.237  1.00  0.00    -0.387 A  
HETATM    8  C   UNL     1     -11.090   9.921  70.297  1.00  0.00    -0.368 A  
ENDROOT
BRANCH   6   9
HETATM    9  C   UNL     1     -11.208  12.187  69.158  1.00  0.00    -0.244 C  
HETATM   10  O   UNL     1     -10.191  12.037  68.500  1.00  0.00    -0.215 OA 
BRANCH   9  11
HETATM   11  O   UNL     1     -12.032  13.260  69.123  1.00  0.00    -0.309 OA 
BRANCH  11  12
HETATM   12  C   UNL     1     -11.561  14.436  69.798  1.00  0.00    -0.298 C  
BRANCH  12  13
HETATM   13  C   UNL     1     -11.095  15.453  68.787  1.00  0.00    -0.284 A  
HETATM   14  C   UNL     1     -11.090  15.145  67.418  1.00  0.00    -0.325 A  
HETATM   15  C   UNL     1     -10.673  16.092  66.480  1.00  0.00    -0.238 A  
HETATM   16  C   UNL     1     -10.257  17.354  66.900  1.00  0.00    -0.322 A  
HETATM   17  C   UNL     1     -10.258  17.671  68.257  1.00  0.00    -0.374 A  
HETATM   18  C   UNL     1     -10.673  16.726  69.196  1.00  0.00    -0.329 A  
ENDBRANCH  12  13
ENDBRANCH  11  12
ENDBRANCH   9  11
ENDBRANCH   6   9
TORSDOF 4
ENDMDL
MODEL      100
REMARK 921   NORMALIZED FREE ENERGY PREDICTED BY IDOCK:   -4.52 KCAL/MOL
REMARK 922        TOTAL FREE ENERGY PREDICTED BY IDOCK:   -6.19 KCAL/MOL
REMARK 923 INTER-LIGAND FREE ENERGY PREDICTED BY IDOCK:   -5.90 KCAL/MOL
REMARK 924 INTRA-LIGAND FREE ENERGY PREDICTED BY IDOCK:   -0.29 KCAL/MOL
REMARK 927      BINDING AFFINITY PREDICTED BY RF-SCORE:    0.00 PKD
ROOT
HETATM    1  O   UNL     1      -8.160   7.438  69.575  1.00  0.00    -0.124 OA 
HETATM    2  C   UNL     1      -9.261   8.100  70.029  1.00  0.00    -0.155 A  
HETATM    3  H   UNL     1      -7.643   6.886  70.149  1.00  0.00     0.000 HD 
HETATM    4  C   UNL     1     -10.018   8.908  69.188  1.00  0.00    -0.192 A  
HETATM    5  C   UNL     1     -11.128   9.581  69.704  1.00  0.00    -0.196 A  
HETATM    6  C   UNL     1     -11.481   9.447  71.057  1.00  0.00    -0.403 A  
HETATM    7  C   UNL     1      -9.602   7.946  71.369  1.00  0.00    -0.187 A  
HETATM    8  C   UNL     1     -10.713   8.620  71.888  1.00  0.00    -0.414 A  
ENDROOT
BRANCH   6   9
HETATM    9  C   UNL     1     -12.658  10.217  71.548  1.00  0.00    -0.440 C  
HETATM   10  O   UNL     1     -13.661   9.679  71.988  1.00  0.00    -0.379 OA 
BRANCH   9  11
HETATM   11  O   UNL     1     -12.463  11.548  71.401  1.00  0.00    -0.316 OA 
BRANCH  11  12
HETATM   12  C   UNL     1     -13.542  12.392  71.833  1.00  0.00    -0.136 C  
BRANCH  12  13
HETATM   13  C   UNL     1     -13.066  13.818  71.933  1.00  0.00    -0.474 A  
HETATM   14  C   UNL     1     -13.118  14.502  73.157  1.00  0.00    -0.553 A  
HETATM   15  C   UNL     1     -12.662  15.819  73.253  1.00  0.00    -0.640 A  
HETATM   16  C   UNL     1     -12.150  16.464  72.130  1.00  0.00    -0.415 A  
HETATM   17  C   UNL     1     -12.092  15.795  70.908  1.00  0.00    -0.459 A  
HETATM   18  C   UNL     1     -12.549  14.480  70.810  1.00  0.00    -0.418 A  
ENDBRANCH  12  13
ENDBRANCH  11  12
ENDBRANCH   9  11
ENDBRANCH   6   9
TORSDOF 4
ENDMDL
MODEL      101
REMARK 921   NORMALIZED FREE ENERGY PREDICTED BY IDOCK:   -4.50 KCAL/MOL
REMARK 922        TOTAL FREE ENERGY PREDICTED BY IDOCK:   -6.18 KCAL/MOL
REMARK 923 INTER-LIGAND FREE ENERGY PREDICTED BY IDOCK:   -5.56 KCAL/MOL
REMARK 924 INTRA-LIGAND FREE ENERGY PREDICTED BY IDOCK:   -0.61 KCAL/MOL
REMARK 927      BINDING AFFINITY PREDICTED BY RF-SCORE:    0.00 PKD
ROOT
HETATM    1  O   UNL     1      -9.816   4.500  66.549  1.00  0.00    -0.191 OA 
HETATM    2  C   UNL     1     -10.056   4.867  67.839  1.00  0.00    -0.085 A  
HETATM    3  H   UNL     1     -10.213   4.963  65.821  1.00  0.00     0.000 HD 
HETATM    4  C   UNL     1      -9.475   4.189  68.904  1.00  0.00    -0.238 A  
HETATM    5  C   UNL     1      -9.765   4.591  70.210  1.00  0.00    -0.287 A  
HETATM    6  C   UNL     1     -10.633   5.669  70.451  1.00  0.00    -0.364 A  
HETATM    7  C   UNL     1     -10.909   5.944  68.058  1.00  0.00    -0.321 A  
HETATM    8  C   UNL     1     -11.201   6.348  69.365  1.00  0.00    -0.459 A  
ENDROOT
BRANCH   6   9
HETATM    9  C   UNL     1     -10.922   6.025  71.868  1.00  0.00    -0.264 C  
HETATM   10  O   UNL     1     -11.446   5.248  72.650  1.00  0.00    -0.262 OA 
BRANCH   9  11
HETATM   11  O   UNL     1     -10.563   7.303  72.131  1.00  0.00    -0.204 OA 
BRANCH  11  12
HETATM   12  C   UNL     1     -11.624   8.184  72.530  1.00  0.00    -0.404 C  
BRANCH  12  13
HETATM   13  C   UNL     1     -11.679   9.370  71.601  1.00  0.00    -0.468 A  
HETATM   14  C   UNL     1     -10.707   9.539  70.604  1.00  0.00    -0.375 A  
HETATM   15  C   UNL     1     -10.767  10.630  69.733  1.00  0.00    -0.283 A  
HETATM   16  C   UNL     1     -11.797  11.560  69.849  1.00  0.00    -0.430 A  
HETATM   17  C   UNL     1     -12.770  11.402  70.835  1.00  0.00    -0.397 A  
HETATM   18  C   UNL     1     -12.710  10.314  71.708  1.00  0.00    -0.535 A  
ENDBRANCH  12  13
ENDBRANCH  11  12
ENDBRANCH   9  11
ENDBRANCH   6   9
TORSDOF 4
ENDMDL
MODEL      102
REMARK 921   NORMALIZED FREE ENERGY PREDICTED BY IDOCK:   -4.45 KCAL/MOL
REMARK 922        TOTAL FREE ENERGY PREDICTED BY IDOCK:   -6.12 KCAL/MOL
REMARK 923 INTER-LIGAND FREE ENERGY PREDICTED BY IDOCK:   -5.75 KCAL/MOL
REMARK 924 INTRA-LIGAND FREE ENERGY PREDICTED BY IDOCK:   -0.37 KCAL/MOL
REMARK 927      BINDING AFFINITY PREDICTED BY RF-SCORE:    0.00 PKD
ROOT
HETATM    1  O   UNL     1      -9.814  17.549  68.487  1.00  0.00    -0.295 OA 
HETATM    2  C   UNL     1     -10.338  16.291  68.469  1.00  0.00    -0.261 A  
HETATM    3  H   UNL     1      -9.236  17.854  67.798  1.00  0.00     0.000 HD 
HETATM    4  C   UNL     1     -11.184  15.846  69.478  1.00  0.00    -0.325 A  
HETATM    5  C   UNL     1     -11.682  14.542  69.426  1.00  0.00    -0.361 A  
HETATM    6  C   UNL     1     -11.335  13.686  68.368  1.00  0.00    -0.329 A  
HETATM    7  C   UNL     1      -9.992  15.461  67.408  1.00  0.00    -0.229 A  
HETATM    8  C   UNL     1     -10.490  14.155  67.354  1.00  0.00    -0.271 A  
ENDROOT
BRANCH   6   9
HETATM    9  C   UNL     1     -11.878  12.298  68.391  1.00  0.00    -0.304 C  
HETATM   10  O   UNL     1     -12.119  11.667  67.374  1.00  0.00    -0.605 OA 
BRANCH   9  11
HETATM   11  O   UNL     1     -12.086  11.879  69.661  1.00  0.00    -0.286 OA 
BRANCH  11  12
HETATM   12  C   UNL     1     -11.175  10.883  70.151  1.00  0.00    -0.237 C  
BRANCH  12  13
HETATM   13  C   UNL     1     -11.947   9.689  70.653  1.00  0.00    -0.304 A  
HETATM   14  C   UNL     1     -11.400   8.400  70.567  1.00  0.00    -0.228 A  
HETATM   15  C   UNL     1     -12.108   7.296  71.047  1.00  0.00    -0.361 A  
HETATM   16  C   UNL     1     -13.367   7.469  71.617  1.00  0.00    -0.414 A  
HETATM   17  C   UNL     1     -13.921   8.745  71.709  1.00  0.00    -0.475 A  
HETATM   18  C   UNL     1     -13.216   9.849  71.228  1.00  0.00    -0.465 A  
ENDBRANCH  12  13
ENDBRANCH  11  12
ENDBRANCH   9  11
ENDBRANCH   6   9
TORSDOF 4
ENDMDL
MODEL      103
REMARK 921   NORMALIZED FREE ENERGY PREDICTED BY IDOCK:   -4.42 KCAL/MOL
REMARK 922        TOTAL FREE ENERGY PREDICTED BY IDOCK:   -6.08 KCAL/MOL
REMARK 923 INTER-LIGAND FREE ENERGY PREDICTED BY IDOCK:   -5.58 KCAL/MOL
REMARK 924 INTRA-LIGAND FREE ENERGY PREDICTED BY IDOCK:   -0.50 KCAL/MOL
REMARK 927      BINDING AFFINITY PREDICTED BY RF-SCORE:    0.00 PKD
ROOT
HETATM    1  O   UNL     1     -13.486   8.739  73.210  1.00  0.00    -0.954 OA 
HETATM    2  C   UNL     1     -12.784   9.027  72.078  1.00  0.00    -0.398 A  
HETATM    3  H   UNL     1     -14.073   9.373  73.603  1.00  0.00     0.000 HD 
HETATM    4  C   UNL     1     -11.925   8.098  71.503  1.00  0.00    -0.334 A  
HETATM    5  C   UNL     1     -11.214   8.445  70.352  1.00  0.00    -0.220 A  
HETATM    6  C   UNL     1     -11.362   9.719  69.777  1.00  0.00    -0.201 A  
HETATM    7  C   UNL     1     -12.953  10.288  71.516  1.00  0.00    -0.556 A  
HETATM    8  C   UNL     1     -12.242  10.638  70.363  1.00  0.00    -0.432 A  
ENDROOT
BRANCH   6   9
HETATM    9  C   UNL     1     -10.551  10.034  68.568  1.00  0.00    -0.215 C  
HETATM   10  O   UNL     1      -9.428   9.589  68.393  1.00  0.00    -0.137 OA 
BRANCH   9  11
HETATM   11  O   UNL     1     -11.212  10.883  67.747  1.00  0.00    -0.289 OA 
BRANCH  11  12
HETATM   12  C   UNL     1     -10.395  11.801  67.004  1.00  0.00    -0.214 C  
BRANCH  12  13
HETATM   13  C   UNL     1     -10.658  13.210  67.472  1.00  0.00    -0.240 A  
HETATM   14  C   UNL     1     -10.722  13.505  68.842  1.00  0.00    -0.228 A  
HETATM   15  C   UNL     1     -10.949  14.813  69.275  1.00  0.00    -0.275 A  
HETATM   16  C   UNL     1     -11.114  15.838  68.346  1.00  0.00    -0.341 A  
HETATM   17  C   UNL     1     -11.052  15.557  66.982  1.00  0.00    -0.238 A  
HETATM   18  C   UNL     1     -10.827  14.250  66.547  1.00  0.00    -0.304 A  
ENDBRANCH  12  13
ENDBRANCH  11  12
ENDBRANCH   9  11
ENDBRANCH   6   9
TORSDOF 4
ENDMDL
MODEL      104
REMARK 921   NORMALIZED FREE ENERGY PREDICTED BY IDOCK:   -4.42 KCAL/MOL
REMARK 922        TOTAL FREE ENERGY PREDICTED BY IDOCK:   -6.08 KCAL/MOL
REMARK 923 INTER-LIGAND FREE ENERGY PREDICTED BY IDOCK:   -5.43 KCAL/MOL
REMARK 924 INTRA-LIGAND FREE ENERGY PREDICTED BY IDOCK:   -0.64 KCAL/MOL
REMARK 927      BINDING AFFINITY PREDICTED BY RF-SCORE:    0.00 PKD
ROOT
HETATM    1  O   UNL     1      -5.884  13.828  69.678  1.00  0.00    -0.094 OA 
HETATM    2  C   UNL     1      -7.004  14.415  69.169  1.00  0.00    -0.123 A  
HETATM    3  H   UNL     1      -5.643  12.939  69.446  1.00  0.00     0.000 HD 
HETATM    4  C   UNL     1      -7.355  15.716  69.508  1.00  0.00    -0.197 A  
HETATM    5  C   UNL     1      -8.522  16.269  68.976  1.00  0.00    -0.244 A  
HETATM    6  C   UNL     1      -9.335  15.524  68.106  1.00  0.00    -0.197 A  
HETATM    7  C   UNL     1      -7.790  13.665  68.301  1.00  0.00    -0.141 A  
HETATM    8  C   UNL     1      -8.959  14.218  67.766  1.00  0.00    -0.188 A  
ENDROOT
BRANCH   6   9
HETATM    9  C   UNL     1     -10.581  16.164  67.599  1.00  0.00    -0.315 C  
HETATM   10  O   UNL     1     -10.736  16.469  66.427  1.00  0.00    -0.261 OA 
BRANCH   9  11
HETATM   11  O   UNL     1     -11.461  16.379  68.604  1.00  0.00    -0.349 OA 
BRANCH  11  12
HETATM   12  C   UNL     1     -12.222  15.237  69.027  1.00  0.00    -0.124 C  
BRANCH  12  13
HETATM   13  C   UNL     1     -12.502  15.331  70.505  1.00  0.00    -0.454 A  
HETATM   14  C   UNL     1     -13.506  14.545  71.091  1.00  0.00    -0.396 A  
HETATM   15  C   UNL     1     -13.755  14.620  72.463  1.00  0.00    -0.572 A  
HETATM   16  C   UNL     1     -13.005  15.479  73.263  1.00  0.00    -0.654 A  
HETATM   17  C   UNL     1     -12.004  16.264  72.693  1.00  0.00    -0.644 A  
HETATM   18  C   UNL     1     -11.755  16.192  71.321  1.00  0.00    -0.480 A  
ENDBRANCH  12  13
ENDBRANCH  11  12
ENDBRANCH   9  11
ENDBRANCH   6   9
TORSDOF 4
ENDMDL
MODEL      105
REMARK 921   NORMALIZED FREE ENERGY PREDICTED BY IDOCK:   -4.38 KCAL/MOL
REMARK 922        TOTAL FREE ENERGY PREDICTED BY IDOCK:   -6.03 KCAL/MOL
REMARK 923 INTER-LIGAND FREE ENERGY PREDICTED BY IDOCK:   -5.64 KCAL/MOL
REMARK 924 INTRA-LIGAND FREE ENERGY PREDICTED BY IDOCK:   -0.39 KCAL/MOL
REMARK 927      BINDING AFFINITY PREDICTED BY RF-SCORE:    0.00 PKD
ROOT
HETATM    1  O   UNL     1     -11.559   7.616  73.370  1.00  0.00    -0.641 OA 
HETATM    2  C   UNL     1     -11.337   7.757  72.032  1.00  0.00    -0.284 A  
HETATM    3  H   UNL     1     -11.376   8.321  73.978  1.00  0.00     0.000 HD 
HETATM    4  C   UNL     1     -11.605   6.724  71.142  1.00  0.00    -0.377 A  
HETATM    5  C   UNL     1     -11.344   6.910  69.782  1.00  0.00    -0.288 A  
HETATM    6  C   UNL     1     -10.818   8.126  69.314  1.00  0.00    -0.064 A  
HETATM    7  C   UNL     1     -10.826   8.972  71.586  1.00  0.00    -0.437 A  
HETATM    8  C   UNL     1     -10.565   9.160  70.225  1.00  0.00    -0.261 A  
ENDROOT
BRANCH   6   9
HETATM    9  C   UNL     1     -10.536   8.246  67.856  1.00  0.00    -0.198 C  
HETATM   10  O   UNL     1     -10.743   7.338  67.067  1.00  0.00    -0.332 OA 
BRANCH   9  11
HETATM   11  O   UNL     1     -10.002   9.454  67.562  1.00  0.00    -0.176 OA 
BRANCH  11  12
HETATM   12  C   UNL     1      -9.384   9.570  66.271  1.00  0.00    -0.188 C  
BRANCH  12  13
HETATM   13  C   UNL     1     -10.077  10.641  65.468  1.00  0.00    -0.343 A  
HETATM   14  C   UNL     1     -10.878  11.601  66.103  1.00  0.00    -0.343 A  
HETATM   15  C   UNL     1     -11.508  12.603  65.361  1.00  0.00    -0.373 A  
HETATM   16  C   UNL     1     -11.343  12.655  63.979  1.00  0.00    -0.466 A  
HETATM   17  C   UNL     1     -10.548  11.707  63.336  1.00  0.00    -0.472 A  
HETATM   18  C   UNL     1      -9.919  10.704  64.076  1.00  0.00    -0.401 A  
ENDBRANCH  12  13
ENDBRANCH  11  12
ENDBRANCH   9  11
ENDBRANCH   6   9
TORSDOF 4
ENDMDL
MODEL      106
REMARK 921   NORMALIZED FREE ENERGY PREDICTED BY IDOCK:   -4.38 KCAL/MOL
REMARK 922        TOTAL FREE ENERGY PREDICTED BY IDOCK:   -6.02 KCAL/MOL
REMARK 923 INTER-LIGAND FREE ENERGY PREDICTED BY IDOCK:   -5.73 KCAL/MOL
REMARK 924 INTRA-LIGAND FREE ENERGY PREDICTED BY IDOCK:   -0.29 KCAL/MOL
REMARK 927      BINDING AFFINITY PREDICTED BY RF-SCORE:    0.00 PKD
ROOT
HETATM    1  O   UNL     1     -10.063  17.661  67.708  1.00  0.00    -0.307 OA 
HETATM    2  C   UNL     1     -10.569  16.542  67.116  1.00  0.00    -0.270 A  
HETATM    3  H   UNL     1      -9.557  18.295  67.214  1.00  0.00     0.000 HD 
HETATM    4  C   UNL     1     -11.309  15.614  67.839  1.00  0.00    -0.302 A  
HETATM    5  C   UNL     1     -11.792  14.473  67.193  1.00  0.00    -0.412 A  
HETATM    6  C   UNL     1     -11.536  14.262  65.828  1.00  0.00    -0.346 A  
HETATM    7  C   UNL     1     -10.315  16.355  65.761  1.00  0.00    -0.388 A  
HETATM    8  C   UNL     1     -10.798  15.214  65.113  1.00  0.00    -0.437 A  
ENDROOT
BRANCH   6   9
HETATM    9  C   UNL     1     -12.055  13.009  65.210  1.00  0.00    -0.441 C  
HETATM   10  O   UNL     1     -13.227  12.861  64.904  1.00  0.00    -0.782 OA 
BRANCH   9  11
HETATM   11  O   UNL     1     -11.072  12.088  65.080  1.00  0.00    -0.303 OA 
BRANCH  11  12
HETATM   12  C   UNL     1     -10.861  11.232  66.212  1.00  0.00    -0.238 C  
BRANCH  12  13
HETATM   13  C   UNL     1     -10.008  10.055  65.810  1.00  0.00    -0.346 A  
HETATM   14  C   UNL     1      -9.224  10.108  64.648  1.00  0.00    -0.300 A  
HETATM   15  C   UNL     1      -8.422   9.024  64.283  1.00  0.00    -0.185 A  
HETATM   16  C   UNL     1      -8.395   7.879  65.076  1.00  0.00    -0.111 A  
HETATM   17  C   UNL     1      -9.168   7.815  66.234  1.00  0.00    -0.217 A  
HETATM   18  C   UNL     1      -9.972   8.896  66.599  1.00  0.00    -0.346 A  
ENDBRANCH  12  13
ENDBRANCH  11  12
ENDBRANCH   9  11
ENDBRANCH   6   9
TORSDOF 4
ENDMDL
MODEL      107
REMARK 921   NORMALIZED FREE ENERGY PREDICTED BY IDOCK:   -4.38 KCAL/MOL
REMARK 922        TOTAL FREE ENERGY PREDICTED BY IDOCK:   -6.02 KCAL/MOL
REMARK 923 INTER-LIGAND FREE ENERGY PREDICTED BY IDOCK:   -5.20 KCAL/MOL
REMARK 924 INTRA-LIGAND FREE ENERGY PREDICTED BY IDOCK:   -0.82 KCAL/MOL
REMARK 927      BINDING AFFINITY PREDICTED BY RF-SCORE:    0.00 PKD
ROOT
HETATM    1  O   UNL     1      -7.673   9.199  64.937  1.00  0.00    -0.104 OA 
HETATM    2  C   UNL     1      -8.573   9.777  65.782  1.00  0.00    -0.135 A  
HETATM    3  H   UNL     1      -7.803   8.320  64.603  1.00  0.00     0.000 HD 
HETATM    4  C   UNL     1      -8.383  11.065  66.270  1.00  0.00    -0.166 A  
HETATM    5  C   UNL     1      -9.324  11.608  67.148  1.00  0.00    -0.178 A  
HETATM    6  C   UNL     1     -10.452  10.867  67.536  1.00  0.00    -0.252 A  
HETATM    7  C   UNL     1      -9.690   9.032  66.147  1.00  0.00    -0.354 A  
HETATM    8  C   UNL     1     -10.633   9.575  67.026  1.00  0.00    -0.271 A  
ENDROOT
BRANCH   6   9
HETATM    9  C   UNL     1     -11.400  11.496  68.499  1.00  0.00    -0.277 C  
HETATM   10  O   UNL     1     -12.338  10.890  68.991  1.00  0.00    -0.464 OA 
BRANCH   9  11
HETATM   11  O   UNL     1     -11.091  12.797  68.704  1.00  0.00    -0.240 OA 
BRANCH  11  12
HETATM   12  C   UNL     1     -12.112  13.746  68.358  1.00  0.00    -0.289 C  
BRANCH  12  13
HETATM   13  C   UNL     1     -11.808  14.354  67.012  1.00  0.00    -0.437 A  
HETATM   14  C   UNL     1     -10.813  15.334  66.881  1.00  0.00    -0.317 A  
HETATM   15  C   UNL     1     -10.521  15.885  65.632  1.00  0.00    -0.411 A  
HETATM   16  C   UNL     1     -11.219  15.463  64.502  1.00  0.00    -0.310 A  
HETATM   17  C   UNL     1     -12.210  14.489  64.620  1.00  0.00    -0.474 A  
HETATM   18  C   UNL     1     -12.504  13.938  65.868  1.00  0.00    -0.519 A  
ENDBRANCH  12  13
ENDBRANCH  11  12
ENDBRANCH   9  11
ENDBRANCH   6   9
TORSDOF 4
ENDMDL
MODEL      108
REMARK 921   NORMALIZED FREE ENERGY PREDICTED BY IDOCK:   -4.37 KCAL/MOL
REMARK 922        TOTAL FREE ENERGY PREDICTED BY IDOCK:   -6.01 KCAL/MOL
REMARK 923 INTER-LIGAND FREE ENERGY PREDICTED BY IDOCK:   -5.30 KCAL/MOL
REMARK 924 INTRA-LIGAND FREE ENERGY PREDICTED BY IDOCK:   -0.71 KCAL/MOL
REMARK 927      BINDING AFFINITY PREDICTED BY RF-SCORE:    0.00 PKD
ROOT
HETATM    1  O   UNL     1      -6.683   9.271  69.904  1.00  0.00    -0.044 OA 
HETATM    2  C   UNL     1      -7.920   8.915  70.352  1.00  0.00    -0.117 A  
HETATM    3  H   UNL     1      -5.951   9.369  70.500  1.00  0.00     0.000 HD 
HETATM    4  C   UNL     1      -8.992   8.772  69.478  1.00  0.00    -0.145 A  
HETATM    5  C   UNL     1     -10.245   8.423  69.986  1.00  0.00    -0.202 A  
HETATM    6  C   UNL     1     -10.427   8.217  71.364  1.00  0.00    -0.261 A  
HETATM    7  C   UNL     1      -8.078   8.704  71.718  1.00  0.00    -0.170 A  
HETATM    8  C   UNL     1      -9.333   8.354  72.228  1.00  0.00    -0.356 A  
ENDROOT
BRANCH   6   9
HETATM    9  C   UNL     1     -11.796   7.876  71.842  1.00  0.00    -0.301 C  
HETATM   10  O   UNL     1     -12.268   6.754  71.747  1.00  0.00    -0.333 OA 
BRANCH   9  11
HETATM   11  O   UNL     1     -12.422   8.967  72.341  1.00  0.00    -0.361 OA 
BRANCH  11  12
HETATM   12  C   UNL     1     -13.381   9.593  71.475  1.00  0.00    -0.388 C  
BRANCH  12  13
HETATM   13  C   UNL     1     -13.003  11.035  71.253  1.00  0.00    -0.472 A  
HETATM   14  C   UNL     1     -12.138  11.393  70.207  1.00  0.00    -0.459 A  
HETATM   15  C   UNL     1     -11.800  12.730  69.992  1.00  0.00    -0.352 A  
HETATM   16  C   UNL     1     -12.322  13.723  70.818  1.00  0.00    -0.451 A  
HETATM   17  C   UNL     1     -13.182  13.381  71.861  1.00  0.00    -0.522 A  
HETATM   18  C   UNL     1     -13.520  12.044  72.078  1.00  0.00    -0.364 A  
ENDBRANCH  12  13
ENDBRANCH  11  12
ENDBRANCH   9  11
ENDBRANCH   6   9
TORSDOF 4
ENDMDL
MODEL      109
REMARK 921   NORMALIZED FREE ENERGY PREDICTED BY IDOCK:   -4.35 KCAL/MOL
REMARK 922        TOTAL FREE ENERGY PREDICTED BY IDOCK:   -5.99 KCAL/MOL
REMARK 923 INTER-LIGAND FREE ENERGY PREDICTED BY IDOCK:   -5.43 KCAL/MOL
REMARK 924 INTRA-LIGAND FREE ENERGY PREDICTED BY IDOCK:   -0.56 KCAL/MOL
REMARK 927      BINDING AFFINITY PREDICTED BY RF-SCORE:    0.00 PKD
ROOT
HETATM    1  O   UNL     1      -8.090  20.845  67.241  1.00  0.00    -0.496 OA 
HETATM    2  C   UNL     1      -8.806  19.808  66.722  1.00  0.00    -0.347 A  
HETATM    3  H   UNL     1      -7.207  20.722  67.568  1.00  0.00     0.000 HD 
HETATM    4  C   UNL     1     -10.098  19.989  66.243  1.00  0.00    -0.603 A  
HETATM    5  C   UNL     1     -10.799  18.892  65.736  1.00  0.00    -0.198 A  
HETATM    6  C   UNL     1     -10.208  17.618  65.707  1.00  0.00    -0.160 A  
HETATM    7  C   UNL     1      -8.200  18.556  66.690  1.00  0.00    -0.288 A  
HETATM    8  C   UNL     1      -8.901  17.456  66.183  1.00  0.00    -0.180 A  
ENDROOT
BRANCH   6   9
HETATM    9  C   UNL     1     -11.022  16.486  65.181  1.00  0.00    -0.191 C  
HETATM   10  O   UNL     1     -11.483  16.474  64.050  1.00  0.00    -1.137 OA 
BRANCH   9  11
HETATM   11  O   UNL     1     -11.195  15.532  66.125  1.00  0.00    -0.245 OA 
BRANCH  11  12
HETATM   12  C   UNL     1     -11.103  14.174  65.669  1.00  0.00    -0.307 C  
BRANCH  12  13
HETATM   13  C   UNL     1     -10.213  13.384  66.595  1.00  0.00    -0.274 A  
HETATM   14  C   UNL     1     -10.641  12.154  67.117  1.00  0.00    -0.254 A  
HETATM   15  C   UNL     1      -9.810  11.416  67.963  1.00  0.00    -0.191 A  
HETATM   16  C   UNL     1      -8.546  11.897  68.294  1.00  0.00    -0.162 A  
HETATM   17  C   UNL     1      -8.109  13.117  67.781  1.00  0.00    -0.165 A  
HETATM   18  C   UNL     1      -8.938  13.858  66.937  1.00  0.00    -0.236 A  
ENDBRANCH  12  13
ENDBRANCH  11  12
ENDBRANCH   9  11
ENDBRANCH   6   9
TORSDOF 4
ENDMDL
MODEL      110
REMARK 921   NORMALIZED FREE ENERGY PREDICTED BY IDOCK:   -4.34 KCAL/MOL
REMARK 922        TOTAL FREE ENERGY PREDICTED BY IDOCK:   -5.98 KCAL/MOL
REMARK 923 INTER-LIGAND FREE ENERGY PREDICTED BY IDOCK:   -5.54 KCAL/MOL
REMARK 924 INTRA-LIGAND FREE ENERGY PREDICTED BY IDOCK:   -0.44 KCAL/MOL
REMARK 927      BINDING AFFINITY PREDICTED BY RF-SCORE:    0.00 PKD
ROOT
HETATM    1  O   UNL     1      -8.718   8.699  72.283  1.00  0.00    -0.306 OA 
HETATM    2  C   UNL     1      -9.293   9.223  71.164  1.00  0.00    -0.189 A  
HETATM    3  H   UNL     1      -7.775   8.664  72.384  1.00  0.00     0.000 HD 
HETATM    4  C   UNL     1     -10.674   9.275  71.017  1.00  0.00    -0.387 A  
HETATM    5  C   UNL     1     -11.217   9.804  69.844  1.00  0.00    -0.271 A  
HETATM    6  C   UNL     1     -10.381  10.281  68.821  1.00  0.00    -0.211 A  
HETATM    7  C   UNL     1      -8.450   9.701  70.166  1.00  0.00    -0.231 A  
HETATM    8  C   UNL     1      -8.992  10.231  68.991  1.00  0.00    -0.175 A  
ENDROOT
BRANCH   6   9
HETATM    9  C   UNL     1     -11.026  10.804  67.584  1.00  0.00    -0.306 C  
HETATM   10  O   UNL     1     -10.639  10.513  66.463  1.00  0.00    -0.231 OA 
BRANCH   9  11
HETATM   11  O   UNL     1     -12.042  11.647  67.884  1.00  0.00    -0.613 OA 
BRANCH  11  12
HETATM   12  C   UNL     1     -11.666  12.998  68.192  1.00  0.00    -0.351 C  
BRANCH  12  13
HETATM   13  C   UNL     1     -11.601  13.811  66.924  1.00  0.00    -0.394 A  
HETATM   14  C   UNL     1     -10.586  14.761  66.738  1.00  0.00    -0.302 A  
HETATM   15  C   UNL     1     -10.516  15.503  65.557  1.00  0.00    -0.407 A  
HETATM   16  C   UNL     1     -11.458  15.302  64.550  1.00  0.00    -0.318 A  
HETATM   17  C   UNL     1     -12.471  14.361  64.723  1.00  0.00    -0.371 A  
HETATM   18  C   UNL     1     -12.544  13.620  65.904  1.00  0.00    -0.478 A  
ENDBRANCH  12  13
ENDBRANCH  11  12
ENDBRANCH   9  11
ENDBRANCH   6   9
TORSDOF 4
ENDMDL
MODEL      111
REMARK 921   NORMALIZED FREE ENERGY PREDICTED BY IDOCK:   -4.33 KCAL/MOL
REMARK 922        TOTAL FREE ENERGY PREDICTED BY IDOCK:   -5.96 KCAL/MOL
REMARK 923 INTER-LIGAND FREE ENERGY PREDICTED BY IDOCK:   -5.64 KCAL/MOL
REMARK 924 INTRA-LIGAND FREE ENERGY PREDICTED BY IDOCK:   -0.32 KCAL/MOL
REMARK 927      BINDING AFFINITY PREDICTED BY RF-SCORE:    0.00 PKD
ROOT
HETATM    1  O   UNL     1     -12.837  14.283  63.526  1.00  0.00    -0.669 OA 
HETATM    2  C   UNL     1     -12.124  13.309  64.160  1.00  0.00    -0.432 A  
HETATM    3  H   UNL     1     -12.810  14.380  62.582  1.00  0.00     0.000 HD 
HETATM    4  C   UNL     1     -12.163  13.168  65.542  1.00  0.00    -0.513 A  
HETATM    5  C   UNL     1     -11.401  12.166  66.148  1.00  0.00    -0.414 A  
HETATM    6  C   UNL     1     -10.603  11.307  65.374  1.00  0.00    -0.312 A  
HETATM    7  C   UNL     1     -11.349  12.461  63.376  1.00  0.00    -0.507 A  
HETATM    8  C   UNL     1     -10.586  11.457  63.981  1.00  0.00    -0.444 A  
ENDROOT
BRANCH   6   9
HETATM    9  C   UNL     1      -9.793  10.280  66.087  1.00  0.00    -0.225 C  
HETATM   10  O   UNL     1      -8.868   9.685  65.558  1.00  0.00    -0.151 OA 
BRANCH   9  11
HETATM   11  O   UNL     1     -10.248  10.091  67.348  1.00  0.00    -0.192 OA 
BRANCH  11  12
HETATM   12  C   UNL     1     -10.264   8.733  67.813  1.00  0.00    -0.228 C  
BRANCH  12  13
HETATM   13  C   UNL     1     -10.001   8.699  69.297  1.00  0.00    -0.195 A  
HETATM   14  C   UNL     1     -11.029   8.980  70.209  1.00  0.00    -0.274 A  
HETATM   15  C   UNL     1     -10.789   8.934  71.584  1.00  0.00    -0.420 A  
HETATM   16  C   UNL     1      -9.522   8.605  72.061  1.00  0.00    -0.370 A  
HETATM   17  C   UNL     1      -8.492   8.323  71.164  1.00  0.00    -0.164 A  
HETATM   18  C   UNL     1      -8.730   8.371  69.789  1.00  0.00    -0.133 A  
ENDBRANCH  12  13
ENDBRANCH  11  12
ENDBRANCH   9  11
ENDBRANCH   6   9
TORSDOF 4
ENDMDL
MODEL      112
REMARK 921   NORMALIZED FREE ENERGY PREDICTED BY IDOCK:   -4.32 KCAL/MOL
REMARK 922        TOTAL FREE ENERGY PREDICTED BY IDOCK:   -5.95 KCAL/MOL
REMARK 923 INTER-LIGAND FREE ENERGY PREDICTED BY IDOCK:   -5.38 KCAL/MOL
REMARK 924 INTRA-LIGAND FREE ENERGY PREDICTED BY IDOCK:   -0.58 KCAL/MOL
REMARK 927      BINDING AFFINITY PREDICTED BY RF-SCORE:    0.00 PKD
ROOT
HETATM    1  O   UNL     1      -9.834   4.796  69.501  1.00  0.00    -0.190 OA 
HETATM    2  C   UNL     1     -10.045   6.022  68.944  1.00  0.00    -0.176 A  
HETATM    3  H   UNL     1      -9.293   4.691  70.274  1.00  0.00     0.000 HD 
HETATM    4  C   UNL     1     -10.837   6.176  67.813  1.00  0.00    -0.413 A  
HETATM    5  C   UNL     1     -11.011   7.451  67.268  1.00  0.00    -0.234 A  
HETATM    6  C   UNL     1     -10.394   8.569  67.854  1.00  0.00    -0.281 A  
HETATM    7  C   UNL     1      -9.436   7.120  69.545  1.00  0.00    -0.151 A  
HETATM    8  C   UNL     1      -9.609   8.397  69.001  1.00  0.00    -0.160 A  
ENDROOT
BRANCH   6   9
HETATM    9  C   UNL     1     -10.597   9.894  67.204  1.00  0.00    -0.228 C  
HETATM   10  O   UNL     1      -9.887  10.300  66.298  1.00  0.00    -0.198 OA 
BRANCH   9  11
HETATM   11  O   UNL     1     -11.624  10.564  67.776  1.00  0.00    -0.462 OA 
BRANCH  11  12
HETATM   12  C   UNL     1     -11.325  11.886  68.251  1.00  0.00    -0.277 C  
BRANCH  12  13
HETATM   13  C   UNL     1     -11.945  12.092  69.609  1.00  0.00    -0.351 A  
HETATM   14  C   UNL     1     -12.137  13.386  70.116  1.00  0.00    -0.415 A  
HETATM   15  C   UNL     1     -12.725  13.578  71.368  1.00  0.00    -0.423 A  
HETATM   16  C   UNL     1     -13.128  12.480  72.125  1.00  0.00    -0.428 A  
HETATM   17  C   UNL     1     -12.943  11.189  71.633  1.00  0.00    -0.548 A  
HETATM   18  C   UNL     1     -12.353  10.996  70.382  1.00  0.00    -0.442 A  
ENDBRANCH  12  13
ENDBRANCH  11  12
ENDBRANCH   9  11
ENDBRANCH   6   9
TORSDOF 4
ENDMDL
MODEL      113
REMARK 921   NORMALIZED FREE ENERGY PREDICTED BY IDOCK:   -4.32 KCAL/MOL
REMARK 922        TOTAL FREE ENERGY PREDICTED BY IDOCK:   -5.95 KCAL/MOL
REMARK 923 INTER-LIGAND FREE ENERGY PREDICTED BY IDOCK:   -5.79 KCAL/MOL
REMARK 924 INTRA-LIGAND FREE ENERGY PREDICTED BY IDOCK:   -0.16 KCAL/MOL
REMARK 927      BINDING AFFINITY PREDICTED BY RF-SCORE:    0.00 PKD
ROOT
HETATM    1  O   UNL     1      -7.144  18.986  68.566  1.00  0.00    -0.266 OA 
HETATM    2  C   UNL     1      -8.089  18.043  68.290  1.00  0.00    -0.291 A  
HETATM    3  H   UNL     1      -6.328  18.758  68.994  1.00  0.00     0.000 HD 
HETATM    4  C   UNL     1      -9.283  18.378  67.663  1.00  0.00    -0.274 A  
HETATM    5  C   UNL     1     -10.229  17.379  67.417  1.00  0.00    -0.326 A  
HETATM    6  C   UNL     1      -9.980  16.049  67.797  1.00  0.00    -0.234 A  
HETATM    7  C   UNL     1      -7.820  16.730  68.663  1.00  0.00    -0.241 A  
HETATM    8  C   UNL     1      -8.766  15.729  68.417  1.00  0.00    -0.177 A  
ENDROOT
BRANCH   6   9
HETATM    9  C   UNL     1     -11.044  15.041  67.532  1.00  0.00    -0.317 C  
HETATM   10  O   UNL     1     -10.991  14.256  66.598  1.00  0.00    -0.301 OA 
BRANCH   9  11
HETATM   11  O   UNL     1     -12.052  15.151  68.428  1.00  0.00    -0.241 OA 
BRANCH  11  12
HETATM   12  C   UNL     1     -11.665  15.156  69.811  1.00  0.00    -0.319 C  
BRANCH  12  13
HETATM   13  C   UNL     1     -12.170  13.906  70.486  1.00  0.00    -0.443 A  
HETATM   14  C   UNL     1     -11.815  12.640  69.998  1.00  0.00    -0.358 A  
HETATM   15  C   UNL     1     -12.269  11.482  70.633  1.00  0.00    -0.473 A  
HETATM   16  C   UNL     1     -13.081  11.578  71.761  1.00  0.00    -0.503 A  
HETATM   17  C   UNL     1     -13.440  12.831  72.256  1.00  0.00    -0.591 A  
HETATM   18  C   UNL     1     -12.989  13.989  71.622  1.00  0.00    -0.430 A  
ENDBRANCH  12  13
ENDBRANCH  11  12
ENDBRANCH   9  11
ENDBRANCH   6   9
TORSDOF 4
ENDMDL
MODEL      114
REMARK 921   NORMALIZED FREE ENERGY PREDICTED BY IDOCK:   -4.31 KCAL/MOL
REMARK 922        TOTAL FREE ENERGY PREDICTED BY IDOCK:   -5.93 KCAL/MOL
REMARK 923 INTER-LIGAND FREE ENERGY PREDICTED BY IDOCK:   -5.63 KCAL/MOL
REMARK 924 INTRA-LIGAND FREE ENERGY PREDICTED BY IDOCK:   -0.31 KCAL/MOL
REMARK 927      BINDING AFFINITY PREDICTED BY RF-SCORE:    0.00 PKD
ROOT
HETATM    1  O   UNL     1     -10.298   8.734  69.726  1.00  0.00    -0.200 OA 
HETATM    2  C   UNL     1     -10.685   9.752  68.907  1.00  0.00    -0.217 A  
HETATM    3  H   UNL     1     -10.544   8.717  70.643  1.00  0.00     0.000 HD 
HETATM    4  C   UNL     1     -10.325   9.777  67.565  1.00  0.00    -0.291 A  
HETATM    5  C   UNL     1     -10.730  10.851  66.768  1.00  0.00    -0.309 A  
HETATM    6  C   UNL     1     -11.493  11.897  67.313  1.00  0.00    -0.385 A  
HETATM    7  C   UNL     1     -11.450  10.774  69.461  1.00  0.00    -0.365 A  
HETATM    8  C   UNL     1     -11.856  11.850  68.665  1.00  0.00    -0.365 A  
ENDROOT
BRANCH   6   9
HETATM    9  C   UNL     1     -11.865  13.026  66.415  1.00  0.00    -0.405 C  
HETATM   10  O   UNL     1     -12.634  12.896  65.475  1.00  0.00    -0.559 OA 
BRANCH   9  11
HETATM   11  O   UNL     1     -11.216  14.161  66.766  1.00  0.00    -0.306 OA 
BRANCH  11  12
HETATM   12  C   UNL     1     -11.003  15.114  65.714  1.00  0.00    -0.349 C  
BRANCH  12  13
HETATM   13  C   UNL     1     -10.730  16.474  66.304  1.00  0.00    -0.146 A  
HETATM   14  C   UNL     1     -10.487  16.618  67.678  1.00  0.00    -0.320 A  
HETATM   15  C   UNL     1     -10.219  17.875  68.223  1.00  0.00    -0.391 A  
HETATM   16  C   UNL     1     -10.190  19.000  67.401  1.00  0.00    -0.473 A  
HETATM   17  C   UNL     1     -10.428  18.869  66.034  1.00  0.00    -0.507 A  
HETATM   18  C   UNL     1     -10.699  17.613  65.488  1.00  0.00    -0.037 A  
ENDBRANCH  12  13
ENDBRANCH  11  12
ENDBRANCH   9  11
ENDBRANCH   6   9
TORSDOF 4
ENDMDL
MODEL      115
REMARK 921   NORMALIZED FREE ENERGY PREDICTED BY IDOCK:   -4.28 KCAL/MOL
REMARK 922        TOTAL FREE ENERGY PREDICTED BY IDOCK:   -5.91 KCAL/MOL
REMARK 923 INTER-LIGAND FREE ENERGY PREDICTED BY IDOCK:   -5.33 KCAL/MOL
REMARK 924 INTRA-LIGAND FREE ENERGY PREDICTED BY IDOCK:   -0.57 KCAL/MOL
REMARK 927      BINDING AFFINITY PREDICTED BY RF-SCORE:    0.00 PKD
ROOT
HETATM    1  O   UNL     1      -9.400   8.736  65.143  1.00  0.00    -0.439 OA 
HETATM    2  C   UNL     1      -9.997   9.710  65.886  1.00  0.00    -0.281 A  
HETATM    3  H   UNL     1      -9.144   7.907  65.529  1.00  0.00     0.000 HD 
HETATM    4  C   UNL     1     -10.372  10.923  65.321  1.00  0.00    -0.334 A  
HETATM    5  C   UNL     1     -10.965  11.899  66.126  1.00  0.00    -0.352 A  
HETATM    6  C   UNL     1     -11.182  11.661  67.494  1.00  0.00    -0.355 A  
HETATM    7  C   UNL     1     -10.215   9.453  67.236  1.00  0.00    -0.308 A  
HETATM    8  C   UNL     1     -10.808  10.428  68.044  1.00  0.00    -0.319 A  
ENDROOT
BRANCH   6   9
HETATM    9  C   UNL     1     -11.791  12.755  68.301  1.00  0.00    -0.312 C  
HETATM   10  O   UNL     1     -12.078  12.624  69.480  1.00  0.00    -0.271 OA 
BRANCH   9  11
HETATM   11  O   UNL     1     -12.001  13.858  67.545  1.00  0.00    -0.377 OA 
BRANCH  11  12
HETATM   12  C   UNL     1     -11.854  15.118  68.218  1.00  0.00    -0.250 C  
BRANCH  12  13
HETATM   13  C   UNL     1     -10.590  15.798  67.757  1.00  0.00    -0.292 A  
HETATM   14  C   UNL     1     -10.130  16.957  68.399  1.00  0.00    -0.304 A  
HETATM   15  C   UNL     1      -8.951  17.579  67.982  1.00  0.00    -0.258 A  
HETATM   16  C   UNL     1      -8.220  17.049  66.921  1.00  0.00    -0.245 A  
HETATM   17  C   UNL     1      -8.667  15.897  66.275  1.00  0.00    -0.372 A  
HETATM   18  C   UNL     1      -9.846  15.275  66.689  1.00  0.00    -0.263 A  
ENDBRANCH  12  13
ENDBRANCH  11  12
ENDBRANCH   9  11
ENDBRANCH   6   9
TORSDOF 4
ENDMDL
MODEL      116
REMARK 921   NORMALIZED FREE ENERGY PREDICTED BY IDOCK:   -4.28 KCAL/MOL
REMARK 922        TOTAL FREE ENERGY PREDICTED BY IDOCK:   -5.90 KCAL/MOL
REMARK 923 INTER-LIGAND FREE ENERGY PREDICTED BY IDOCK:   -5.38 KCAL/MOL
REMARK 924 INTRA-LIGAND FREE ENERGY PREDICTED BY IDOCK:   -0.53 KCAL/MOL
REMARK 927      BINDING AFFINITY PREDICTED BY RF-SCORE:    0.00 PKD
ROOT
HETATM    1  O   UNL     1     -12.629  13.931  62.945  1.00  0.00    -0.966 OA 
HETATM    2  C   UNL     1     -11.925  13.471  64.017  1.00  0.00    -0.449 A  
HETATM    3  H   UNL     1     -12.448  13.621  62.065  1.00  0.00     0.000 HD 
HETATM    4  C   UNL     1     -12.190  13.925  65.304  1.00  0.00    -0.449 A  
HETATM    5  C   UNL     1     -11.430  13.438  66.370  1.00  0.00    -0.359 A  
HETATM    6  C   UNL     1     -10.408  12.499  66.150  1.00  0.00    -0.274 A  
HETATM    7  C   UNL     1     -10.924  12.534  63.782  1.00  0.00    -0.496 A  
HETATM    8  C   UNL     1     -10.162  12.045  64.848  1.00  0.00    -0.302 A  
ENDROOT
BRANCH   6   9
HETATM    9  C   UNL     1      -9.616  12.045  67.327  1.00  0.00    -0.183 C  
HETATM   10  O   UNL     1      -8.395  12.062  67.348  1.00  0.00    -0.154 OA 
BRANCH   9  11
HETATM   11  O   UNL     1     -10.426  11.594  68.314  1.00  0.00    -0.189 OA 
BRANCH  11  12
HETATM   12  C   UNL     1     -11.200  10.425  68.005  1.00  0.00    -0.272 C  
BRANCH  12  13
HETATM   13  C   UNL     1     -10.308   9.210  67.997  1.00  0.00    -0.272 A  
HETATM   14  C   UNL     1      -9.519   8.898  69.114  1.00  0.00    -0.157 A  
HETATM   15  C   UNL     1      -8.704   7.764  69.112  1.00  0.00    -0.139 A  
HETATM   16  C   UNL     1      -8.670   6.931  67.996  1.00  0.00    -0.125 A  
HETATM   17  C   UNL     1      -9.450   7.231  66.880  1.00  0.00    -0.208 A  
HETATM   18  C   UNL     1     -10.263   8.365  66.879  1.00  0.00    -0.383 A  
ENDBRANCH  12  13
ENDBRANCH  11  12
ENDBRANCH   9  11
ENDBRANCH   6   9
TORSDOF 4
ENDMDL
MODEL      117
REMARK 921   NORMALIZED FREE ENERGY PREDICTED BY IDOCK:   -4.28 KCAL/MOL
REMARK 922        TOTAL FREE ENERGY PREDICTED BY IDOCK:   -5.90 KCAL/MOL
REMARK 923 INTER-LIGAND FREE ENERGY PREDICTED BY IDOCK:   -5.56 KCAL/MOL
REMARK 924 INTRA-LIGAND FREE ENERGY PREDICTED BY IDOCK:   -0.34 KCAL/MOL
REMARK 927      BINDING AFFINITY PREDICTED BY RF-SCORE:    0.00 PKD
ROOT
HETATM    1  O   UNL     1     -13.598  12.524  72.342  1.00  0.00    -0.600 OA 
HETATM    2  C   UNL     1     -12.886  11.744  71.481  1.00  0.00    -0.345 A  
HETATM    3  H   UNL     1     -13.693  13.458  72.199  1.00  0.00     0.000 HD 
HETATM    4  C   UNL     1     -12.747  10.377  71.690  1.00  0.00    -0.560 A  
HETATM    5  C   UNL     1     -11.993   9.621  70.789  1.00  0.00    -0.356 A  
HETATM    6  C   UNL     1     -11.379  10.230  69.682  1.00  0.00    -0.315 A  
HETATM    7  C   UNL     1     -12.295  12.363  70.384  1.00  0.00    -0.307 A  
HETATM    8  C   UNL     1     -11.539  11.607  69.481  1.00  0.00    -0.397 A  
ENDROOT
BRANCH   6   9
HETATM    9  C   UNL     1     -10.564   9.371  68.779  1.00  0.00    -0.208 C  
HETATM   10  O   UNL     1     -10.125   8.284  69.120  1.00  0.00    -0.192 OA 
BRANCH   9  11
HETATM   11  O   UNL     1     -10.363   9.974  67.584  1.00  0.00    -0.193 OA 
BRANCH  11  12
HETATM   12  C   UNL     1      -9.908   9.124  66.520  1.00  0.00    -0.264 C  
BRANCH  12  13
HETATM   13  C   UNL     1      -9.755   9.929  65.254  1.00  0.00    -0.383 A  
HETATM   14  C   UNL     1     -10.727  10.872  64.888  1.00  0.00    -0.240 A  
HETATM   15  C   UNL     1     -10.577  11.628  63.724  1.00  0.00    -0.473 A  
HETATM   16  C   UNL     1      -9.457  11.451  62.915  1.00  0.00    -0.372 A  
HETATM   17  C   UNL     1      -8.484  10.518  63.269  1.00  0.00    -0.157 A  
HETATM   18  C   UNL     1      -8.632   9.759  64.432  1.00  0.00    -0.202 A  
ENDBRANCH  12  13
ENDBRANCH  11  12
ENDBRANCH   9  11
ENDBRANCH   6   9
TORSDOF 4
ENDMDL
MODEL      118
REMARK 921   NORMALIZED FREE ENERGY PREDICTED BY IDOCK:   -4.25 KCAL/MOL
REMARK 922        TOTAL FREE ENERGY PREDICTED BY IDOCK:   -5.86 KCAL/MOL
REMARK 923 INTER-LIGAND FREE ENERGY PREDICTED BY IDOCK:   -5.44 KCAL/MOL
REMARK 924 INTRA-LIGAND FREE ENERGY PREDICTED BY IDOCK:   -0.43 KCAL/MOL
REMARK 927      BINDING AFFINITY PREDICTED BY RF-SCORE:    0.00 PKD
ROOT
HETATM    1  O   UNL     1     -10.228  10.416  64.652  1.00  0.00    -0.346 OA 
HETATM    2  C   UNL     1     -10.577  10.638  65.951  1.00  0.00    -0.108 A  
HETATM    3  H   UNL     1     -10.352  11.082  63.987  1.00  0.00     0.000 HD 
HETATM    4  C   UNL     1     -10.396   9.663  66.925  1.00  0.00    -0.307 A  
HETATM    5  C   UNL     1     -10.785   9.930  68.240  1.00  0.00    -0.276 A  
HETATM    6  C   UNL     1     -11.354  11.168  68.580  1.00  0.00    -0.348 A  
HETATM    7  C   UNL     1     -11.129  11.874  66.271  1.00  0.00    -0.364 A  
HETATM    8  C   UNL     1     -11.519  12.143  67.587  1.00  0.00    -0.399 A  
ENDROOT
BRANCH   6   9
HETATM    9  C   UNL     1     -11.775  11.375  69.994  1.00  0.00    -0.334 C  
HETATM   10  O   UNL     1     -12.354  12.382  70.369  1.00  0.00    -0.303 OA 
BRANCH   9  11
HETATM   11  O   UNL     1     -11.398  10.333  70.771  1.00  0.00    -0.328 OA 
BRANCH  11  12
HETATM   12  C   UNL     1     -12.453   9.469  71.217  1.00  0.00    -0.346 C  
BRANCH  12  13
HETATM   13  C   UNL     1     -11.883   8.130  71.611  1.00  0.00    -0.334 A  
HETATM   14  C   UNL     1     -11.811   7.084  70.678  1.00  0.00    -0.377 A  
HETATM   15  C   UNL     1     -11.269   5.849  71.039  1.00  0.00    -0.280 A  
HETATM   16  C   UNL     1     -10.794   5.645  72.332  1.00  0.00    -0.298 A  
HETATM   17  C   UNL     1     -10.860   6.677  73.268  1.00  0.00    -0.290 A  
HETATM   18  C   UNL     1     -11.403   7.912  72.910  1.00  0.00    -0.399 A  
ENDBRANCH  12  13
ENDBRANCH  11  12
ENDBRANCH   9  11
ENDBRANCH   6   9
TORSDOF 4
ENDMDL
MODEL      119
REMARK 921   NORMALIZED FREE ENERGY PREDICTED BY IDOCK:   -4.24 KCAL/MOL
REMARK 922        TOTAL FREE ENERGY PREDICTED BY IDOCK:   -5.85 KCAL/MOL
REMARK 923 INTER-LIGAND FREE ENERGY PREDICTED BY IDOCK:   -5.42 KCAL/MOL
REMARK 924 INTRA-LIGAND FREE ENERGY PREDICTED BY IDOCK:   -0.43 KCAL/MOL
REMARK 927      BINDING AFFINITY PREDICTED BY RF-SCORE:    0.00 PKD
ROOT
HETATM    1  O   UNL     1     -13.300  16.080  72.469  1.00  0.00    -0.450 OA 
HETATM    2  C   UNL     1     -12.632  15.475  71.447  1.00  0.00    -0.431 A  
HETATM    3  H   UNL     1     -12.993  16.895  72.847  1.00  0.00     0.000 HD 
HETATM    4  C   UNL     1     -13.083  14.283  70.894  1.00  0.00    -0.368 A  
HETATM    5  C   UNL     1     -12.355  13.691  69.859  1.00  0.00    -0.310 A  
HETATM    6  C   UNL     1     -11.179  14.291  69.378  1.00  0.00    -0.313 A  
HETATM    7  C   UNL     1     -11.476  16.090  70.976  1.00  0.00    -0.460 A  
HETATM    8  C   UNL     1     -10.746  15.499  69.939  1.00  0.00    -0.321 A  
ENDROOT
BRANCH   6   9
HETATM    9  C   UNL     1     -10.435  13.591  68.293  1.00  0.00    -0.253 C  
HETATM   10  O   UNL     1      -9.562  14.134  67.635  1.00  0.00    -0.209 OA 
BRANCH   9  11
HETATM   11  O   UNL     1     -10.885  12.324  68.134  1.00  0.00    -0.208 OA 
BRANCH  11  12
HETATM   12  C   UNL     1      -9.927  11.283  68.374  1.00  0.00    -0.197 C  
BRANCH  12  13
HETATM   13  C   UNL     1     -10.494  10.283  69.350  1.00  0.00    -0.259 A  
HETATM   14  C   UNL     1     -10.167   8.923  69.247  1.00  0.00    -0.214 A  
HETATM   15  C   UNL     1     -10.680   7.999  70.160  1.00  0.00    -0.244 A  
HETATM   16  C   UNL     1     -11.524   8.424  71.184  1.00  0.00    -0.314 A  
HETATM   17  C   UNL     1     -11.856   9.774  71.297  1.00  0.00    -0.481 A  
HETATM   18  C   UNL     1     -11.346  10.698  70.384  1.00  0.00    -0.389 A  
ENDBRANCH  12  13
ENDBRANCH  11  12
ENDBRANCH   9  11
ENDBRANCH   6   9
TORSDOF 4
ENDMDL
MODEL      120
REMARK 921   NORMALIZED FREE ENERGY PREDICTED BY IDOCK:   -4.22 KCAL/MOL
REMARK 922        TOTAL FREE ENERGY PREDICTED BY IDOCK:   -5.83 KCAL/MOL
REMARK 923 INTER-LIGAND FREE ENERGY PREDICTED BY IDOCK:   -5.54 KCAL/MOL
REMARK 924 INTRA-LIGAND FREE ENERGY PREDICTED BY IDOCK:   -0.28 KCAL/MOL
REMARK 927      BINDING AFFINITY PREDICTED BY RF-SCORE:    0.00 PKD
ROOT
HETATM    1  O   UNL     1     -11.403  12.729  69.598  1.00  0.00    -0.439 OA 
HETATM    2  C   UNL     1     -11.160  13.787  68.773  1.00  0.00    -0.266 A  
HETATM    3  H   UNL     1     -11.643  12.857  70.507  1.00  0.00     0.000 HD 
HETATM    4  C   UNL     1     -10.808  13.600  67.441  1.00  0.00    -0.282 A  
HETATM    5  C   UNL     1     -10.551  14.714  66.639  1.00  0.00    -0.289 A  
HETATM    6  C   UNL     1     -10.646  16.013  67.167  1.00  0.00    -0.305 A  
HETATM    7  C   UNL     1     -11.270  15.066  69.310  1.00  0.00    -0.297 A  
HETATM    8  C   UNL     1     -11.013  16.183  68.509  1.00  0.00    -0.338 A  
ENDROOT
BRANCH   6   9
HETATM    9  C   UNL     1     -10.330  17.155  66.265  1.00  0.00    -0.313 C  
HETATM   10  O   UNL     1     -10.726  17.215  65.112  1.00  0.00    -0.680 OA 
BRANCH   9  11
HETATM   11  O   UNL     1      -9.536  18.059  66.885  1.00  0.00    -0.275 OA 
BRANCH  11  12
HETATM   12  C   UNL     1      -8.197  17.627  67.172  1.00  0.00    -0.214 C  
BRANCH  12  13
HETATM   13  C   UNL     1      -7.340  18.818  67.516  1.00  0.00    -0.235 A  
HETATM   14  C   UNL     1      -7.329  19.951  66.688  1.00  0.00    -0.273 A  
HETATM   15  C   UNL     1      -6.546  21.060  67.014  1.00  0.00    -0.413 A  
HETATM   16  C   UNL     1      -5.768  21.050  68.170  1.00  0.00    -0.389 A  
HETATM   17  C   UNL     1      -5.771  19.931  69.001  1.00  0.00    -0.266 A  
HETATM   18  C   UNL     1      -6.551  18.820  68.675  1.00  0.00    -0.273 A  
ENDBRANCH  12  13
ENDBRANCH  11  12
ENDBRANCH   9  11
ENDBRANCH   6   9
TORSDOF 4
ENDMDL
MODEL      121
REMARK 921   NORMALIZED FREE ENERGY PREDICTED BY IDOCK:   -4.21 KCAL/MOL
REMARK 922        TOTAL FREE ENERGY PREDICTED BY IDOCK:   -5.82 KCAL/MOL
REMARK 923 INTER-LIGAND FREE ENERGY PREDICTED BY IDOCK:   -5.47 KCAL/MOL
REMARK 924 INTRA-LIGAND FREE ENERGY PREDICTED BY IDOCK:   -0.35 KCAL/MOL
REMARK 927      BINDING AFFINITY PREDICTED BY RF-SCORE:    0.00 PKD
ROOT
HETATM    1  O   UNL     1      -9.981   7.079  70.005  1.00  0.00    -0.180 OA 
HETATM    2  C   UNL     1     -10.341   8.272  69.452  1.00  0.00    -0.222 A  
HETATM    3  H   UNL     1      -9.619   6.378  69.477  1.00  0.00     0.000 HD 
HETATM    4  C   UNL     1     -10.870   9.297  70.226  1.00  0.00    -0.286 A  
HETATM    5  C   UNL     1     -11.240  10.496  69.611  1.00  0.00    -0.342 A  
HETATM    6  C   UNL     1     -11.080  10.669  68.226  1.00  0.00    -0.334 A  
HETATM    7  C   UNL     1     -10.164   8.429  68.081  1.00  0.00    -0.253 A  
HETATM    8  C   UNL     1     -10.534   9.628  67.464  1.00  0.00    -0.321 A  
ENDROOT
BRANCH   6   9
HETATM    9  C   UNL     1     -11.524  11.961  67.631  1.00  0.00    -0.317 C  
HETATM   10  O   UNL     1     -12.130  12.026  66.574  1.00  0.00    -0.617 OA 
BRANCH   9  11
HETATM   11  O   UNL     1     -11.133  13.007  68.395  1.00  0.00    -0.236 OA 
BRANCH  11  12
HETATM   12  C   UNL     1     -11.981  14.165  68.355  1.00  0.00    -0.331 C  
BRANCH  12  13
HETATM   13  C   UNL     1     -11.220  15.335  67.786  1.00  0.00    -0.327 A  
HETATM   14  C   UNL     1     -10.749  15.304  66.465  1.00  0.00    -0.311 A  
HETATM   15  C   UNL     1     -10.058  16.394  65.933  1.00  0.00    -0.370 A  
HETATM   16  C   UNL     1      -9.831  17.525  66.713  1.00  0.00    -0.306 A  
HETATM   17  C   UNL     1     -10.295  17.569  68.027  1.00  0.00    -0.368 A  
HETATM   18  C   UNL     1     -10.985  16.479  68.562  1.00  0.00    -0.350 A  
ENDBRANCH  12  13
ENDBRANCH  11  12
ENDBRANCH   9  11
ENDBRANCH   6   9
TORSDOF 4
ENDMDL
MODEL      122
REMARK 921   NORMALIZED FREE ENERGY PREDICTED BY IDOCK:   -4.21 KCAL/MOL
REMARK 922        TOTAL FREE ENERGY PREDICTED BY IDOCK:   -5.82 KCAL/MOL
REMARK 923 INTER-LIGAND FREE ENERGY PREDICTED BY IDOCK:   -4.86 KCAL/MOL
REMARK 924 INTRA-LIGAND FREE ENERGY PREDICTED BY IDOCK:   -0.96 KCAL/MOL
REMARK 927      BINDING AFFINITY PREDICTED BY RF-SCORE:    0.00 PKD
ROOT
HETATM    1  O   UNL     1     -14.381   7.148  71.996  1.00  0.00    -0.584 OA 
HETATM    2  C   UNL     1     -13.072   7.525  71.940  1.00  0.00    -0.252 A  
HETATM    3  H   UNL     1     -14.629   6.239  72.109  1.00  0.00     0.000 HD 
HETATM    4  C   UNL     1     -12.709   8.857  71.775  1.00  0.00    -0.421 A  
HETATM    5  C   UNL     1     -11.355   9.192  71.706  1.00  0.00    -0.451 A  
HETATM    6  C   UNL     1     -10.366   8.199  71.802  1.00  0.00    -0.293 A  
HETATM    7  C   UNL     1     -12.106   6.529  72.049  1.00  0.00    -0.358 A  
HETATM    8  C   UNL     1     -10.750   6.864  71.980  1.00  0.00    -0.244 A  
ENDROOT
BRANCH   6   9
HETATM    9  C   UNL     1      -8.942   8.623  71.690  1.00  0.00    -0.235 C  
HETATM   10  O   UNL     1      -8.153   8.535  72.617  1.00  0.00    -0.310 OA 
BRANCH   9  11
HETATM   11  O   UNL     1      -8.682   9.132  70.464  1.00  0.00    -0.181 OA 
BRANCH  11  12
HETATM   12  C   UNL     1      -7.963   8.272  69.566  1.00  0.00    -0.112 C  
BRANCH  12  13
HETATM   13  C   UNL     1      -8.934   7.545  68.671  1.00  0.00    -0.132 A  
HETATM   14  C   UNL     1      -8.937   6.143  68.613  1.00  0.00    -0.126 A  
HETATM   15  C   UNL     1      -9.846   5.469  67.796  1.00  0.00    -0.164 A  
HETATM   16  C   UNL     1     -10.761   6.187  67.029  1.00  0.00    -0.423 A  
HETATM   17  C   UNL     1     -10.768   7.580  67.077  1.00  0.00    -0.367 A  
HETATM   18  C   UNL     1      -9.859   8.256  67.893  1.00  0.00    -0.207 A  
ENDBRANCH  12  13
ENDBRANCH  11  12
ENDBRANCH   9  11
ENDBRANCH   6   9
TORSDOF 4
ENDMDL
MODEL      123
REMARK 921   NORMALIZED FREE ENERGY PREDICTED BY IDOCK:   -4.21 KCAL/MOL
REMARK 922        TOTAL FREE ENERGY PREDICTED BY IDOCK:   -5.81 KCAL/MOL
REMARK 923 INTER-LIGAND FREE ENERGY PREDICTED BY IDOCK:   -5.35 KCAL/MOL
REMARK 924 INTRA-LIGAND FREE ENERGY PREDICTED BY IDOCK:   -0.46 KCAL/MOL
REMARK 927      BINDING AFFINITY PREDICTED BY RF-SCORE:    0.00 PKD
ROOT
HETATM    1  O   UNL     1     -10.973   5.620  66.129  1.00  0.00    -0.689 OA 
HETATM    2  C   UNL     1     -10.812   6.541  67.121  1.00  0.00    -0.401 A  
HETATM    3  H   UNL     1     -10.827   5.845  65.218  1.00  0.00     0.000 HD 
HETATM    4  C   UNL     1     -11.027   6.212  68.455  1.00  0.00    -0.391 A  
HETATM    5  C   UNL     1     -10.866   7.194  69.435  1.00  0.00    -0.225 A  
HETATM    6  C   UNL     1     -10.491   8.501  69.083  1.00  0.00    -0.217 A  
HETATM    7  C   UNL     1     -10.429   7.827  66.755  1.00  0.00    -0.318 A  
HETATM    8  C   UNL     1     -10.268   8.812  67.736  1.00  0.00    -0.285 A  
ENDROOT
BRANCH   6   9
HETATM    9  C   UNL     1     -10.367   9.507  70.176  1.00  0.00    -0.255 C  
HETATM   10  O   UNL     1     -10.451   9.211  71.357  1.00  0.00    -0.295 OA 
BRANCH   9  11
HETATM   11  O   UNL     1     -10.191  10.751  69.673  1.00  0.00    -0.180 OA 
BRANCH  11  12
HETATM   12  C   UNL     1     -11.363  11.579  69.622  1.00  0.00    -0.256 C  
BRANCH  12  13
HETATM   13  C   UNL     1     -11.105  12.775  68.742  1.00  0.00    -0.303 A  
HETATM   14  C   UNL     1     -10.086  12.743  67.778  1.00  0.00    -0.224 A  
HETATM   15  C   UNL     1      -9.856  13.846  66.952  1.00  0.00    -0.268 A  
HETATM   16  C   UNL     1     -10.642  14.989  67.081  1.00  0.00    -0.295 A  
HETATM   17  C   UNL     1     -11.657  15.033  68.034  1.00  0.00    -0.356 A  
HETATM   18  C   UNL     1     -11.887  13.932  68.862  1.00  0.00    -0.393 A  
ENDBRANCH  12  13
ENDBRANCH  11  12
ENDBRANCH   9  11
ENDBRANCH   6   9
TORSDOF 4
ENDMDL
MODEL      124
REMARK 921   NORMALIZED FREE ENERGY PREDICTED BY IDOCK:   -4.20 KCAL/MOL
REMARK 922        TOTAL FREE ENERGY PREDICTED BY IDOCK:   -5.81 KCAL/MOL
REMARK 923 INTER-LIGAND FREE ENERGY PREDICTED BY IDOCK:   -5.26 KCAL/MOL
REMARK 924 INTRA-LIGAND FREE ENERGY PREDICTED BY IDOCK:   -0.55 KCAL/MOL
REMARK 927      BINDING AFFINITY PREDICTED BY RF-SCORE:    0.00 PKD
ROOT
HETATM    1  O   UNL     1      -9.147   5.215  71.450  1.00  0.00    -0.140 OA 
HETATM    2  C   UNL     1     -10.110   6.156  71.667  1.00  0.00    -0.187 A  
HETATM    3  H   UNL     1      -8.233   5.455  71.358  1.00  0.00     0.000 HD 
HETATM    4  C   UNL     1     -11.447   5.804  71.801  1.00  0.00    -0.199 A  
HETATM    5  C   UNL     1     -12.400   6.805  72.005  1.00  0.00    -0.311 A  
HETATM    6  C   UNL     1     -12.016   8.154  72.075  1.00  0.00    -0.390 A  
HETATM    7  C   UNL     1      -9.709   7.486  71.745  1.00  0.00    -0.187 A  
HETATM    8  C   UNL     1     -10.662   8.490  71.949  1.00  0.00    -0.394 A  
ENDROOT
BRANCH   6   9
HETATM    9  C   UNL     1     -13.087   9.173  72.264  1.00  0.00    -0.438 C  
HETATM   10  O   UNL     1     -14.271   8.883  72.315  1.00  0.00    -0.447 OA 
BRANCH   9  11
HETATM   11  O   UNL     1     -12.565  10.420  72.330  1.00  0.00    -0.175 OA 
BRANCH  11  12
HETATM   12  C   UNL     1     -13.364  11.466  71.755  1.00  0.00    -0.264 C  
BRANCH  12  13
HETATM   13  C   UNL     1     -12.564  12.204  70.712  1.00  0.00    -0.305 A  
HETATM   14  C   UNL     1     -11.940  11.505  69.667  1.00  0.00    -0.407 A  
HETATM   15  C   UNL     1     -11.212  12.191  68.692  1.00  0.00    -0.318 A  
HETATM   16  C   UNL     1     -11.100  13.578  68.750  1.00  0.00    -0.298 A  
HETATM   17  C   UNL     1     -11.715  14.283  69.784  1.00  0.00    -0.367 A  
HETATM   18  C   UNL     1     -12.442  13.600  70.760  1.00  0.00    -0.432 A  
ENDBRANCH  12  13
ENDBRANCH  11  12
ENDBRANCH   9  11
ENDBRANCH   6   9
TORSDOF 4
ENDMDL
MODEL      125
REMARK 921   NORMALIZED FREE ENERGY PREDICTED BY IDOCK:   -4.20 KCAL/MOL
REMARK 922        TOTAL FREE ENERGY PREDICTED BY IDOCK:   -5.80 KCAL/MOL
REMARK 923 INTER-LIGAND FREE ENERGY PREDICTED BY IDOCK:   -5.00 KCAL/MOL
REMARK 924 INTRA-LIGAND FREE ENERGY PREDICTED BY IDOCK:   -0.80 KCAL/MOL
REMARK 927      BINDING AFFINITY PREDICTED BY RF-SCORE:    0.00 PKD
ROOT
HETATM    1  O   UNL     1     -11.156   7.620  67.197  1.00  0.00    -0.518 OA 
HETATM    2  C   UNL     1     -10.424   8.749  67.416  1.00  0.00    -0.279 A  
HETATM    3  H   UNL     1     -11.590   7.167  67.910  1.00  0.00     0.000 HD 
HETATM    4  C   UNL     1      -9.788   9.412  66.372  1.00  0.00    -0.337 A  
HETATM    5  C   UNL     1      -9.034  10.555  66.648  1.00  0.00    -0.155 A  
HETATM    6  C   UNL     1      -8.916  11.034  67.963  1.00  0.00    -0.145 A  
HETATM    7  C   UNL     1     -10.327   9.215  68.723  1.00  0.00    -0.235 A  
HETATM    8  C   UNL     1      -9.572  10.359  69.001  1.00  0.00    -0.212 A  
ENDROOT
BRANCH   6   9
HETATM    9  C   UNL     1      -8.071  12.240  68.190  1.00  0.00    -0.158 C  
HETATM   10  O   UNL     1      -7.139  12.254  68.979  1.00  0.00    -0.101 OA 
BRANCH   9  11
HETATM   11  O   UNL     1      -8.504  13.284  67.445  1.00  0.00    -0.184 OA 
BRANCH  11  12
HETATM   12  C   UNL     1      -9.755  13.864  67.844  1.00  0.00    -0.231 C  
BRANCH  12  13
HETATM   13  C   UNL     1     -10.641  14.044  66.638  1.00  0.00    -0.274 A  
HETATM   14  C   UNL     1     -10.389  15.071  65.716  1.00  0.00    -0.354 A  
HETATM   15  C   UNL     1     -11.201  15.228  64.590  1.00  0.00    -0.366 A  
HETATM   16  C   UNL     1     -12.271  14.363  64.375  1.00  0.00    -0.481 A  
HETATM   17  C   UNL     1     -12.532  13.339  65.285  1.00  0.00    -0.543 A  
HETATM   18  C   UNL     1     -11.723  13.181  66.411  1.00  0.00    -0.429 A  
ENDBRANCH  12  13
ENDBRANCH  11  12
ENDBRANCH   9  11
ENDBRANCH   6   9
TORSDOF 4
ENDMDL
MODEL      126
REMARK 921   NORMALIZED FREE ENERGY PREDICTED BY IDOCK:   -4.20 KCAL/MOL
REMARK 922        TOTAL FREE ENERGY PREDICTED BY IDOCK:   -5.80 KCAL/MOL
REMARK 923 INTER-LIGAND FREE ENERGY PREDICTED BY IDOCK:   -5.40 KCAL/MOL
REMARK 924 INTRA-LIGAND FREE ENERGY PREDICTED BY IDOCK:   -0.40 KCAL/MOL
REMARK 927      BINDING AFFINITY PREDICTED BY RF-SCORE:    0.00 PKD
ROOT
HETATM    1  O   UNL     1      -9.127  21.214  67.185  1.00  0.00    -0.604 OA 
HETATM    2  C   UNL     1      -8.857  19.879  67.250  1.00  0.00    -0.334 A  
HETATM    3  H   UNL     1      -9.321  21.717  67.966  1.00  0.00     0.000 HD 
HETATM    4  C   UNL     1      -8.573  19.143  66.106  1.00  0.00    -0.233 A  
HETATM    5  C   UNL     1      -8.319  17.774  66.220  1.00  0.00    -0.240 A  
HETATM    6  C   UNL     1      -8.348  17.144  67.476  1.00  0.00    -0.199 A  
HETATM    7  C   UNL     1      -8.878  19.275  68.503  1.00  0.00    -0.411 A  
HETATM    8  C   UNL     1      -8.623  17.904  68.619  1.00  0.00    -0.272 A  
ENDROOT
BRANCH   6   9
HETATM    9  C   UNL     1      -8.097  15.676  67.522  1.00  0.00    -0.160 C  
HETATM   10  O   UNL     1      -6.981  15.193  67.415  1.00  0.00    -0.187 OA 
BRANCH   9  11
HETATM   11  O   UNL     1      -9.256  14.989  67.659  1.00  0.00    -0.179 OA 
BRANCH  11  12
HETATM   12  C   UNL     1      -9.235  13.626  67.208  1.00  0.00    -0.232 C  
BRANCH  12  13
HETATM   13  C   UNL     1     -10.362  13.394  66.233  1.00  0.00    -0.291 A  
HETATM   14  C   UNL     1     -11.593  14.046  66.400  1.00  0.00    -0.381 A  
HETATM   15  C   UNL     1     -12.632  13.843  65.489  1.00  0.00    -0.560 A  
HETATM   16  C   UNL     1     -12.451  12.989  64.403  1.00  0.00    -0.406 A  
HETATM   17  C   UNL     1     -11.232  12.336  64.227  1.00  0.00    -0.409 A  
HETATM   18  C   UNL     1     -10.193  12.536  65.138  1.00  0.00    -0.299 A  
ENDBRANCH  12  13
ENDBRANCH  11  12
ENDBRANCH   9  11
ENDBRANCH   6   9
TORSDOF 4
ENDMDL
MODEL      127
REMARK 921   NORMALIZED FREE ENERGY PREDICTED BY IDOCK:   -4.17 KCAL/MOL
REMARK 922        TOTAL FREE ENERGY PREDICTED BY IDOCK:   -5.77 KCAL/MOL
REMARK 923 INTER-LIGAND FREE ENERGY PREDICTED BY IDOCK:   -5.04 KCAL/MOL
REMARK 924 INTRA-LIGAND FREE ENERGY PREDICTED BY IDOCK:   -0.72 KCAL/MOL
REMARK 927      BINDING AFFINITY PREDICTED BY RF-SCORE:    0.00 PKD
ROOT
HETATM    1  O   UNL     1     -11.971  16.099  63.602  1.00  0.00    -1.375 OA 
HETATM    2  C   UNL     1     -11.314  15.436  64.596  1.00  0.00    -0.355 A  
HETATM    3  H   UNL     1     -11.906  17.042  63.510  1.00  0.00     0.000 HD 
HETATM    4  C   UNL     1     -11.410  14.056  64.731  1.00  0.00    -0.366 A  
HETATM    5  C   UNL     1     -10.733  13.423  65.776  1.00  0.00    -0.280 A  
HETATM    6  C   UNL     1      -9.962  14.168  66.684  1.00  0.00    -0.280 A  
HETATM    7  C   UNL     1     -10.547  16.189  65.479  1.00  0.00    -0.394 A  
HETATM    8  C   UNL     1      -9.868  15.557  66.526  1.00  0.00    -0.281 A  
ENDROOT
BRANCH   6   9
HETATM    9  C   UNL     1      -9.291  13.434  67.793  1.00  0.00    -0.211 C  
HETATM   10  O   UNL     1      -8.221  13.784  68.264  1.00  0.00    -0.143 OA 
BRANCH   9  11
HETATM   11  O   UNL     1     -10.005  12.342  68.155  1.00  0.00    -0.204 OA 
BRANCH  11  12
HETATM   12  C   UNL     1      -9.241  11.213  68.605  1.00  0.00    -0.171 C  
BRANCH  12  13
HETATM   13  C   UNL     1      -8.798  10.392  67.421  1.00  0.00    -0.133 A  
HETATM   14  C   UNL     1      -9.727   9.973  66.457  1.00  0.00    -0.254 A  
HETATM   15  C   UNL     1      -9.314   9.226  65.352  1.00  0.00    -0.292 A  
HETATM   16  C   UNL     1      -7.971   8.891  65.198  1.00  0.00    -0.122 A  
HETATM   17  C   UNL     1      -7.038   9.302  66.149  1.00  0.00    -0.091 A  
HETATM   18  C   UNL     1      -7.449  10.048  67.255  1.00  0.00    -0.091 A  
ENDBRANCH  12  13
ENDBRANCH  11  12
ENDBRANCH   9  11
ENDBRANCH   6   9
TORSDOF 4
ENDMDL
MODEL      128
REMARK 921   NORMALIZED FREE ENERGY PREDICTED BY IDOCK:   -4.15 KCAL/MOL
REMARK 922        TOTAL FREE ENERGY PREDICTED BY IDOCK:   -5.75 KCAL/MOL
REMARK 923 INTER-LIGAND FREE ENERGY PREDICTED BY IDOCK:   -5.38 KCAL/MOL
REMARK 924 INTRA-LIGAND FREE ENERGY PREDICTED BY IDOCK:   -0.37 KCAL/MOL
REMARK 927      BINDING AFFINITY PREDICTED BY RF-SCORE:    0.00 PKD
ROOT
HETATM    1  O   UNL     1     -10.585  19.520  67.081  1.00  0.00    -0.439 OA 
HETATM    2  C   UNL     1     -10.621  18.157  67.066  1.00  0.00    -0.328 A  
HETATM    3  H   UNL     1     -10.411  20.018  66.292  1.00  0.00     0.000 HD 
HETATM    4  C   UNL     1     -10.876  17.428  68.221  1.00  0.00    -0.256 A  
HETATM    5  C   UNL     1     -10.885  16.032  68.160  1.00  0.00    -0.322 A  
HETATM    6  C   UNL     1     -10.641  15.368  66.946  1.00  0.00    -0.309 A  
HETATM    7  C   UNL     1     -10.388  17.517  65.853  1.00  0.00    -0.265 A  
HETATM    8  C   UNL     1     -10.397  16.120  65.790  1.00  0.00    -0.398 A  
ENDROOT
BRANCH   6   9
HETATM    9  C   UNL     1     -10.635  13.878  66.959  1.00  0.00    -0.279 C  
HETATM   10  O   UNL     1     -10.348  13.227  67.950  1.00  0.00    -0.228 OA 
BRANCH   9  11
HETATM   11  O   UNL     1     -10.950  13.381  65.740  1.00  0.00    -0.277 OA 
BRANCH  11  12
HETATM   12  C   UNL     1     -11.485  12.049  65.724  1.00  0.00    -0.320 C  
BRANCH  12  13
HETATM   13  C   UNL     1     -10.540  11.128  64.994  1.00  0.00    -0.340 A  
HETATM   14  C   UNL     1     -10.263  11.325  63.633  1.00  0.00    -0.446 A  
HETATM   15  C   UNL     1      -9.376  10.482  62.961  1.00  0.00    -0.343 A  
HETATM   16  C   UNL     1      -8.756   9.436  63.640  1.00  0.00    -0.222 A  
HETATM   17  C   UNL     1      -9.023   9.230  64.993  1.00  0.00    -0.245 A  
HETATM   18  C   UNL     1      -9.911  10.071  65.667  1.00  0.00    -0.363 A  
ENDBRANCH  12  13
ENDBRANCH  11  12
ENDBRANCH   9  11
ENDBRANCH   6   9
TORSDOF 4
ENDMDL
MODEL      129
REMARK 921   NORMALIZED FREE ENERGY PREDICTED BY IDOCK:   -4.15 KCAL/MOL
REMARK 922        TOTAL FREE ENERGY PREDICTED BY IDOCK:   -5.74 KCAL/MOL
REMARK 923 INTER-LIGAND FREE ENERGY PREDICTED BY IDOCK:   -5.22 KCAL/MOL
REMARK 924 INTRA-LIGAND FREE ENERGY PREDICTED BY IDOCK:   -0.53 KCAL/MOL
REMARK 927      BINDING AFFINITY PREDICTED BY RF-SCORE:    0.00 PKD
ROOT
HETATM    1  O   UNL     1      -8.751   8.286  72.981  1.00  0.00    -0.209 OA 
HETATM    2  C   UNL     1      -9.358   8.786  71.868  1.00  0.00    -0.273 A  
HETATM    3  H   UNL     1      -9.256   7.963  73.717  1.00  0.00     0.000 HD 
HETATM    4  C   UNL     1      -8.617   9.258  70.791  1.00  0.00    -0.254 A  
HETATM    5  C   UNL     1      -9.284   9.778  69.679  1.00  0.00    -0.239 A  
HETATM    6  C   UNL     1     -10.687   9.824  69.643  1.00  0.00    -0.264 A  
HETATM    7  C   UNL     1     -10.749   8.814  71.846  1.00  0.00    -0.429 A  
HETATM    8  C   UNL     1     -11.418   9.334  70.733  1.00  0.00    -0.351 A  
ENDROOT
BRANCH   6   9
HETATM    9  C   UNL     1     -11.333  10.419  68.440  1.00  0.00    -0.227 C  
HETATM   10  O   UNL     1     -10.983  10.148  67.302  1.00  0.00    -0.266 OA 
BRANCH   9  11
HETATM   11  O   UNL     1     -12.302  11.296  68.791  1.00  0.00    -0.518 OA 
BRANCH  11  12
HETATM   12  C   UNL     1     -11.850  12.566  69.286  1.00  0.00    -0.304 C  
BRANCH  12  13
HETATM   13  C   UNL     1     -11.283  13.383  68.152  1.00  0.00    -0.304 A  
HETATM   14  C   UNL     1     -12.064  13.671  67.023  1.00  0.00    -0.423 A  
HETATM   15  C   UNL     1     -11.544  14.441  65.980  1.00  0.00    -0.364 A  
HETATM   16  C   UNL     1     -10.242  14.930  66.055  1.00  0.00    -0.317 A  
HETATM   17  C   UNL     1      -9.457  14.650  67.172  1.00  0.00    -0.234 A  
HETATM   18  C   UNL     1      -9.974  13.880  68.215  1.00  0.00    -0.238 A  
ENDBRANCH  12  13
ENDBRANCH  11  12
ENDBRANCH   9  11
ENDBRANCH   6   9
TORSDOF 4
ENDMDL
MODEL      130
REMARK 921   NORMALIZED FREE ENERGY PREDICTED BY IDOCK:   -4.14 KCAL/MOL
REMARK 922        TOTAL FREE ENERGY PREDICTED BY IDOCK:   -5.73 KCAL/MOL
REMARK 923 INTER-LIGAND FREE ENERGY PREDICTED BY IDOCK:   -5.00 KCAL/MOL
REMARK 924 INTRA-LIGAND FREE ENERGY PREDICTED BY IDOCK:   -0.73 KCAL/MOL
REMARK 927      BINDING AFFINITY PREDICTED BY RF-SCORE:    0.00 PKD
ROOT
HETATM    1  O   UNL     1     -11.239   4.707  65.636  1.00  0.00    -0.854 OA 
HETATM    2  C   UNL     1     -10.432   5.544  66.348  1.00  0.00    -0.236 A  
HETATM    3  H   UNL     1     -12.185   4.790  65.664  1.00  0.00     0.000 HD 
HETATM    4  C   UNL     1      -9.048   5.422  66.305  1.00  0.00    -0.144 A  
HETATM    5  C   UNL     1      -8.262   6.292  67.066  1.00  0.00    -0.109 A  
HETATM    6  C   UNL     1      -8.859   7.281  67.866  1.00  0.00    -0.128 A  
HETATM    7  C   UNL     1     -11.040   6.524  67.125  1.00  0.00    -0.434 A  
HETATM    8  C   UNL     1     -10.255   7.396  67.887  1.00  0.00    -0.242 A  
ENDROOT
BRANCH   6   9
HETATM    9  C   UNL     1      -7.964   8.154  68.674  1.00  0.00    -0.115 C  
HETATM   10  O   UNL     1      -6.766   7.949  68.786  1.00  0.00    -0.054 OA 
BRANCH   9  11
HETATM   11  O   UNL     1      -8.663   9.148  69.271  1.00  0.00    -0.132 OA 
BRANCH  11  12
HETATM   12  C   UNL     1      -8.678   9.131  70.707  1.00  0.00    -0.236 C  
BRANCH  12  13
HETATM   13  C   UNL     1     -10.091   8.950  71.200  1.00  0.00    -0.341 A  
HETATM   14  C   UNL     1     -11.119   9.785  70.737  1.00  0.00    -0.415 A  
HETATM   15  C   UNL     1     -12.431   9.607  71.182  1.00  0.00    -0.421 A  
HETATM   16  C   UNL     1     -12.728   8.596  72.093  1.00  0.00    -0.447 A  
HETATM   17  C   UNL     1     -11.715   7.760  72.560  1.00  0.00    -0.393 A  
HETATM   18  C   UNL     1     -10.403   7.937  72.118  1.00  0.00    -0.297 A  
ENDBRANCH  12  13
ENDBRANCH  11  12
ENDBRANCH   9  11
ENDBRANCH   6   9
TORSDOF 4
ENDMDL
MODEL      131
REMARK 921   NORMALIZED FREE ENERGY PREDICTED BY IDOCK:   -4.13 KCAL/MOL
REMARK 922        TOTAL FREE ENERGY PREDICTED BY IDOCK:   -5.72 KCAL/MOL
REMARK 923 INTER-LIGAND FREE ENERGY PREDICTED BY IDOCK:   -5.37 KCAL/MOL
REMARK 924 INTRA-LIGAND FREE ENERGY PREDICTED BY IDOCK:   -0.35 KCAL/MOL
REMARK 927      BINDING AFFINITY PREDICTED BY RF-SCORE:    0.00 PKD
ROOT
HETATM    1  O   UNL     1      -9.439   9.336  67.599  1.00  0.00    -0.131 OA 
HETATM    2  C   UNL     1      -9.768  10.637  67.363  1.00  0.00    -0.167 A  
HETATM    3  H   UNL     1      -8.935   9.085  68.364  1.00  0.00     0.000 HD 
HETATM    4  C   UNL     1     -10.506  11.004  66.244  1.00  0.00    -0.310 A  
HETATM    5  C   UNL     1     -10.804  12.353  66.034  1.00  0.00    -0.308 A  
HETATM    6  C   UNL     1     -10.366  13.331  66.942  1.00  0.00    -0.255 A  
HETATM    7  C   UNL     1      -9.336  11.591  68.279  1.00  0.00    -0.190 A  
HETATM    8  C   UNL     1      -9.634  12.942  68.070  1.00  0.00    -0.221 A  
ENDROOT
BRANCH   6   9
HETATM    9  C   UNL     1     -10.693  14.754  66.642  1.00  0.00    -0.309 C  
HETATM   10  O   UNL     1     -11.475  15.080  65.762  1.00  0.00    -0.327 OA 
BRANCH   9  11
HETATM   11  O   UNL     1      -9.990  15.592  67.438  1.00  0.00    -0.229 OA 
BRANCH  11  12
HETATM   12  C   UNL     1     -10.742  16.645  68.060  1.00  0.00    -0.350 C  
BRANCH  12  13
HETATM   13  C   UNL     1     -10.085  17.974  67.784  1.00  0.00    -0.359 A  
HETATM   14  C   UNL     1     -10.620  18.847  66.826  1.00  0.00    -0.480 A  
HETATM   15  C   UNL     1     -10.021  20.084  66.581  1.00  0.00    -0.598 A  
HETATM   16  C   UNL     1      -8.882  20.461  67.290  1.00  0.00    -0.444 A  
HETATM   17  C   UNL     1      -8.341  19.602  68.245  1.00  0.00    -0.354 A  
HETATM   18  C   UNL     1      -8.938  18.364  68.490  1.00  0.00    -0.336 A  
ENDBRANCH  12  13
ENDBRANCH  11  12
ENDBRANCH   9  11
ENDBRANCH   6   9
TORSDOF 4
ENDMDL
MODEL      132
REMARK 921   NORMALIZED FREE ENERGY PREDICTED BY IDOCK:   -4.12 KCAL/MOL
REMARK 922        TOTAL FREE ENERGY PREDICTED BY IDOCK:   -5.71 KCAL/MOL
REMARK 923 INTER-LIGAND FREE ENERGY PREDICTED BY IDOCK:   -5.03 KCAL/MOL
REMARK 924 INTRA-LIGAND FREE ENERGY PREDICTED BY IDOCK:   -0.68 KCAL/MOL
REMARK 927      BINDING AFFINITY PREDICTED BY RF-SCORE:    0.00 PKD
ROOT
HETATM    1  O   UNL     1      -9.925   3.919  66.419  1.00  0.00    -0.376 OA 
HETATM    2  C   UNL     1      -9.860   5.279  66.486  1.00  0.00    -0.185 A  
HETATM    3  H   UNL     1      -9.238   3.412  66.003  1.00  0.00     0.000 HD 
HETATM    4  C   UNL     1     -10.865   6.021  67.095  1.00  0.00    -0.414 A  
HETATM    5  C   UNL     1     -10.763   7.414  67.124  1.00  0.00    -0.400 A  
HETATM    6  C   UNL     1      -9.659   8.063  66.547  1.00  0.00    -0.295 A  
HETATM    7  C   UNL     1      -8.754   5.903  65.919  1.00  0.00    -0.152 A  
HETATM    8  C   UNL     1      -8.650   7.298  65.947  1.00  0.00    -0.159 A  
ENDROOT
BRANCH   6   9
HETATM    9  C   UNL     1      -9.628   9.552  66.586  1.00  0.00    -0.188 C  
HETATM   10  O   UNL     1      -9.764  10.242  65.588  1.00  0.00    -0.211 OA 
BRANCH   9  11
HETATM   11  O   UNL     1      -9.399  10.000  67.843  1.00  0.00    -0.140 OA 
BRANCH  11  12
HETATM   12  C   UNL     1     -10.394  10.881  68.386  1.00  0.00    -0.178 C  
BRANCH  12  13
HETATM   13  C   UNL     1     -10.942  10.303  69.667  1.00  0.00    -0.314 A  
HETATM   14  C   UNL     1     -10.247   9.292  70.346  1.00  0.00    -0.284 A  
HETATM   15  C   UNL     1     -10.747   8.768  71.540  1.00  0.00    -0.371 A  
HETATM   16  C   UNL     1     -11.944   9.248  72.067  1.00  0.00    -0.391 A  
HETATM   17  C   UNL     1     -12.643  10.254  71.401  1.00  0.00    -0.539 A  
HETATM   18  C   UNL     1     -12.146  10.778  70.206  1.00  0.00    -0.433 A  
ENDBRANCH  12  13
ENDBRANCH  11  12
ENDBRANCH   9  11
ENDBRANCH   6   9
TORSDOF 4
ENDMDL
MODEL      133
REMARK 921   NORMALIZED FREE ENERGY PREDICTED BY IDOCK:   -4.12 KCAL/MOL
REMARK 922        TOTAL FREE ENERGY PREDICTED BY IDOCK:   -5.71 KCAL/MOL
REMARK 923 INTER-LIGAND FREE ENERGY PREDICTED BY IDOCK:   -5.34 KCAL/MOL
REMARK 924 INTRA-LIGAND FREE ENERGY PREDICTED BY IDOCK:   -0.36 KCAL/MOL
REMARK 927      BINDING AFFINITY PREDICTED BY RF-SCORE:    0.00 PKD
ROOT
HETATM    1  O   UNL     1     -11.163   9.369  70.361  1.00  0.00    -0.245 OA 
HETATM    2  C   UNL     1     -11.162  10.633  69.849  1.00  0.00    -0.308 A  
HETATM    3  H   UNL     1     -10.564   8.706  70.039  1.00  0.00     0.000 HD 
HETATM    4  C   UNL     1     -12.038  11.604  70.320  1.00  0.00    -0.443 A  
HETATM    5  C   UNL     1     -12.012  12.880  69.753  1.00  0.00    -0.365 A  
HETATM    6  C   UNL     1     -11.112  13.185  68.718  1.00  0.00    -0.309 A  
HETATM    7  C   UNL     1     -10.256  10.919  68.833  1.00  0.00    -0.213 A  
HETATM    8  C   UNL     1     -10.228  12.197  68.264  1.00  0.00    -0.209 A  
ENDROOT
BRANCH   6   9
HETATM    9  C   UNL     1     -11.158  14.556  68.138  1.00  0.00    -0.266 C  
HETATM   10  O   UNL     1     -12.197  15.083  67.773  1.00  0.00    -0.100 OA 
BRANCH   9  11
HETATM   11  O   UNL     1      -9.917  15.089  68.049  1.00  0.00    -0.216 OA 
BRANCH  11  12
HETATM   12  C   UNL     1      -9.653  15.873  66.876  1.00  0.00    -0.229 C  
BRANCH  12  13
HETATM   13  C   UNL     1      -9.671  17.339  67.229  1.00  0.00    -0.262 A  
HETATM   14  C   UNL     1     -10.524  18.224  66.553  1.00  0.00    -0.378 A  
HETATM   15  C   UNL     1     -10.551  19.579  66.890  1.00  0.00    -0.602 A  
HETATM   16  C   UNL     1      -9.728  20.063  67.904  1.00  0.00    -0.517 A  
HETATM   17  C   UNL     1      -8.876  19.193  68.583  1.00  0.00    -0.404 A  
HETATM   18  C   UNL     1      -8.846  17.839  68.247  1.00  0.00    -0.277 A  
ENDBRANCH  12  13
ENDBRANCH  11  12
ENDBRANCH   9  11
ENDBRANCH   6   9
TORSDOF 4
ENDMDL
MODEL      134
REMARK 921   NORMALIZED FREE ENERGY PREDICTED BY IDOCK:   -4.11 KCAL/MOL
REMARK 922        TOTAL FREE ENERGY PREDICTED BY IDOCK:   -5.69 KCAL/MOL
REMARK 923 INTER-LIGAND FREE ENERGY PREDICTED BY IDOCK:   -5.47 KCAL/MOL
REMARK 924 INTRA-LIGAND FREE ENERGY PREDICTED BY IDOCK:   -0.22 KCAL/MOL
REMARK 927      BINDING AFFINITY PREDICTED BY RF-SCORE:    0.00 PKD
ROOT
HETATM    1  O   UNL     1     -13.369  15.051  73.708  1.00  0.00    -0.542 OA 
HETATM    2  C   UNL     1     -12.944  14.526  72.524  1.00  0.00    -0.414 A  
HETATM    3  H   UNL     1     -13.887  14.539  74.317  1.00  0.00     0.000 HD 
HETATM    4  C   UNL     1     -12.186  15.275  71.632  1.00  0.00    -0.433 A  
HETATM    5  C   UNL     1     -11.788  14.700  70.423  1.00  0.00    -0.365 A  
HETATM    6  C   UNL     1     -12.147  13.379  70.107  1.00  0.00    -0.415 A  
HETATM    7  C   UNL     1     -13.299  13.213  72.233  1.00  0.00    -0.621 A  
HETATM    8  C   UNL     1     -12.901  12.635  71.023  1.00  0.00    -0.254 A  
ENDROOT
BRANCH   6   9
HETATM    9  C   UNL     1     -11.715  12.838  68.787  1.00  0.00    -0.323 C  
HETATM   10  O   UNL     1     -11.460  13.554  67.832  1.00  0.00    -0.282 OA 
BRANCH   9  11
HETATM   11  O   UNL     1     -11.687  11.485  68.802  1.00  0.00    -0.284 OA 
BRANCH  11  12
HETATM   12  C   UNL     1     -10.399  10.886  69.016  1.00  0.00    -0.211 C  
BRANCH  12  13
HETATM   13  C   UNL     1      -9.897  10.283  67.729  1.00  0.00    -0.195 A  
HETATM   14  C   UNL     1      -9.586  11.100  66.633  1.00  0.00    -0.215 A  
HETATM   15  C   UNL     1      -9.107  10.542  65.446  1.00  0.00    -0.215 A  
HETATM   16  C   UNL     1      -8.933   9.164  65.343  1.00  0.00    -0.255 A  
HETATM   17  C   UNL     1      -9.238   8.341  66.426  1.00  0.00    -0.247 A  
HETATM   18  C   UNL     1      -9.719   8.897  67.612  1.00  0.00    -0.202 A  
ENDBRANCH  12  13
ENDBRANCH  11  12
ENDBRANCH   9  11
ENDBRANCH   6   9
TORSDOF 4
ENDMDL
MODEL      135
REMARK 921   NORMALIZED FREE ENERGY PREDICTED BY IDOCK:   -4.10 KCAL/MOL
REMARK 922        TOTAL FREE ENERGY PREDICTED BY IDOCK:   -5.68 KCAL/MOL
REMARK 923 INTER-LIGAND FREE ENERGY PREDICTED BY IDOCK:   -5.00 KCAL/MOL
REMARK 924 INTRA-LIGAND FREE ENERGY PREDICTED BY IDOCK:   -0.68 KCAL/MOL
REMARK 927      BINDING AFFINITY PREDICTED BY RF-SCORE:    0.00 PKD
ROOT
HETATM    1  O   UNL     1     -10.273  16.721  66.125  1.00  0.00    -0.326 OA 
HETATM    2  C   UNL     1     -10.469  15.451  66.578  1.00  0.00    -0.294 A  
HETATM    3  H   UNL     1     -10.990  17.341  66.068  1.00  0.00     0.000 HD 
HETATM    4  C   UNL     1      -9.419  14.544  66.663  1.00  0.00    -0.301 A  
HETATM    5  C   UNL     1      -9.671  13.247  67.117  1.00  0.00    -0.236 A  
HETATM    6  C   UNL     1     -10.969  12.859  67.486  1.00  0.00    -0.283 A  
HETATM    7  C   UNL     1     -11.759  15.088  66.951  1.00  0.00    -0.181 A  
HETATM    8  C   UNL     1     -12.013  13.789  67.406  1.00  0.00    -0.423 A  
ENDROOT
BRANCH   6   9
HETATM    9  C   UNL     1     -11.173  11.452  67.933  1.00  0.00    -0.288 C  
HETATM   10  O   UNL     1     -12.195  11.077  68.486  1.00  0.00    -0.582 OA 
BRANCH   9  11
HETATM   11  O   UNL     1     -10.081  10.696  67.673  1.00  0.00    -0.169 OA 
BRANCH  11  12
HETATM   12  C   UNL     1     -10.310   9.505  66.905  1.00  0.00    -0.237 C  
BRANCH  12  13
HETATM   13  C   UNL     1      -9.738   9.673  65.521  1.00  0.00    -0.372 A  
HETATM   14  C   UNL     1     -10.290  10.606  64.631  1.00  0.00    -0.353 A  
HETATM   15  C   UNL     1      -9.751  10.773  63.353  1.00  0.00    -0.394 A  
HETATM   16  C   UNL     1      -8.656  10.011  62.953  1.00  0.00    -0.194 A  
HETATM   17  C   UNL     1      -8.098   9.080  63.829  1.00  0.00    -0.164 A  
HETATM   18  C   UNL     1      -8.637   8.911  65.105  1.00  0.00    -0.208 A  
ENDBRANCH  12  13
ENDBRANCH  11  12
ENDBRANCH   9  11
ENDBRANCH   6   9
TORSDOF 4
ENDMDL
MODEL      136
REMARK 921   NORMALIZED FREE ENERGY PREDICTED BY IDOCK:   -4.10 KCAL/MOL
REMARK 922        TOTAL FREE ENERGY PREDICTED BY IDOCK:   -5.68 KCAL/MOL
REMARK 923 INTER-LIGAND FREE ENERGY PREDICTED BY IDOCK:   -4.84 KCAL/MOL
REMARK 924 INTRA-LIGAND FREE ENERGY PREDICTED BY IDOCK:   -0.84 KCAL/MOL
REMARK 927      BINDING AFFINITY PREDICTED BY RF-SCORE:    0.00 PKD
ROOT
HETATM    1  O   UNL     1      -7.418  10.661  69.231  1.00  0.00    -0.107 OA 
HETATM    2  C   UNL     1      -8.120  11.371  68.303  1.00  0.00    -0.143 A  
HETATM    3  H   UNL     1      -7.649   9.766  69.447  1.00  0.00     0.000 HD 
HETATM    4  C   UNL     1      -7.781  12.681  67.987  1.00  0.00    -0.139 A  
HETATM    5  C   UNL     1      -8.542  13.375  67.043  1.00  0.00    -0.168 A  
HETATM    6  C   UNL     1      -9.639  12.759  66.416  1.00  0.00    -0.254 A  
HETATM    7  C   UNL     1      -9.196  10.741  67.685  1.00  0.00    -0.152 A  
HETATM    8  C   UNL     1      -9.959  11.434  66.739  1.00  0.00    -0.238 A  
ENDROOT
BRANCH   6   9
HETATM    9  C   UNL     1     -10.425  13.566  65.442  1.00  0.00    -0.315 C  
HETATM   10  O   UNL     1     -10.478  13.297  64.253  1.00  0.00    -0.424 OA 
BRANCH   9  11
HETATM   11  O   UNL     1     -11.016  14.622  66.050  1.00  0.00    -0.312 OA 
BRANCH  11  12
HETATM   12  C   UNL     1     -12.152  14.316  66.874  1.00  0.00    -0.409 C  
BRANCH  12  13
HETATM   13  C   UNL     1     -11.873  14.726  68.298  1.00  0.00    -0.316 A  
HETATM   14  C   UNL     1     -11.223  15.937  68.576  1.00  0.00    -0.362 A  
HETATM   15  C   UNL     1     -10.979  16.324  69.895  1.00  0.00    -0.365 A  
HETATM   16  C   UNL     1     -11.382  15.506  70.948  1.00  0.00    -0.406 A  
HETATM   17  C   UNL     1     -12.030  14.300  70.685  1.00  0.00    -0.392 A  
HETATM   18  C   UNL     1     -12.273  13.911  69.366  1.00  0.00    -0.338 A  
ENDBRANCH  12  13
ENDBRANCH  11  12
ENDBRANCH   9  11
ENDBRANCH   6   9
TORSDOF 4
ENDMDL
MODEL      137
REMARK 921   NORMALIZED FREE ENERGY PREDICTED BY IDOCK:   -4.10 KCAL/MOL
REMARK 922        TOTAL FREE ENERGY PREDICTED BY IDOCK:   -5.68 KCAL/MOL
REMARK 923 INTER-LIGAND FREE ENERGY PREDICTED BY IDOCK:   -4.90 KCAL/MOL
REMARK 924 INTRA-LIGAND FREE ENERGY PREDICTED BY IDOCK:   -0.78 KCAL/MOL
REMARK 927      BINDING AFFINITY PREDICTED BY RF-SCORE:    0.00 PKD
ROOT
HETATM    1  O   UNL     1     -11.102   9.028  68.732  1.00  0.00    -0.446 OA 
HETATM    2  C   UNL     1     -11.285  10.376  68.811  1.00  0.00    -0.241 A  
HETATM    3  H   UNL     1     -10.965   8.596  67.897  1.00  0.00     0.000 HD 
HETATM    4  C   UNL     1     -11.485  11.008  70.032  1.00  0.00    -0.398 A  
HETATM    5  C   UNL     1     -11.687  12.390  70.062  1.00  0.00    -0.307 A  
HETATM    6  C   UNL     1     -11.687  13.138  68.872  1.00  0.00    -0.368 A  
HETATM    7  C   UNL     1     -11.272  11.102  67.624  1.00  0.00    -0.364 A  
HETATM    8  C   UNL     1     -11.473  12.486  67.651  1.00  0.00    -0.392 A  
ENDROOT
BRANCH   6   9
HETATM    9  C   UNL     1     -11.938  14.603  68.973  1.00  0.00    -0.283 C  
HETATM   10  O   UNL     1     -12.358  15.133  69.990  1.00  0.00    -0.330 OA 
BRANCH   9  11
HETATM   11  O   UNL     1     -11.675  15.224  67.799  1.00  0.00    -0.319 OA 
BRANCH  11  12
HETATM   12  C   UNL     1     -10.811  16.368  67.874  1.00  0.00    -0.328 C  
BRANCH  12  13
HETATM   13  C   UNL     1      -9.386  15.918  68.073  1.00  0.00    -0.201 A  
HETATM   14  C   UNL     1      -8.692  15.271  67.039  1.00  0.00    -0.260 A  
HETATM   15  C   UNL     1      -7.367  14.869  67.218  1.00  0.00    -0.174 A  
HETATM   16  C   UNL     1      -6.722  15.109  68.429  1.00  0.00    -0.110 A  
HETATM   17  C   UNL     1      -7.401  15.752  69.464  1.00  0.00    -0.186 A  
HETATM   18  C   UNL     1      -8.726  16.153  69.287  1.00  0.00    -0.190 A  
ENDBRANCH  12  13
ENDBRANCH  11  12
ENDBRANCH   9  11
ENDBRANCH   6   9
TORSDOF 4
ENDMDL
MODEL      138
REMARK 921   NORMALIZED FREE ENERGY PREDICTED BY IDOCK:   -4.10 KCAL/MOL
REMARK 922        TOTAL FREE ENERGY PREDICTED BY IDOCK:   -5.67 KCAL/MOL
REMARK 923 INTER-LIGAND FREE ENERGY PREDICTED BY IDOCK:   -4.64 KCAL/MOL
REMARK 924 INTRA-LIGAND FREE ENERGY PREDICTED BY IDOCK:   -1.04 KCAL/MOL
REMARK 927      BINDING AFFINITY PREDICTED BY RF-SCORE:    0.00 PKD
ROOT
HETATM    1  O   UNL     1     -10.057  15.189  70.146  1.00  0.00    -0.489 OA 
HETATM    2  C   UNL     1     -10.334  14.664  68.919  1.00  0.00    -0.245 A  
HETATM    3  H   UNL     1     -10.658  15.087  70.874  1.00  0.00     0.000 HD 
HETATM    4  C   UNL     1      -9.453  14.812  67.854  1.00  0.00    -0.201 A  
HETATM    5  C   UNL     1      -9.788  14.272  66.610  1.00  0.00    -0.288 A  
HETATM    6  C   UNL     1     -11.000  13.584  66.432  1.00  0.00    -0.297 A  
HETATM    7  C   UNL     1     -11.533  13.976  68.765  1.00  0.00    -0.327 A  
HETATM    8  C   UNL     1     -11.870  13.434  67.520  1.00  0.00    -0.408 A  
ENDROOT
BRANCH   6   9
HETATM    9  C   UNL     1     -11.309  13.059  65.072  1.00  0.00    -0.296 C  
HETATM   10  O   UNL     1     -11.394  13.780  64.090  1.00  0.00    -0.353 OA 
BRANCH   9  11
HETATM   11  O   UNL     1     -11.508  11.721  65.101  1.00  0.00    -0.278 OA 
BRANCH  11  12
HETATM   12  C   UNL     1     -10.326  10.909  65.034  1.00  0.00    -0.288 C  
BRANCH  12  13
HETATM   13  C   UNL     1      -9.901  10.511  66.425  1.00  0.00    -0.260 A  
HETATM   14  C   UNL     1     -10.804   9.876  67.291  1.00  0.00    -0.268 A  
HETATM   15  C   UNL     1     -10.406   9.494  68.574  1.00  0.00    -0.234 A  
HETATM   16  C   UNL     1      -9.104   9.739  69.003  1.00  0.00    -0.157 A  
HETATM   17  C   UNL     1      -8.197  10.368  68.151  1.00  0.00    -0.116 A  
HETATM   18  C   UNL     1      -8.594  10.753  66.870  1.00  0.00    -0.132 A  
ENDBRANCH  12  13
ENDBRANCH  11  12
ENDBRANCH   9  11
ENDBRANCH   6   9
TORSDOF 4
ENDMDL
MODEL      139
REMARK 921   NORMALIZED FREE ENERGY PREDICTED BY IDOCK:   -4.09 KCAL/MOL
REMARK 922        TOTAL FREE ENERGY PREDICTED BY IDOCK:   -5.67 KCAL/MOL
REMARK 923 INTER-LIGAND FREE ENERGY PREDICTED BY IDOCK:   -4.89 KCAL/MOL
REMARK 924 INTRA-LIGAND FREE ENERGY PREDICTED BY IDOCK:   -0.78 KCAL/MOL
REMARK 927      BINDING AFFINITY PREDICTED BY RF-SCORE:    0.00 PKD
ROOT
HETATM    1  O   UNL     1     -12.738  14.276  66.632  1.00  0.00    -0.518 OA 
HETATM    2  C   UNL     1     -11.959  13.396  65.942  1.00  0.00    -0.409 A  
HETATM    3  H   UNL     1     -13.641  14.437  66.385  1.00  0.00     0.000 HD 
HETATM    4  C   UNL     1     -10.638  13.161  66.304  1.00  0.00    -0.292 A  
HETATM    5  C   UNL     1      -9.874  12.262  65.555  1.00  0.00    -0.223 A  
HETATM    6  C   UNL     1     -10.430  11.600  64.448  1.00  0.00    -0.374 A  
HETATM    7  C   UNL     1     -12.530  12.741  64.855  1.00  0.00    -0.563 A  
HETATM    8  C   UNL     1     -11.767  11.841  64.104  1.00  0.00    -0.376 A  
ENDROOT
BRANCH   6   9
HETATM    9  C   UNL     1      -9.550  10.678  63.676  1.00  0.00    -0.314 C  
HETATM   10  O   UNL     1      -9.768  10.378  62.513  1.00  0.00    -0.267 OA 
BRANCH   9  11
HETATM   11  O   UNL     1      -8.536  10.217  64.444  1.00  0.00    -0.171 OA 
BRANCH  11  12
HETATM   12  C   UNL     1      -8.626   8.840  64.841  1.00  0.00    -0.150 C  
BRANCH  12  13
HETATM   13  C   UNL     1      -9.008   8.754  66.297  1.00  0.00    -0.211 A  
HETATM   14  C   UNL     1      -9.999   7.855  66.721  1.00  0.00    -0.333 A  
HETATM   15  C   UNL     1     -10.342   7.764  68.071  1.00  0.00    -0.263 A  
HETATM   16  C   UNL     1      -9.700   8.567  69.011  1.00  0.00    -0.170 A  
HETATM   17  C   UNL     1      -8.714   9.464  68.602  1.00  0.00    -0.131 A  
HETATM   18  C   UNL     1      -8.370   9.558  67.252  1.00  0.00    -0.125 A  
ENDBRANCH  12  13
ENDBRANCH  11  12
ENDBRANCH   9  11
ENDBRANCH   6   9
TORSDOF 4
ENDMDL
MODEL      140
REMARK 921   NORMALIZED FREE ENERGY PREDICTED BY IDOCK:   -4.08 KCAL/MOL
REMARK 922        TOTAL FREE ENERGY PREDICTED BY IDOCK:   -5.66 KCAL/MOL
REMARK 923 INTER-LIGAND FREE ENERGY PREDICTED BY IDOCK:   -5.06 KCAL/MOL
REMARK 924 INTRA-LIGAND FREE ENERGY PREDICTED BY IDOCK:   -0.60 KCAL/MOL
REMARK 927      BINDING AFFINITY PREDICTED BY RF-SCORE:    0.00 PKD
ROOT
HETATM    1  O   UNL     1      -9.345  12.427  65.779  1.00  0.00    -0.418 OA 
HETATM    2  C   UNL     1      -9.519  11.324  66.561  1.00  0.00    -0.193 A  
HETATM    3  H   UNL     1      -8.518  12.602  65.348  1.00  0.00     0.000 HD 
HETATM    4  C   UNL     1     -10.731  11.069  67.192  1.00  0.00    -0.313 A  
HETATM    5  C   UNL     1     -10.855   9.935  67.998  1.00  0.00    -0.294 A  
HETATM    6  C   UNL     1      -9.771   9.058  68.173  1.00  0.00    -0.172 A  
HETATM    7  C   UNL     1      -8.438  10.462  66.713  1.00  0.00    -0.125 A  
HETATM    8  C   UNL     1      -8.561   9.326  67.520  1.00  0.00    -0.116 A  
ENDROOT
BRANCH   6   9
HETATM    9  C   UNL     1      -9.963   7.885  69.070  1.00  0.00    -0.187 C  
HETATM   10  O   UNL     1     -10.349   6.800  68.664  1.00  0.00    -0.166 OA 
BRANCH   9  11
HETATM   11  O   UNL     1      -9.690   8.206  70.356  1.00  0.00    -0.177 OA 
BRANCH  11  12
HETATM   12  C   UNL     1     -10.335   7.401  71.355  1.00  0.00    -0.194 C  
BRANCH  12  13
HETATM   13  C   UNL     1     -11.755   7.869  71.549  1.00  0.00    -0.317 A  
HETATM   14  C   UNL     1     -12.825   6.974  71.409  1.00  0.00    -0.407 A  
HETATM   15  C   UNL     1     -14.140   7.404  71.604  1.00  0.00    -0.552 A  
HETATM   16  C   UNL     1     -14.397   8.731  71.942  1.00  0.00    -0.441 A  
HETATM   17  C   UNL     1     -13.341   9.630  72.084  1.00  0.00    -0.545 A  
HETATM   18  C   UNL     1     -12.027   9.202  71.888  1.00  0.00    -0.443 A  
ENDBRANCH  12  13
ENDBRANCH  11  12
ENDBRANCH   9  11
ENDBRANCH   6   9
TORSDOF 4
ENDMDL
MODEL      141
REMARK 921   NORMALIZED FREE ENERGY PREDICTED BY IDOCK:   -4.07 KCAL/MOL
REMARK 922        TOTAL FREE ENERGY PREDICTED BY IDOCK:   -5.65 KCAL/MOL
REMARK 923 INTER-LIGAND FREE ENERGY PREDICTED BY IDOCK:   -5.13 KCAL/MOL
REMARK 924 INTRA-LIGAND FREE ENERGY PREDICTED BY IDOCK:   -0.52 KCAL/MOL
REMARK 927      BINDING AFFINITY PREDICTED BY RF-SCORE:    0.00 PKD
ROOT
HETATM    1  O   UNL     1      -8.356   6.777  65.636  1.00  0.00    -0.138 OA 
HETATM    2  C   UNL     1      -8.939   8.006  65.718  1.00  0.00    -0.102 A  
HETATM    3  H   UNL     1      -7.696   6.586  64.981  1.00  0.00     0.000 HD 
HETATM    4  C   UNL     1      -9.905   8.285  66.678  1.00  0.00    -0.337 A  
HETATM    5  C   UNL     1     -10.488   9.555  66.712  1.00  0.00    -0.263 A  
HETATM    6  C   UNL     1     -10.104  10.543  65.789  1.00  0.00    -0.329 A  
HETATM    7  C   UNL     1      -8.539   8.975  64.804  1.00  0.00    -0.201 A  
HETATM    8  C   UNL     1      -9.120  10.247  64.837  1.00  0.00    -0.250 A  
ENDROOT
BRANCH   6   9
HETATM    9  C   UNL     1     -10.787  11.865  65.863  1.00  0.00    -0.297 C  
HETATM   10  O   UNL     1     -11.466  12.308  64.950  1.00  0.00    -0.316 OA 
BRANCH   9  11
HETATM   11  O   UNL     1     -10.517  12.487  67.034  1.00  0.00    -0.229 OA 
BRANCH  11  12
HETATM   12  C   UNL     1     -11.549  13.348  67.539  1.00  0.00    -0.344 C  
BRANCH  12  13
HETATM   13  C   UNL     1     -11.936  12.919  68.932  1.00  0.00    -0.291 A  
HETATM   14  C   UNL     1     -12.262  13.873  69.907  1.00  0.00    -0.393 A  
HETATM   15  C   UNL     1     -12.635  13.474  71.192  1.00  0.00    -0.438 A  
HETATM   16  C   UNL     1     -12.687  12.120  71.515  1.00  0.00    -0.348 A  
HETATM   17  C   UNL     1     -12.366  11.162  70.555  1.00  0.00    -0.454 A  
HETATM   18  C   UNL     1     -11.991  11.559  69.270  1.00  0.00    -0.397 A  
ENDBRANCH  12  13
ENDBRANCH  11  12
ENDBRANCH   9  11
ENDBRANCH   6   9
TORSDOF 4
ENDMDL
MODEL      142
REMARK 921   NORMALIZED FREE ENERGY PREDICTED BY IDOCK:   -4.06 KCAL/MOL
REMARK 922        TOTAL FREE ENERGY PREDICTED BY IDOCK:   -5.63 KCAL/MOL
REMARK 923 INTER-LIGAND FREE ENERGY PREDICTED BY IDOCK:   -5.28 KCAL/MOL
REMARK 924 INTRA-LIGAND FREE ENERGY PREDICTED BY IDOCK:   -0.35 KCAL/MOL
REMARK 927      BINDING AFFINITY PREDICTED BY RF-SCORE:    0.00 PKD
ROOT
HETATM    1  O   UNL     1     -10.073   3.721  66.745  1.00  0.00    -0.343 OA 
HETATM    2  C   UNL     1      -9.855   5.062  66.635  1.00  0.00    -0.196 A  
HETATM    3  H   UNL     1      -9.470   3.090  66.371  1.00  0.00     0.000 HD 
HETATM    4  C   UNL     1     -10.738   5.985  67.183  1.00  0.00    -0.409 A  
HETATM    5  C   UNL     1     -10.482   7.350  67.029  1.00  0.00    -0.404 A  
HETATM    6  C   UNL     1      -9.346   7.790  66.330  1.00  0.00    -0.237 A  
HETATM    7  C   UNL     1      -8.719   5.480  65.950  1.00  0.00    -0.145 A  
HETATM    8  C   UNL     1      -8.461   6.846  65.795  1.00  0.00    -0.150 A  
ENDROOT
BRANCH   6   9
HETATM    9  C   UNL     1      -9.150   9.259  66.178  1.00  0.00    -0.179 C  
HETATM   10  O   UNL     1      -8.350   9.892  66.849  1.00  0.00    -0.123 OA 
BRANCH   9  11
HETATM   11  O   UNL     1      -9.988   9.767  65.244  1.00  0.00    -0.318 OA 
BRANCH  11  12
HETATM   12  C   UNL     1      -9.574  10.999  64.633  1.00  0.00    -0.254 C  
BRANCH  12  13
HETATM   13  C   UNL     1     -10.652  12.039  64.801  1.00  0.00    -0.340 A  
HETATM   14  C   UNL     1     -11.304  12.577  63.682  1.00  0.00    -0.555 A  
HETATM   15  C   UNL     1     -12.314  13.529  63.838  1.00  0.00    -0.397 A  
HETATM   16  C   UNL     1     -12.682  13.952  65.114  1.00  0.00    -0.434 A  
HETATM   17  C   UNL     1     -12.042  13.425  66.234  1.00  0.00    -0.475 A  
HETATM   18  C   UNL     1     -11.031  12.474  66.079  1.00  0.00    -0.318 A  
ENDBRANCH  12  13
ENDBRANCH  11  12
ENDBRANCH   9  11
ENDBRANCH   6   9
TORSDOF 4
ENDMDL
MODEL      143
REMARK 921   NORMALIZED FREE ENERGY PREDICTED BY IDOCK:   -4.05 KCAL/MOL
REMARK 922        TOTAL FREE ENERGY PREDICTED BY IDOCK:   -5.61 KCAL/MOL
REMARK 923 INTER-LIGAND FREE ENERGY PREDICTED BY IDOCK:   -5.19 KCAL/MOL
REMARK 924 INTRA-LIGAND FREE ENERGY PREDICTED BY IDOCK:   -0.42 KCAL/MOL
REMARK 927      BINDING AFFINITY PREDICTED BY RF-SCORE:    0.00 PKD
ROOT
HETATM    1  O   UNL     1      -6.106   9.744  69.569  1.00  0.00    -0.042 OA 
HETATM    2  C   UNL     1      -7.425  10.086  69.527  1.00  0.00    -0.123 A  
HETATM    3  H   UNL     1      -5.792   9.055  70.142  1.00  0.00     0.000 HD 
HETATM    4  C   UNL     1      -7.884  11.094  68.688  1.00  0.00    -0.138 A  
HETATM    5  C   UNL     1      -9.242  11.421  68.693  1.00  0.00    -0.149 A  
HETATM    6  C   UNL     1     -10.139  10.741  69.534  1.00  0.00    -0.117 A  
HETATM    7  C   UNL     1      -8.299   9.394  70.359  1.00  0.00    -0.234 A  
HETATM    8  C   UNL     1      -9.660   9.720  70.364  1.00  0.00    -0.223 A  
ENDROOT
BRANCH   6   9
HETATM    9  C   UNL     1     -11.568  11.161  69.511  1.00  0.00    -0.321 C  
HETATM   10  O   UNL     1     -12.220  11.226  68.481  1.00  0.00    -0.588 OA 
BRANCH   9  11
HETATM   11  O   UNL     1     -12.001  11.481  70.752  1.00  0.00    -0.344 OA 
BRANCH  11  12
HETATM   12  C   UNL     1     -13.155  12.333  70.815  1.00  0.00     0.265 C  
BRANCH  12  13
HETATM   13  C   UNL     1     -12.770  13.672  71.390  1.00  0.00    -0.437 A  
HETATM   14  C   UNL     1     -11.862  14.502  70.716  1.00  0.00    -0.367 A  
HETATM   15  C   UNL     1     -11.517  15.749  71.241  1.00  0.00    -0.481 A  
HETATM   16  C   UNL     1     -12.075  16.179  72.442  1.00  0.00    -0.630 A  
HETATM   17  C   UNL     1     -12.979  15.364  73.121  1.00  0.00    -0.628 A  
HETATM   18  C   UNL     1     -13.324  14.116  72.599  1.00  0.00    -0.638 A  
ENDBRANCH  12  13
ENDBRANCH  11  12
ENDBRANCH   9  11
ENDBRANCH   6   9
TORSDOF 4
ENDMDL
MODEL      144
REMARK 921   NORMALIZED FREE ENERGY PREDICTED BY IDOCK:   -4.04 KCAL/MOL
REMARK 922        TOTAL FREE ENERGY PREDICTED BY IDOCK:   -5.61 KCAL/MOL
REMARK 923 INTER-LIGAND FREE ENERGY PREDICTED BY IDOCK:   -5.04 KCAL/MOL
REMARK 924 INTRA-LIGAND FREE ENERGY PREDICTED BY IDOCK:   -0.56 KCAL/MOL
REMARK 927      BINDING AFFINITY PREDICTED BY RF-SCORE:    0.00 PKD
ROOT
HETATM    1  O   UNL     1     -10.683   4.351  73.966  1.00  0.00    -0.243 OA 
HETATM    2  C   UNL     1     -10.949   5.565  73.407  1.00  0.00    -0.275 A  
HETATM    3  H   UNL     1     -11.178   3.577  73.726  1.00  0.00     0.000 HD 
HETATM    4  C   UNL     1     -10.223   6.697  73.758  1.00  0.00    -0.354 A  
HETATM    5  C   UNL     1     -10.544   7.924  73.172  1.00  0.00    -0.342 A  
HETATM    6  C   UNL     1     -11.587   8.018  72.236  1.00  0.00    -0.424 A  
HETATM    7  C   UNL     1     -11.978   5.637  72.474  1.00  0.00    -0.130 A  
HETATM    8  C   UNL     1     -12.301   6.865  71.886  1.00  0.00    -0.364 A  
ENDROOT
BRANCH   6   9
HETATM    9  C   UNL     1     -11.896   9.362  71.673  1.00  0.00    -0.394 C  
HETATM   10  O   UNL     1     -12.969   9.919  71.844  1.00  0.00    -0.399 OA 
BRANCH   9  11
HETATM   11  O   UNL     1     -10.859   9.833  70.942  1.00  0.00    -0.310 OA 
BRANCH  11  12
HETATM   12  C   UNL     1     -11.198  10.422  69.678  1.00  0.00    -0.277 C  
BRANCH  12  13
HETATM   13  C   UNL     1     -10.572   9.627  68.560  1.00  0.00    -0.253 A  
HETATM   14  C   UNL     1      -9.942   8.401  68.824  1.00  0.00    -0.197 A  
HETATM   15  C   UNL     1      -9.377   7.657  67.787  1.00  0.00    -0.153 A  
HETATM   16  C   UNL     1      -9.435   8.128  66.477  1.00  0.00    -0.286 A  
HETATM   17  C   UNL     1     -10.059   9.344  66.202  1.00  0.00    -0.324 A  
HETATM   18  C   UNL     1     -10.623  10.091  67.238  1.00  0.00    -0.319 A  
ENDBRANCH  12  13
ENDBRANCH  11  12
ENDBRANCH   9  11
ENDBRANCH   6   9
TORSDOF 4
ENDMDL
MODEL      145
REMARK 921   NORMALIZED FREE ENERGY PREDICTED BY IDOCK:   -4.04 KCAL/MOL
REMARK 922        TOTAL FREE ENERGY PREDICTED BY IDOCK:   -5.60 KCAL/MOL
REMARK 923 INTER-LIGAND FREE ENERGY PREDICTED BY IDOCK:   -5.39 KCAL/MOL
REMARK 924 INTRA-LIGAND FREE ENERGY PREDICTED BY IDOCK:   -0.21 KCAL/MOL
REMARK 927      BINDING AFFINITY PREDICTED BY RF-SCORE:    0.00 PKD
ROOT
HETATM    1  O   UNL     1     -14.135  13.213  72.658  1.00  0.00    -0.718 OA 
HETATM    2  C   UNL     1     -13.434  13.676  71.585  1.00  0.00    -0.322 A  
HETATM    3  H   UNL     1     -14.658  13.796  73.195  1.00  0.00     0.000 HD 
HETATM    4  C   UNL     1     -12.668  12.822  70.799  1.00  0.00    -0.217 A  
HETATM    5  C   UNL     1     -11.952  13.346  69.720  1.00  0.00    -0.396 A  
HETATM    6  C   UNL     1     -12.002  14.719  69.427  1.00  0.00    -0.339 A  
HETATM    7  C   UNL     1     -13.504  15.036  71.303  1.00  0.00    -0.520 A  
HETATM    8  C   UNL     1     -12.788  15.562  70.223  1.00  0.00    -0.239 A  
ENDROOT
BRANCH   6   9
HETATM    9  C   UNL     1     -11.190  15.215  68.280  1.00  0.00    -0.308 C  
HETATM   10  O   UNL     1     -10.582  14.468  67.530  1.00  0.00    -0.258 OA 
BRANCH   9  11
HETATM   11  O   UNL     1     -11.202  16.567  68.225  1.00  0.00    -0.356 OA 
BRANCH  11  12
HETATM   12  C   UNL     1     -10.253  17.238  69.068  1.00  0.00    -0.318 C  
BRANCH  12  13
HETATM   13  C   UNL     1      -8.930  17.353  68.355  1.00  0.00    -0.277 A  
HETATM   14  C   UNL     1      -7.792  16.703  68.856  1.00  0.00    -0.240 A  
HETATM   15  C   UNL     1      -6.570  16.797  68.187  1.00  0.00    -0.148 A  
HETATM   16  C   UNL     1      -6.472  17.540  67.013  1.00  0.00    -0.200 A  
HETATM   17  C   UNL     1      -7.595  18.190  66.505  1.00  0.00    -0.273 A  
HETATM   18  C   UNL     1      -8.818  18.099  67.173  1.00  0.00    -0.259 A  
ENDBRANCH  12  13
ENDBRANCH  11  12
ENDBRANCH   9  11
ENDBRANCH   6   9
TORSDOF 4
ENDMDL
MODEL      146
REMARK 921   NORMALIZED FREE ENERGY PREDICTED BY IDOCK:   -4.03 KCAL/MOL
REMARK 922        TOTAL FREE ENERGY PREDICTED BY IDOCK:   -5.59 KCAL/MOL
REMARK 923 INTER-LIGAND FREE ENERGY PREDICTED BY IDOCK:   -4.75 KCAL/MOL
REMARK 924 INTRA-LIGAND FREE ENERGY PREDICTED BY IDOCK:   -0.84 KCAL/MOL
REMARK 927      BINDING AFFINITY PREDICTED BY RF-SCORE:    0.00 PKD
ROOT
HETATM    1  O   UNL     1      -6.773  11.163  70.354  1.00  0.00    -0.477 OA 
HETATM    2  C   UNL     1      -7.647  11.123  69.308  1.00  0.00    -0.055 A  
HETATM    3  H   UNL     1      -6.899  10.621  71.124  1.00  0.00     0.000 HD 
HETATM    4  C   UNL     1      -7.463  11.915  68.182  1.00  0.00    -0.100 A  
HETATM    5  C   UNL     1      -8.395  11.853  67.143  1.00  0.00    -0.174 A  
HETATM    6  C   UNL     1      -9.508  11.000  67.231  1.00  0.00    -0.179 A  
HETATM    7  C   UNL     1      -8.737  10.264  69.408  1.00  0.00    -0.168 A  
HETATM    8  C   UNL     1      -9.671  10.200  68.369  1.00  0.00    -0.157 A  
ENDROOT
BRANCH   6   9
HETATM    9  C   UNL     1     -10.479  11.005  66.100  1.00  0.00    -0.244 C  
HETATM   10  O   UNL     1     -10.253  10.455  65.034  1.00  0.00    -0.324 OA 
BRANCH   9  11
HETATM   11  O   UNL     1     -11.587  11.716  66.415  1.00  0.00    -0.447 OA 
BRANCH  11  12
HETATM   12  C   UNL     1     -11.722  12.989  65.765  1.00  0.00    -0.382 C  
BRANCH  12  13
HETATM   13  C   UNL     1     -11.437  14.096  66.748  1.00  0.00    -0.383 A  
HETATM   14  C   UNL     1     -11.909  14.016  68.066  1.00  0.00    -0.403 A  
HETATM   15  C   UNL     1     -11.633  15.035  68.981  1.00  0.00    -0.342 A  
HETATM   16  C   UNL     1     -10.882  16.141  68.589  1.00  0.00    -0.311 A  
HETATM   17  C   UNL     1     -10.406  16.231  67.281  1.00  0.00    -0.285 A  
HETATM   18  C   UNL     1     -10.684  15.215  66.365  1.00  0.00    -0.317 A  
ENDBRANCH  12  13
ENDBRANCH  11  12
ENDBRANCH   9  11
ENDBRANCH   6   9
TORSDOF 4
ENDMDL
MODEL      147
REMARK 921   NORMALIZED FREE ENERGY PREDICTED BY IDOCK:   -4.02 KCAL/MOL
REMARK 922        TOTAL FREE ENERGY PREDICTED BY IDOCK:   -5.58 KCAL/MOL
REMARK 923 INTER-LIGAND FREE ENERGY PREDICTED BY IDOCK:   -4.86 KCAL/MOL
REMARK 924 INTRA-LIGAND FREE ENERGY PREDICTED BY IDOCK:   -0.71 KCAL/MOL
REMARK 927      BINDING AFFINITY PREDICTED BY RF-SCORE:    0.00 PKD
ROOT
HETATM    1  O   UNL     1     -13.550  11.295  71.857  1.00  0.00    -0.253 OA 
HETATM    2  C   UNL     1     -12.979  10.067  71.701  1.00  0.00    -0.449 A  
HETATM    3  H   UNL     1     -13.045  12.092  71.754  1.00  0.00     0.000 HD 
HETATM    4  C   UNL     1     -13.720   8.901  71.851  1.00  0.00    -0.488 A  
HETATM    5  C   UNL     1     -13.086   7.665  71.699  1.00  0.00    -0.392 A  
HETATM    6  C   UNL     1     -11.716   7.596  71.396  1.00  0.00    -0.310 A  
HETATM    7  C   UNL     1     -11.624  10.019  71.390  1.00  0.00    -0.383 A  
HETATM    8  C   UNL     1     -10.988   8.782  71.236  1.00  0.00    -0.345 A  
ENDROOT
BRANCH   6   9
HETATM    9  C   UNL     1     -11.098   6.246  71.277  1.00  0.00    -0.289 C  
HETATM   10  O   UNL     1     -11.267   5.367  72.108  1.00  0.00    -0.217 OA 
BRANCH   9  11
HETATM   11  O   UNL     1     -10.323   6.162  70.171  1.00  0.00    -0.187 OA 
BRANCH  11  12
HETATM   12  C   UNL     1     -11.021   6.113  68.917  1.00  0.00    -0.356 C  
BRANCH  12  13
HETATM   13  C   UNL     1     -10.348   7.024  67.923  1.00  0.00    -0.247 A  
HETATM   14  C   UNL     1      -9.201   6.602  67.233  1.00  0.00    -0.129 A  
HETATM   15  C   UNL     1      -8.587   7.440  66.300  1.00  0.00    -0.148 A  
HETATM   16  C   UNL     1      -9.111   8.706  66.047  1.00  0.00    -0.255 A  
HETATM   17  C   UNL     1     -10.250   9.136  66.725  1.00  0.00    -0.331 A  
HETATM   18  C   UNL     1     -10.865   8.301  67.659  1.00  0.00    -0.083 A  
ENDBRANCH  12  13
ENDBRANCH  11  12
ENDBRANCH   9  11
ENDBRANCH   6   9
TORSDOF 4
ENDMDL
MODEL      148
REMARK 921   NORMALIZED FREE ENERGY PREDICTED BY IDOCK:   -4.00 KCAL/MOL
REMARK 922        TOTAL FREE ENERGY PREDICTED BY IDOCK:   -5.56 KCAL/MOL
REMARK 923 INTER-LIGAND FREE ENERGY PREDICTED BY IDOCK:   -4.72 KCAL/MOL
REMARK 924 INTRA-LIGAND FREE ENERGY PREDICTED BY IDOCK:   -0.84 KCAL/MOL
REMARK 927      BINDING AFFINITY PREDICTED BY RF-SCORE:    0.00 PKD
ROOT
HETATM    1  O   UNL     1     -12.065   7.541  72.591  1.00  0.00    -0.537 OA 
HETATM    2  C   UNL     1     -12.073   8.755  71.970  1.00  0.00    -0.377 A  
HETATM    3  H   UNL     1     -12.822   7.226  73.071  1.00  0.00     0.000 HD 
HETATM    4  C   UNL     1     -10.966   9.215  71.268  1.00  0.00    -0.400 A  
HETATM    5  C   UNL     1     -11.015  10.473  70.663  1.00  0.00    -0.062 A  
HETATM    6  C   UNL     1     -12.169  11.268  70.760  1.00  0.00    -0.479 A  
HETATM    7  C   UNL     1     -13.229   9.523  72.067  1.00  0.00    -0.539 A  
HETATM    8  C   UNL     1     -13.280  10.783  71.461  1.00  0.00    -0.434 A  
ENDROOT
BRANCH   6   9
HETATM    9  C   UNL     1     -12.143  12.612  70.117  1.00  0.00    -0.294 C  
HETATM   10  O   UNL     1     -12.043  13.648  70.756  1.00  0.00    -0.340 OA 
BRANCH   9  11
HETATM   11  O   UNL     1     -12.278  12.511  68.774  1.00  0.00    -0.179 OA 
BRANCH  11  12
HETATM   12  C   UNL     1     -11.300  13.210  67.990  1.00  0.00    -0.292 C  
BRANCH  12  13
HETATM   13  C   UNL     1     -10.004  12.439  67.985  1.00  0.00    -0.207 A  
HETATM   14  C   UNL     1      -9.933  11.170  67.390  1.00  0.00    -0.204 A  
HETATM   15  C   UNL     1      -8.730  10.462  67.372  1.00  0.00    -0.125 A  
HETATM   16  C   UNL     1      -7.587  11.014  67.947  1.00  0.00    -0.095 A  
HETATM   17  C   UNL     1      -7.645  12.273  68.541  1.00  0.00    -0.118 A  
HETATM   18  C   UNL     1      -8.847  12.982  68.561  1.00  0.00    -0.038 A  
ENDBRANCH  12  13
ENDBRANCH  11  12
ENDBRANCH   9  11
ENDBRANCH   6   9
TORSDOF 4
ENDMDL
MODEL      149
REMARK 921   NORMALIZED FREE ENERGY PREDICTED BY IDOCK:   -3.99 KCAL/MOL
REMARK 922        TOTAL FREE ENERGY PREDICTED BY IDOCK:   -5.55 KCAL/MOL
REMARK 923 INTER-LIGAND FREE ENERGY PREDICTED BY IDOCK:   -5.20 KCAL/MOL
REMARK 924 INTRA-LIGAND FREE ENERGY PREDICTED BY IDOCK:   -0.35 KCAL/MOL
REMARK 927      BINDING AFFINITY PREDICTED BY RF-SCORE:    0.00 PKD
ROOT
HETATM    1  O   UNL     1      -8.584   5.601  74.256  1.00  0.00    -0.112 OA 
HETATM    2  C   UNL     1      -9.412   6.449  73.583  1.00  0.00    -0.150 A  
HETATM    3  H   UNL     1      -7.704   5.859  74.500  1.00  0.00     0.000 HD 
HETATM    4  C   UNL     1     -10.700   6.069  73.226  1.00  0.00    -0.284 A  
HETATM    5  C   UNL     1     -11.506   6.967  72.521  1.00  0.00    -0.268 A  
HETATM    6  C   UNL     1     -11.025   8.240  72.175  1.00  0.00    -0.396 A  
HETATM    7  C   UNL     1      -8.922   7.710  73.259  1.00  0.00    -0.259 A  
HETATM    8  C   UNL     1      -9.728   8.610  72.553  1.00  0.00    -0.259 A  
ENDROOT
BRANCH   6   9
HETATM    9  C   UNL     1     -11.926   9.136  71.397  1.00  0.00    -0.339 C  
HETATM   10  O   UNL     1     -13.143   9.070  71.466  1.00  0.00    -0.329 OA 
BRANCH   9  11
HETATM   11  O   UNL     1     -11.215   9.973  70.606  1.00  0.00    -0.304 OA 
BRANCH  11  12
HETATM   12  C   UNL     1     -11.929  11.105  70.087  1.00  0.00    -0.365 C  
BRANCH  12  13
HETATM   13  C   UNL     1     -11.553  11.328  68.645  1.00  0.00    -0.384 A  
HETATM   14  C   UNL     1     -11.780  12.571  68.033  1.00  0.00    -0.410 A  
HETATM   15  C   UNL     1     -11.417  12.782  66.701  1.00  0.00    -0.404 A  
HETATM   16  C   UNL     1     -10.825  11.756  65.968  1.00  0.00    -0.343 A  
HETATM   17  C   UNL     1     -10.594  10.517  66.565  1.00  0.00    -0.240 A  
HETATM   18  C   UNL     1     -10.958  10.304  67.895  1.00  0.00    -0.350 A  
ENDBRANCH  12  13
ENDBRANCH  11  12
ENDBRANCH   9  11
ENDBRANCH   6   9
TORSDOF 4
ENDMDL
MODEL      150
REMARK 921   NORMALIZED FREE ENERGY PREDICTED BY IDOCK:   -3.99 KCAL/MOL
REMARK 922        TOTAL FREE ENERGY PREDICTED BY IDOCK:   -5.54 KCAL/MOL
REMARK 923 INTER-LIGAND FREE ENERGY PREDICTED BY IDOCK:   -4.71 KCAL/MOL
REMARK 924 INTRA-LIGAND FREE ENERGY PREDICTED BY IDOCK:   -0.83 KCAL/MOL
REMARK 927      BINDING AFFINITY PREDICTED BY RF-SCORE:    0.00 PKD
ROOT
HETATM    1  O   UNL     1      -7.878   7.373  68.496  1.00  0.00    -0.117 OA 
HETATM    2  C   UNL     1      -8.760   8.412  68.527  1.00  0.00    -0.136 A  
HETATM    3  H   UNL     1      -7.220   7.263  69.171  1.00  0.00     0.000 HD 
HETATM    4  C   UNL     1      -9.724   8.572  67.539  1.00  0.00    -0.209 A  
HETATM    5  C   UNL     1     -10.594   9.663  67.604  1.00  0.00    -0.334 A  
HETATM    6  C   UNL     1     -10.500  10.591  68.654  1.00  0.00    -0.211 A  
HETATM    7  C   UNL     1      -8.659   9.314  69.581  1.00  0.00    -0.151 A  
HETATM    8  C   UNL     1      -9.530  10.407  69.648  1.00  0.00    -0.118 A  
ENDROOT
BRANCH   6   9
HETATM    9  C   UNL     1     -11.440  11.747  68.646  1.00  0.00    -0.288 C  
HETATM   10  O   UNL     1     -12.579  11.676  69.079  1.00  0.00    -0.120 OA 
BRANCH   9  11
HETATM   11  O   UNL     1     -10.869  12.833  68.073  1.00  0.00    -0.220 OA 
BRANCH  11  12
HETATM   12  C   UNL     1     -11.646  13.489  67.059  1.00  0.00    -0.359 C  
BRANCH  12  13
HETATM   13  C   UNL     1     -11.396  12.837  65.723  1.00  0.00    -0.357 A  
HETATM   14  C   UNL     1     -10.105  12.422  65.363  1.00  0.00    -0.289 A  
HETATM   15  C   UNL     1      -9.877  11.804  64.132  1.00  0.00    -0.248 A  
HETATM   16  C   UNL     1     -10.934  11.594  63.250  1.00  0.00    -0.361 A  
HETATM   17  C   UNL     1     -12.222  12.001  63.596  1.00  0.00    -0.642 A  
HETATM   18  C   UNL     1     -12.452  12.620  64.826  1.00  0.00    -0.555 A  
ENDBRANCH  12  13
ENDBRANCH  11  12
ENDBRANCH   9  11
ENDBRANCH   6   9
TORSDOF 4
ENDMDL
MODEL      151
REMARK 921   NORMALIZED FREE ENERGY PREDICTED BY IDOCK:   -3.98 KCAL/MOL
REMARK 922        TOTAL FREE ENERGY PREDICTED BY IDOCK:   -5.53 KCAL/MOL
REMARK 923 INTER-LIGAND FREE ENERGY PREDICTED BY IDOCK:   -5.07 KCAL/MOL
REMARK 924 INTRA-LIGAND FREE ENERGY PREDICTED BY IDOCK:   -0.46 KCAL/MOL
REMARK 927      BINDING AFFINITY PREDICTED BY RF-SCORE:    0.00 PKD
ROOT
HETATM    1  O   UNL     1     -10.389   4.543  66.856  1.00  0.00    -0.177 OA 
HETATM    2  C   UNL     1     -10.467   5.842  67.262  1.00  0.00    -0.266 A  
HETATM    3  H   UNL     1     -10.519   3.826  67.464  1.00  0.00     0.000 HD 
HETATM    4  C   UNL     1     -10.276   6.891  66.370  1.00  0.00    -0.009 A  
HETATM    5  C   UNL     1     -10.348   8.206  66.836  1.00  0.00    -0.401 A  
HETATM    6  C   UNL     1     -10.611   8.471  68.191  1.00  0.00    -0.181 A  
HETATM    7  C   UNL     1     -10.739   6.085  68.604  1.00  0.00    -0.363 A  
HETATM    8  C   UNL     1     -10.812   7.401  69.073  1.00  0.00    -0.108 A  
ENDROOT
BRANCH   6   9
HETATM    9  C   UNL     1     -10.644   9.895  68.627  1.00  0.00    -0.217 C  
HETATM   10  O   UNL     1      -9.791  10.383  69.350  1.00  0.00    -0.220 OA 
BRANCH   9  11
HETATM   11  O   UNL     1     -11.741  10.525  68.146  1.00  0.00    -0.431 OA 
BRANCH  11  12
HETATM   12  C   UNL     1     -11.725  11.959  68.222  1.00  0.00    -0.321 C  
BRANCH  12  13
HETATM   13  C   UNL     1     -11.749  12.544  66.833  1.00  0.00    -0.447 A  
HETATM   14  C   UNL     1     -11.544  11.726  65.712  1.00  0.00    -0.194 A  
HETATM   15  C   UNL     1     -11.581  12.265  64.424  1.00  0.00    -0.428 A  
HETATM   16  C   UNL     1     -11.823  13.625  64.244  1.00  0.00    -0.464 A  
HETATM   17  C   UNL     1     -12.028  14.449  65.350  1.00  0.00    -0.369 A  
HETATM   18  C   UNL     1     -11.990  13.911  66.638  1.00  0.00    -0.474 A  
ENDBRANCH  12  13
ENDBRANCH  11  12
ENDBRANCH   9  11
ENDBRANCH   6   9
TORSDOF 4
ENDMDL
MODEL      152
REMARK 921   NORMALIZED FREE ENERGY PREDICTED BY IDOCK:   -3.98 KCAL/MOL
REMARK 922        TOTAL FREE ENERGY PREDICTED BY IDOCK:   -5.53 KCAL/MOL
REMARK 923 INTER-LIGAND FREE ENERGY PREDICTED BY IDOCK:   -4.81 KCAL/MOL
REMARK 924 INTRA-LIGAND FREE ENERGY PREDICTED BY IDOCK:   -0.72 KCAL/MOL
REMARK 927      BINDING AFFINITY PREDICTED BY RF-SCORE:    0.00 PKD
ROOT
HETATM    1  O   UNL     1     -10.139  17.733  67.492  1.00  0.00    -0.312 OA 
HETATM    2  C   UNL     1     -10.585  16.546  66.991  1.00  0.00    -0.255 A  
HETATM    3  H   UNL     1      -9.758  18.395  66.928  1.00  0.00     0.000 HD 
HETATM    4  C   UNL     1     -11.143  15.577  67.817  1.00  0.00    -0.315 A  
HETATM    5  C   UNL     1     -11.570  14.369  67.260  1.00  0.00    -0.401 A  
HETATM    6  C   UNL     1     -11.440  14.131  65.882  1.00  0.00    -0.338 A  
HETATM    7  C   UNL     1     -10.459  16.332  65.622  1.00  0.00    -0.386 A  
HETATM    8  C   UNL     1     -10.886  15.123  65.063  1.00  0.00    -0.457 A  
ENDROOT
BRANCH   6   9
HETATM    9  C   UNL     1     -11.888  12.809  65.360  1.00  0.00    -0.415 C  
HETATM   10  O   UNL     1     -13.062  12.542  65.160  1.00  0.00    -0.659 OA 
BRANCH   9  11
HETATM   11  O   UNL     1     -10.837  11.975  65.183  1.00  0.00    -0.283 OA 
BRANCH  11  12
HETATM   12  C   UNL     1     -10.614  11.016  66.229  1.00  0.00    -0.237 C  
BRANCH  12  13
HETATM   13  C   UNL     1      -9.165  11.043  66.645  1.00  0.00    -0.182 A  
HETATM   14  C   UNL     1      -8.443   9.849  66.789  1.00  0.00    -0.125 A  
HETATM   15  C   UNL     1      -7.097   9.874  67.159  1.00  0.00    -0.085 A  
HETATM   16  C   UNL     1      -6.459  11.091  67.389  1.00  0.00    -0.067 A  
HETATM   17  C   UNL     1      -7.166  12.285  67.249  1.00  0.00    -0.138 A  
HETATM   18  C   UNL     1      -8.512  12.261  66.881  1.00  0.00    -0.159 A  
ENDBRANCH  12  13
ENDBRANCH  11  12
ENDBRANCH   9  11
ENDBRANCH   6   9
TORSDOF 4
ENDMDL
MODEL      153
REMARK 921   NORMALIZED FREE ENERGY PREDICTED BY IDOCK:   -3.95 KCAL/MOL
REMARK 922        TOTAL FREE ENERGY PREDICTED BY IDOCK:   -5.49 KCAL/MOL
REMARK 923 INTER-LIGAND FREE ENERGY PREDICTED BY IDOCK:   -4.66 KCAL/MOL
REMARK 924 INTRA-LIGAND FREE ENERGY PREDICTED BY IDOCK:   -0.83 KCAL/MOL
REMARK 927      BINDING AFFINITY PREDICTED BY RF-SCORE:    0.00 PKD
ROOT
HETATM    1  O   UNL     1      -7.786   9.310  68.518  1.00  0.00    -0.089 OA 
HETATM    2  C   UNL     1      -8.196   9.638  67.260  1.00  0.00    -0.114 A  
HETATM    3  H   UNL     1      -8.298   8.730  69.068  1.00  0.00     0.000 HD 
HETATM    4  C   UNL     1      -7.446  10.487  66.454  1.00  0.00    -0.133 A  
HETATM    5  C   UNL     1      -7.915  10.809  65.178  1.00  0.00     0.040 A  
HETATM    6  C   UNL     1      -9.130  10.283  64.709  1.00  0.00    -0.256 A  
HETATM    7  C   UNL     1      -9.396   9.099  66.808  1.00  0.00    -0.213 A  
HETATM    8  C   UNL     1      -9.867   9.420  65.531  1.00  0.00    -0.231 A  
ENDROOT
BRANCH   6   9
HETATM    9  C   UNL     1      -9.586  10.691  63.351  1.00  0.00    -0.332 C  
HETATM   10  O   UNL     1      -9.621   9.919  62.406  1.00  0.00    -0.235 OA 
BRANCH   9  11
HETATM   11  O   UNL     1      -9.907  12.006  63.321  1.00  0.00    -0.392 OA 
BRANCH  11  12
HETATM   12  C   UNL     1     -11.273  12.326  63.628  1.00  0.00    -0.466 C  
BRANCH  12  13
HETATM   13  C   UNL     1     -11.335  13.126  64.904  1.00  0.00    -0.334 A  
HETATM   14  C   UNL     1     -12.184  12.735  65.949  1.00  0.00    -0.422 A  
HETATM   15  C   UNL     1     -12.230  13.468  67.137  1.00  0.00    -0.328 A  
HETATM   16  C   UNL     1     -11.429  14.597  67.292  1.00  0.00    -0.386 A  
HETATM   17  C   UNL     1     -10.580  14.996  66.260  1.00  0.00    -0.309 A  
HETATM   18  C   UNL     1     -10.534  14.265  65.071  1.00  0.00    -0.458 A  
ENDBRANCH  12  13
ENDBRANCH  11  12
ENDBRANCH   9  11
ENDBRANCH   6   9
TORSDOF 4
ENDMDL
MODEL      154
REMARK 921   NORMALIZED FREE ENERGY PREDICTED BY IDOCK:   -3.90 KCAL/MOL
REMARK 922        TOTAL FREE ENERGY PREDICTED BY IDOCK:   -5.44 KCAL/MOL
REMARK 923 INTER-LIGAND FREE ENERGY PREDICTED BY IDOCK:   -4.99 KCAL/MOL
REMARK 924 INTRA-LIGAND FREE ENERGY PREDICTED BY IDOCK:   -0.45 KCAL/MOL
REMARK 927      BINDING AFFINITY PREDICTED BY RF-SCORE:    0.00 PKD
ROOT
HETATM    1  O   UNL     1     -13.318  14.216  65.650  1.00  0.00    -0.697 OA 
HETATM    2  C   UNL     1     -12.392  13.564  66.410  1.00  0.00    -0.357 A  
HETATM    3  H   UNL     1     -13.611  13.864  64.818  1.00  0.00     0.000 HD 
HETATM    4  C   UNL     1     -11.964  14.080  67.627  1.00  0.00    -0.404 A  
HETATM    5  C   UNL     1     -11.000  13.385  68.362  1.00  0.00    -0.291 A  
HETATM    6  C   UNL     1     -10.467  12.178  67.881  1.00  0.00    -0.224 A  
HETATM    7  C   UNL     1     -11.884  12.365  65.922  1.00  0.00    -0.467 A  
HETATM    8  C   UNL     1     -10.919  11.667  66.657  1.00  0.00    -0.349 A  
ENDROOT
BRANCH   6   9
HETATM    9  C   UNL     1      -9.421  11.505  68.700  1.00  0.00    -0.141 C  
HETATM   10  O   UNL     1      -8.230  11.747  68.580  1.00  0.00    -0.150 OA 
BRANCH   9  11
HETATM   11  O   UNL     1      -9.970  10.594  69.538  1.00  0.00    -0.197 OA 
BRANCH  11  12
HETATM   12  C   UNL     1      -9.092   9.557  70.001  1.00  0.00    -0.227 C  
BRANCH  12  13
HETATM   13  C   UNL     1      -9.692   8.208  69.699  1.00  0.00    -0.170 A  
HETATM   14  C   UNL     1      -9.729   7.208  70.683  1.00  0.00    -0.175 A  
HETATM   15  C   UNL     1     -10.299   5.963  70.407  1.00  0.00    -0.294 A  
HETATM   16  C   UNL     1     -10.836   5.705  69.149  1.00  0.00    -0.281 A  
HETATM   17  C   UNL     1     -10.805   6.690  68.163  1.00  0.00    -0.334 A  
HETATM   18  C   UNL     1     -10.235   7.934  68.435  1.00  0.00    -0.232 A  
ENDBRANCH  12  13
ENDBRANCH  11  12
ENDBRANCH   9  11
ENDBRANCH   6   9
TORSDOF 4
ENDMDL
MODEL      155
REMARK 921   NORMALIZED FREE ENERGY PREDICTED BY IDOCK:   -3.90 KCAL/MOL
REMARK 922        TOTAL FREE ENERGY PREDICTED BY IDOCK:   -5.44 KCAL/MOL
REMARK 923 INTER-LIGAND FREE ENERGY PREDICTED BY IDOCK:   -4.88 KCAL/MOL
REMARK 924 INTRA-LIGAND FREE ENERGY PREDICTED BY IDOCK:   -0.55 KCAL/MOL
REMARK 927      BINDING AFFINITY PREDICTED BY RF-SCORE:    0.00 PKD
ROOT
HETATM    1  O   UNL     1     -13.989  12.984  72.897  1.00  0.00    -0.666 OA 
HETATM    2  C   UNL     1     -13.249  12.706  71.787  1.00  0.00    -0.359 A  
HETATM    3  H   UNL     1     -14.170  13.879  73.159  1.00  0.00     0.000 HD 
HETATM    4  C   UNL     1     -12.984  11.396  71.404  1.00  0.00    -0.468 A  
HETATM    5  C   UNL     1     -12.206  11.161  70.268  1.00  0.00    -0.436 A  
HETATM    6  C   UNL     1     -11.695  12.232  69.516  1.00  0.00    -0.398 A  
HETATM    7  C   UNL     1     -12.761  13.779  71.049  1.00  0.00    -0.416 A  
HETATM    8  C   UNL     1     -11.982  13.545  69.911  1.00  0.00    -0.416 A  
ENDROOT
BRANCH   6   9
HETATM    9  C   UNL     1     -10.848  11.910  68.334  1.00  0.00    -0.228 C  
HETATM   10  O   UNL     1     -11.060  12.373  67.224  1.00  0.00    -0.254 OA 
BRANCH   9  11
HETATM   11  O   UNL     1      -9.871  11.032  68.661  1.00  0.00    -0.181 OA 
BRANCH  11  12
HETATM   12  C   UNL     1      -9.639   9.972  67.721  1.00  0.00    -0.148 C  
BRANCH  12  13
HETATM   13  C   UNL     1      -9.306   8.700  68.458  1.00  0.00    -0.138 A  
HETATM   14  C   UNL     1     -10.222   8.139  69.360  1.00  0.00    -0.211 A  
HETATM   15  C   UNL     1      -9.919   6.952  70.032  1.00  0.00    -0.190 A  
HETATM   16  C   UNL     1      -8.700   6.315  69.809  1.00  0.00    -0.137 A  
HETATM   17  C   UNL     1      -7.782   6.863  68.914  1.00  0.00    -0.110 A  
HETATM   18  C   UNL     1      -8.082   8.050  68.243  1.00  0.00    -0.126 A  
ENDBRANCH  12  13
ENDBRANCH  11  12
ENDBRANCH   9  11
ENDBRANCH   6   9
TORSDOF 4
ENDMDL
MODEL      156
REMARK 921   NORMALIZED FREE ENERGY PREDICTED BY IDOCK:   -3.88 KCAL/MOL
REMARK 922        TOTAL FREE ENERGY PREDICTED BY IDOCK:   -5.41 KCAL/MOL
REMARK 923 INTER-LIGAND FREE ENERGY PREDICTED BY IDOCK:   -4.65 KCAL/MOL
REMARK 924 INTRA-LIGAND FREE ENERGY PREDICTED BY IDOCK:   -0.77 KCAL/MOL
REMARK 927      BINDING AFFINITY PREDICTED BY RF-SCORE:    0.00 PKD
ROOT
HETATM    1  O   UNL     1      -6.232  12.723  70.263  1.00  0.00    -0.330 OA 
HETATM    2  C   UNL     1      -6.769  13.500  69.281  1.00  0.00    -0.080 A  
HETATM    3  H   UNL     1      -6.476  11.810  70.360  1.00  0.00     0.000 HD 
HETATM    4  C   UNL     1      -6.411  14.836  69.139  1.00  0.00    -0.108 A  
HETATM    5  C   UNL     1      -7.001  15.598  68.128  1.00  0.00    -0.127 A  
HETATM    6  C   UNL     1      -7.947  15.025  67.260  1.00  0.00    -0.234 A  
HETATM    7  C   UNL     1      -7.694  12.913  68.424  1.00  0.00    -0.133 A  
HETATM    8  C   UNL     1      -8.286  13.674  67.411  1.00  0.00    -0.198 A  
ENDROOT
BRANCH   6   9
HETATM    9  C   UNL     1      -8.559  15.902  66.224  1.00  0.00    -0.313 C  
HETATM   10  O   UNL     1      -8.099  16.993  65.926  1.00  0.00    -0.494 OA 
BRANCH   9  11
HETATM   11  O   UNL     1      -9.679  15.340  65.712  1.00  0.00    -0.327 OA 
BRANCH  11  12
HETATM   12  C   UNL     1     -10.923  15.913  66.144  1.00  0.00    -0.126 C  
BRANCH  12  13
HETATM   13  C   UNL     1     -11.240  15.448  67.542  1.00  0.00    -0.302 A  
HETATM   14  C   UNL     1     -11.723  14.151  67.769  1.00  0.00    -0.408 A  
HETATM   15  C   UNL     1     -12.003  13.715  69.066  1.00  0.00    -0.392 A  
HETATM   16  C   UNL     1     -11.802  14.569  70.148  1.00  0.00    -0.371 A  
HETATM   17  C   UNL     1     -11.321  15.861  69.936  1.00  0.00    -0.348 A  
HETATM   18  C   UNL     1     -11.043  16.299  68.640  1.00  0.00    -0.356 A  
ENDBRANCH  12  13
ENDBRANCH  11  12
ENDBRANCH   9  11
ENDBRANCH   6   9
TORSDOF 4
ENDMDL
MODEL      157
REMARK 921   NORMALIZED FREE ENERGY PREDICTED BY IDOCK:   -3.87 KCAL/MOL
REMARK 922        TOTAL FREE ENERGY PREDICTED BY IDOCK:   -5.40 KCAL/MOL
REMARK 923 INTER-LIGAND FREE ENERGY PREDICTED BY IDOCK:   -4.56 KCAL/MOL
REMARK 924 INTRA-LIGAND FREE ENERGY PREDICTED BY IDOCK:   -0.84 KCAL/MOL
REMARK 927      BINDING AFFINITY PREDICTED BY RF-SCORE:    0.00 PKD
ROOT
HETATM    1  O   UNL     1     -10.213   5.325  65.675  1.00  0.00    -0.401 OA 
HETATM    2  C   UNL     1     -10.346   5.396  67.029  1.00  0.00    -0.248 A  
HETATM    3  H   UNL     1      -9.658   4.672  65.266  1.00  0.00     0.000 HD 
HETATM    4  C   UNL     1     -11.160   6.351  67.627  1.00  0.00    -0.388 A  
HETATM    5  C   UNL     1     -11.250   6.396  69.020  1.00  0.00    -0.402 A  
HETATM    6  C   UNL     1     -10.529   5.488  69.814  1.00  0.00    -0.389 A  
HETATM    7  C   UNL     1      -9.633   4.481  67.798  1.00  0.00    -0.208 A  
HETATM    8  C   UNL     1      -9.723   4.525  69.194  1.00  0.00    -0.250 A  
ENDROOT
BRANCH   6   9
HETATM    9  C   UNL     1     -10.648   5.612  71.294  1.00  0.00    -0.255 C  
HETATM   10  O   UNL     1     -10.218   4.767  72.063  1.00  0.00    -0.189 OA 
BRANCH   9  11
HETATM   11  O   UNL     1     -11.311   6.741  71.636  1.00  0.00    -0.244 OA 
BRANCH  11  12
HETATM   12  C   UNL     1     -10.592   7.664  72.467  1.00  0.00    -0.281 C  
BRANCH  12  13
HETATM   13  C   UNL     1      -9.596   8.431  71.635  1.00  0.00    -0.288 A  
HETATM   14  C   UNL     1     -10.033   9.307  70.630  1.00  0.00    -0.336 A  
HETATM   15  C   UNL     1      -9.111  10.029  69.870  1.00  0.00    -0.188 A  
HETATM   16  C   UNL     1      -7.745   9.885  70.106  1.00  0.00    -0.188 A  
HETATM   17  C   UNL     1      -7.299   9.018  71.103  1.00  0.00    -0.115 A  
HETATM   18  C   UNL     1      -8.220   8.294  71.862  1.00  0.00    -0.195 A  
ENDBRANCH  12  13
ENDBRANCH  11  12
ENDBRANCH   9  11
ENDBRANCH   6   9
TORSDOF 4
ENDMDL
MODEL      158
REMARK 921   NORMALIZED FREE ENERGY PREDICTED BY IDOCK:   -3.84 KCAL/MOL
REMARK 922        TOTAL FREE ENERGY PREDICTED BY IDOCK:   -5.37 KCAL/MOL
REMARK 923 INTER-LIGAND FREE ENERGY PREDICTED BY IDOCK:   -4.80 KCAL/MOL
REMARK 924 INTRA-LIGAND FREE ENERGY PREDICTED BY IDOCK:   -0.57 KCAL/MOL
REMARK 927      BINDING AFFINITY PREDICTED BY RF-SCORE:    0.00 PKD
ROOT
HETATM    1  O   UNL     1     -13.360   8.731  73.087  1.00  0.00    -0.918 OA 
HETATM    2  C   UNL     1     -12.559   8.988  72.014  1.00  0.00    -0.394 A  
HETATM    3  H   UNL     1     -13.943   9.393  73.438  1.00  0.00     0.000 HD 
HETATM    4  C   UNL     1     -11.705   8.019  71.501  1.00  0.00    -0.321 A  
HETATM    5  C   UNL     1     -10.890   8.334  70.411  1.00  0.00    -0.241 A  
HETATM    6  C   UNL     1     -10.930   9.615  69.835  1.00  0.00    -0.281 A  
HETATM    7  C   UNL     1     -12.620  10.258  71.450  1.00  0.00    -0.539 A  
HETATM    8  C   UNL     1     -11.804  10.576  70.359  1.00  0.00    -0.431 A  
ENDROOT
BRANCH   6   9
HETATM    9  C   UNL     1     -10.012   9.893  68.695  1.00  0.00    -0.164 C  
HETATM   10  O   UNL     1     -10.034  10.942  68.071  1.00  0.00    -0.165 OA 
BRANCH   9  11
HETATM   11  O   UNL     1      -9.211   8.832  68.446  1.00  0.00    -0.138 OA 
BRANCH  11  12
HETATM   12  C   UNL     1      -8.900   8.590  67.065  1.00  0.00    -0.133 C  
BRANCH  12  13
HETATM   13  C   UNL     1      -9.453   7.252  66.644  1.00  0.00    -0.228 A  
HETATM   14  C   UNL     1     -10.754   6.874  67.005  1.00  0.00    -0.432 A  
HETATM   15  C   UNL     1     -11.272   5.641  66.602  1.00  0.00     0.196 A  
HETATM   16  C   UNL     1     -10.496   4.775  65.835  1.00  0.00    -0.313 A  
HETATM   17  C   UNL     1      -9.201   5.140  65.469  1.00  0.00    -0.144 A  
HETATM   18  C   UNL     1      -8.681   6.371  65.872  1.00  0.00    -0.152 A  
ENDBRANCH  12  13
ENDBRANCH  11  12
ENDBRANCH   9  11
ENDBRANCH   6   9
TORSDOF 4
ENDMDL
MODEL      159
REMARK 921   NORMALIZED FREE ENERGY PREDICTED BY IDOCK:   -3.83 KCAL/MOL
REMARK 922        TOTAL FREE ENERGY PREDICTED BY IDOCK:   -5.35 KCAL/MOL
REMARK 923 INTER-LIGAND FREE ENERGY PREDICTED BY IDOCK:   -4.97 KCAL/MOL
REMARK 924 INTRA-LIGAND FREE ENERGY PREDICTED BY IDOCK:   -0.38 KCAL/MOL
REMARK 927      BINDING AFFINITY PREDICTED BY RF-SCORE:    0.00 PKD
ROOT
HETATM    1  O   UNL     1     -10.907   4.221  73.938  1.00  0.00    -0.240 OA 
HETATM    2  C   UNL     1     -11.145   5.447  73.392  1.00  0.00    -0.271 A  
HETATM    3  H   UNL     1     -11.410   3.459  73.679  1.00  0.00     0.000 HD 
HETATM    4  C   UNL     1     -10.409   6.563  73.772  1.00  0.00    -0.346 A  
HETATM    5  C   UNL     1     -10.700   7.802  73.197  1.00  0.00    -0.414 A  
HETATM    6  C   UNL     1     -11.725   7.925  72.244  1.00  0.00    -0.408 A  
HETATM    7  C   UNL     1     -12.156   5.548  72.441  1.00  0.00     0.061 A  
HETATM    8  C   UNL     1     -12.449   6.788  71.864  1.00  0.00    -0.355 A  
ENDROOT
BRANCH   6   9
HETATM    9  C   UNL     1     -12.003   9.281  71.694  1.00  0.00    -0.378 C  
HETATM   10  O   UNL     1     -13.055   9.870  71.890  1.00  0.00    -0.404 OA 
BRANCH   9  11
HETATM   11  O   UNL     1     -10.967   9.724  70.943  1.00  0.00    -0.304 OA 
BRANCH  11  12
HETATM   12  C   UNL     1     -10.842   9.137  69.639  1.00  0.00    -0.197 C  
BRANCH  12  13
HETATM   13  C   UNL     1     -10.761  10.224  68.597  1.00  0.00    -0.255 A  
HETATM   14  C   UNL     1     -10.005  10.037  67.430  1.00  0.00    -0.242 A  
HETATM   15  C   UNL     1      -9.942  11.037  66.458  1.00  0.00    -0.253 A  
HETATM   16  C   UNL     1     -10.633  12.233  66.641  1.00  0.00    -0.257 A  
HETATM   17  C   UNL     1     -11.388  12.431  67.797  1.00  0.00    -0.356 A  
HETATM   18  C   UNL     1     -11.450  11.432  68.770  1.00  0.00    -0.354 A  
ENDBRANCH  12  13
ENDBRANCH  11  12
ENDBRANCH   9  11
ENDBRANCH   6   9
TORSDOF 4
ENDMDL
MODEL      160
REMARK 921   NORMALIZED FREE ENERGY PREDICTED BY IDOCK:   -3.82 KCAL/MOL
REMARK 922        TOTAL FREE ENERGY PREDICTED BY IDOCK:   -5.34 KCAL/MOL
REMARK 923 INTER-LIGAND FREE ENERGY PREDICTED BY IDOCK:   -4.96 KCAL/MOL
REMARK 924 INTRA-LIGAND FREE ENERGY PREDICTED BY IDOCK:   -0.38 KCAL/MOL
REMARK 927      BINDING AFFINITY PREDICTED BY RF-SCORE:    0.00 PKD
ROOT
HETATM    1  O   UNL     1      -9.748  12.702  64.188  1.00  0.00    -0.585 OA 
HETATM    2  C   UNL     1      -9.911  11.588  64.957  1.00  0.00    -0.257 A  
HETATM    3  H   UNL     1      -9.164  12.704  63.439  1.00  0.00     0.000 HD 
HETATM    4  C   UNL     1     -10.765  11.585  66.053  1.00  0.00    -0.332 A  
HETATM    5  C   UNL     1     -10.886  10.425  66.822  1.00  0.00    -0.186 A  
HETATM    6  C   UNL     1     -10.154   9.271  66.495  1.00  0.00    -0.343 A  
HETATM    7  C   UNL     1      -9.187  10.452  64.611  1.00  0.00    -0.282 A  
HETATM    8  C   UNL     1      -9.307   9.289  65.380  1.00  0.00    -0.292 A  
ENDROOT
BRANCH   6   9
HETATM    9  C   UNL     1     -10.307   8.079  67.375  1.00  0.00    -0.284 C  
HETATM   10  O   UNL     1     -11.008   7.125  67.077  1.00  0.00    -0.369 OA 
BRANCH   9  11
HETATM   11  O   UNL     1      -9.607   8.229  68.523  1.00  0.00    -0.146 OA 
BRANCH  11  12
HETATM   12  C   UNL     1      -9.527   7.069  69.366  1.00  0.00    -0.145 C  
BRANCH  12  13
HETATM   13  C   UNL     1     -10.338   7.291  70.617  1.00  0.00    -0.213 A  
HETATM   14  C   UNL     1      -9.731   7.788  71.780  1.00  0.00    -0.206 A  
HETATM   15  C   UNL     1     -10.485   8.008  72.935  1.00  0.00    -0.402 A  
HETATM   16  C   UNL     1     -11.851   7.734  72.939  1.00  0.00    -0.152 A  
HETATM   17  C   UNL     1     -12.466   7.239  71.789  1.00  0.00    -0.378 A  
HETATM   18  C   UNL     1     -11.713   7.017  70.635  1.00  0.00    -0.384 A  
ENDBRANCH  12  13
ENDBRANCH  11  12
ENDBRANCH   9  11
ENDBRANCH   6   9
TORSDOF 4
ENDMDL
MODEL      161
REMARK 921   NORMALIZED FREE ENERGY PREDICTED BY IDOCK:   -3.81 KCAL/MOL
REMARK 922        TOTAL FREE ENERGY PREDICTED BY IDOCK:   -5.32 KCAL/MOL
REMARK 923 INTER-LIGAND FREE ENERGY PREDICTED BY IDOCK:   -4.89 KCAL/MOL
REMARK 924 INTRA-LIGAND FREE ENERGY PREDICTED BY IDOCK:   -0.43 KCAL/MOL
REMARK 927      BINDING AFFINITY PREDICTED BY RF-SCORE:    0.00 PKD
ROOT
HETATM    1  O   UNL     1     -10.453   3.502  64.965  1.00  0.00    -0.422 OA 
HETATM    2  C   UNL     1     -10.057   4.698  65.483  1.00  0.00    -0.183 A  
HETATM    3  H   UNL     1     -11.274   3.099  65.221  1.00  0.00     0.000 HD 
HETATM    4  C   UNL     1      -8.855   5.287  65.107  1.00  0.00    -0.130 A  
HETATM    5  C   UNL     1      -8.483   6.506  65.678  1.00  0.00    -0.146 A  
HETATM    6  C   UNL     1      -9.311   7.135  66.623  1.00  0.00    -0.207 A  
HETATM    7  C   UNL     1     -10.895   5.312  66.408  1.00  0.00    -0.198 A  
HETATM    8  C   UNL     1     -10.524   6.533  66.981  1.00  0.00    -0.364 A  
ENDROOT
BRANCH   6   9
HETATM    9  C   UNL     1      -8.839   8.419  67.215  1.00  0.00    -0.130 C  
HETATM   10  O   UNL     1      -8.491   8.519  68.381  1.00  0.00    -0.135 OA 
BRANCH   9  11
HETATM   11  O   UNL     1      -8.890   9.421  66.307  1.00  0.00    -0.138 OA 
BRANCH  11  12
HETATM   12  C   UNL     1      -9.460  10.656  66.766  1.00  0.00    -0.162 C  
BRANCH  12  13
HETATM   13  C   UNL     1     -10.344  11.240  65.693  1.00  0.00    -0.310 A  
HETATM   14  C   UNL     1     -11.398  12.102  66.030  1.00  0.00    -0.410 A  
HETATM   15  C   UNL     1     -12.207  12.655  65.035  1.00  0.00    -0.535 A  
HETATM   16  C   UNL     1     -11.971  12.353  63.696  1.00  0.00    -0.626 A  
HETATM   17  C   UNL     1     -10.927  11.497  63.349  1.00  0.00    -0.397 A  
HETATM   18  C   UNL     1     -10.118  10.942  64.342  1.00  0.00    -0.402 A  
ENDBRANCH  12  13
ENDBRANCH  11  12
ENDBRANCH   9  11
ENDBRANCH   6   9
TORSDOF 4
ENDMDL
MODEL      162
REMARK 921   NORMALIZED FREE ENERGY PREDICTED BY IDOCK:   -3.81 KCAL/MOL
REMARK 922        TOTAL FREE ENERGY PREDICTED BY IDOCK:   -5.32 KCAL/MOL
REMARK 923 INTER-LIGAND FREE ENERGY PREDICTED BY IDOCK:   -4.74 KCAL/MOL
REMARK 924 INTRA-LIGAND FREE ENERGY PREDICTED BY IDOCK:   -0.58 KCAL/MOL
REMARK 927      BINDING AFFINITY PREDICTED BY RF-SCORE:    0.00 PKD
ROOT
HETATM    1  O   UNL     1     -13.151  14.128  66.066  1.00  0.00    -0.461 OA 
HETATM    2  C   UNL     1     -12.168  13.195  65.913  1.00  0.00    -0.436 A  
HETATM    3  H   UNL     1     -13.739  14.347  65.354  1.00  0.00     0.000 HD 
HETATM    4  C   UNL     1     -11.307  12.875  66.956  1.00  0.00    -0.355 A  
HETATM    5  C   UNL     1     -10.305  11.925  66.747  1.00  0.00    -0.238 A  
HETATM    6  C   UNL     1     -10.164  11.297  65.498  1.00  0.00    -0.312 A  
HETATM    7  C   UNL     1     -12.051  12.576  64.673  1.00  0.00    -0.496 A  
HETATM    8  C   UNL     1     -11.048  11.625  64.462  1.00  0.00    -0.365 A  
ENDROOT
BRANCH   6   9
HETATM    9  C   UNL     1      -9.054  10.317  65.334  1.00  0.00    -0.185 C  
HETATM   10  O   UNL     1      -8.599  10.011  64.243  1.00  0.00    -0.160 OA 
BRANCH   9  11
HETATM   11  O   UNL     1      -8.671   9.812  66.530  1.00  0.00    -0.126 OA 
BRANCH  11  12
HETATM   12  C   UNL     1      -8.490   8.388  66.582  1.00  0.00    -0.111 C  
BRANCH  12  13
HETATM   13  C   UNL     1      -9.455   7.787  67.572  1.00  0.00    -0.170 A  
HETATM   14  C   UNL     1     -10.146   6.605  67.266  1.00  0.00    -0.222 A  
HETATM   15  C   UNL     1     -11.028   6.040  68.190  1.00  0.00    -0.340 A  
HETATM   16  C   UNL     1     -11.228   6.649  69.427  1.00  0.00    -0.356 A  
HETATM   17  C   UNL     1     -10.546   7.823  69.743  1.00  0.00    -0.241 A  
HETATM   18  C   UNL     1      -9.666   8.391  68.820  1.00  0.00    -0.168 A  
ENDBRANCH  12  13
ENDBRANCH  11  12
ENDBRANCH   9  11
ENDBRANCH   6   9
TORSDOF 4
ENDMDL
MODEL      163
REMARK 921   NORMALIZED FREE ENERGY PREDICTED BY IDOCK:   -3.80 KCAL/MOL
REMARK 922        TOTAL FREE ENERGY PREDICTED BY IDOCK:   -5.31 KCAL/MOL
REMARK 923 INTER-LIGAND FREE ENERGY PREDICTED BY IDOCK:   -5.01 KCAL/MOL
REMARK 924 INTRA-LIGAND FREE ENERGY PREDICTED BY IDOCK:   -0.30 KCAL/MOL
REMARK 927      BINDING AFFINITY PREDICTED BY RF-SCORE:    0.00 PKD
ROOT
HETATM    1  O   UNL     1     -12.409  14.373  63.217  1.00  0.00    -1.079 OA 
HETATM    2  C   UNL     1     -12.011  13.502  64.187  1.00  0.00    -0.448 A  
HETATM    3  H   UNL     1     -12.255  14.193  62.297  1.00  0.00     0.000 HD 
HETATM    4  C   UNL     1     -12.237  13.766  65.532  1.00  0.00    -0.470 A  
HETATM    5  C   UNL     1     -11.795  12.852  66.492  1.00  0.00    -0.473 A  
HETATM    6  C   UNL     1     -11.128  11.678  66.107  1.00  0.00    -0.335 A  
HETATM    7  C   UNL     1     -11.362  12.339  63.786  1.00  0.00    -0.534 A  
HETATM    8  C   UNL     1     -10.918  11.423  64.745  1.00  0.00    -0.303 A  
ENDROOT
BRANCH   6   9
HETATM    9  C   UNL     1     -10.656  10.762  67.183  1.00  0.00    -0.256 C  
HETATM   10  O   UNL     1     -11.281  10.578  68.215  1.00  0.00    -0.278 OA 
BRANCH   9  11
HETATM   11  O   UNL     1      -9.458  10.217  66.866  1.00  0.00    -0.162 OA 
BRANCH  11  12
HETATM   12  C   UNL     1      -9.433   8.787  66.737  1.00  0.00    -0.191 C  
BRANCH  12  13
HETATM   13  C   UNL     1      -8.250   8.227  67.485  1.00  0.00    -0.122 A  
HETATM   14  C   UNL     1      -6.942   8.548  67.092  1.00  0.00    -0.075 A  
HETATM   15  C   UNL     1      -5.846   8.042  67.794  1.00  0.00    -0.042 A  
HETATM   16  C   UNL     1      -6.046   7.212  68.895  1.00  0.00    -0.027 A  
HETATM   17  C   UNL     1      -7.341   6.886  69.296  1.00  0.00    -0.092 A  
HETATM   18  C   UNL     1      -8.437   7.390  68.594  1.00  0.00    -0.129 A  
ENDBRANCH  12  13
ENDBRANCH  11  12
ENDBRANCH   9  11
ENDBRANCH   6   9
TORSDOF 4
ENDMDL
MODEL      164
REMARK 921   NORMALIZED FREE ENERGY PREDICTED BY IDOCK:   -3.79 KCAL/MOL
REMARK 922        TOTAL FREE ENERGY PREDICTED BY IDOCK:   -5.30 KCAL/MOL
REMARK 923 INTER-LIGAND FREE ENERGY PREDICTED BY IDOCK:   -4.81 KCAL/MOL
REMARK 924 INTRA-LIGAND FREE ENERGY PREDICTED BY IDOCK:   -0.50 KCAL/MOL
REMARK 927      BINDING AFFINITY PREDICTED BY RF-SCORE:    0.00 PKD
ROOT
HETATM    1  O   UNL     1      -8.360   8.112  66.898  1.00  0.00    -0.112 OA 
HETATM    2  C   UNL     1      -8.703   9.431  66.865  1.00  0.00    -0.127 A  
HETATM    3  H   UNL     1      -8.816   7.469  66.368  1.00  0.00     0.000 HD 
HETATM    4  C   UNL     1      -8.035  10.371  67.641  1.00  0.00    -0.106 A  
HETATM    5  C   UNL     1      -8.434  11.709  67.587  1.00  0.00    -0.142 A  
HETATM    6  C   UNL     1      -9.498  12.105  66.759  1.00  0.00    -0.213 A  
HETATM    7  C   UNL     1      -9.751   9.806  66.031  1.00  0.00    -0.319 A  
HETATM    8  C   UNL     1     -10.152  11.146  65.976  1.00  0.00    -0.292 A  
ENDROOT
BRANCH   6   9
HETATM    9  C   UNL     1      -9.891  13.542  66.773  1.00  0.00    -0.267 C  
HETATM   10  O   UNL     1      -9.085  14.448  66.631  1.00  0.00    -0.260 OA 
BRANCH   9  11
HETATM   11  O   UNL     1     -11.219  13.681  66.994  1.00  0.00    -0.298 OA 
BRANCH  11  12
HETATM   12  C   UNL     1     -11.639  14.948  67.521  1.00  0.00    -0.339 C  
BRANCH  12  13
HETATM   13  C   UNL     1     -11.814  14.846  69.015  1.00  0.00    -0.333 A  
HETATM   14  C   UNL     1     -11.596  15.963  69.836  1.00  0.00    -0.337 A  
HETATM   15  C   UNL     1     -11.773  15.872  71.218  1.00  0.00    -0.504 A  
HETATM   16  C   UNL     1     -12.169  14.667  71.794  1.00  0.00    -0.409 A  
HETATM   17  C   UNL     1     -12.389  13.550  70.988  1.00  0.00    -0.422 A  
HETATM   18  C   UNL     1     -12.211  13.639  69.607  1.00  0.00    -0.326 A  
ENDBRANCH  12  13
ENDBRANCH  11  12
ENDBRANCH   9  11
ENDBRANCH   6   9
TORSDOF 4
ENDMDL
MODEL      165
REMARK 921   NORMALIZED FREE ENERGY PREDICTED BY IDOCK:   -3.78 KCAL/MOL
REMARK 922        TOTAL FREE ENERGY PREDICTED BY IDOCK:   -5.29 KCAL/MOL
REMARK 923 INTER-LIGAND FREE ENERGY PREDICTED BY IDOCK:   -4.44 KCAL/MOL
REMARK 924 INTRA-LIGAND FREE ENERGY PREDICTED BY IDOCK:   -0.84 KCAL/MOL
REMARK 927      BINDING AFFINITY PREDICTED BY RF-SCORE:    0.00 PKD
ROOT
HETATM    1  O   UNL     1     -14.294   9.171  73.305  1.00  0.00    -1.059 OA 
HETATM    2  C   UNL     1     -13.344   8.978  72.347  1.00  0.00    -0.460 A  
HETATM    3  H   UNL     1     -14.702  10.018  73.434  1.00  0.00     0.000 HD 
HETATM    4  C   UNL     1     -12.748   7.737  72.159  1.00  0.00    -0.220 A  
HETATM    5  C   UNL     1     -11.766   7.592  71.176  1.00  0.00    -0.311 A  
HETATM    6  C   UNL     1     -11.382   8.686  70.382  1.00  0.00    -0.203 A  
HETATM    7  C   UNL     1     -12.985  10.070  71.563  1.00  0.00    -0.535 A  
HETATM    8  C   UNL     1     -12.002   9.927  70.578  1.00  0.00    -0.320 A  
ENDROOT
BRANCH   6   9
HETATM    9  C   UNL     1     -10.307   8.470  69.373  1.00  0.00    -0.215 C  
HETATM   10  O   UNL     1     -10.487   7.840  68.343  1.00  0.00    -0.201 OA 
BRANCH   9  11
HETATM   11  O   UNL     1      -9.141   9.025  69.778  1.00  0.00    -0.146 OA 
BRANCH  11  12
HETATM   12  C   UNL     1      -7.982   8.182  69.695  1.00  0.00    -0.115 C  
BRANCH  12  13
HETATM   13  C   UNL     1      -7.935   7.261  70.888  1.00  0.00    -0.098 A  
HETATM   14  C   UNL     1      -8.220   7.746  72.174  1.00  0.00    -0.140 A  
HETATM   15  C   UNL     1      -8.191   6.890  73.277  1.00  0.00    -0.126 A  
HETATM   16  C   UNL     1      -7.880   5.543  73.107  1.00  0.00    -0.101 A  
HETATM   17  C   UNL     1      -7.596   5.049  71.834  1.00  0.00    -0.102 A  
HETATM   18  C   UNL     1      -7.622   5.904  70.731  1.00  0.00    -0.092 A  
ENDBRANCH  12  13
ENDBRANCH  11  12
ENDBRANCH   9  11
ENDBRANCH   6   9
TORSDOF 4
ENDMDL
MODEL      166
REMARK 921   NORMALIZED FREE ENERGY PREDICTED BY IDOCK:   -3.77 KCAL/MOL
REMARK 922        TOTAL FREE ENERGY PREDICTED BY IDOCK:   -5.28 KCAL/MOL
REMARK 923 INTER-LIGAND FREE ENERGY PREDICTED BY IDOCK:   -4.91 KCAL/MOL
REMARK 924 INTRA-LIGAND FREE ENERGY PREDICTED BY IDOCK:   -0.37 KCAL/MOL
REMARK 927      BINDING AFFINITY PREDICTED BY RF-SCORE:    0.00 PKD
ROOT
HETATM    1  O   UNL     1      -7.031  14.050  67.077  1.00  0.00    -0.384 OA 
HETATM    2  C   UNL     1      -8.094  13.342  67.551  1.00  0.00    -0.186 A  
HETATM    3  H   UNL     1      -6.161  13.670  67.041  1.00  0.00     0.000 HD 
HETATM    4  C   UNL     1      -9.367  13.897  67.604  1.00  0.00    -0.205 A  
HETATM    5  C   UNL     1     -10.423  13.139  68.115  1.00  0.00    -0.255 A  
HETATM    6  C   UNL     1     -10.207  11.828  68.572  1.00  0.00    -0.215 A  
HETATM    7  C   UNL     1      -7.863  12.041  67.989  1.00  0.00    -0.145 A  
HETATM    8  C   UNL     1      -8.919  11.280  68.501  1.00  0.00    -0.166 A  
ENDROOT
BRANCH   6   9
HETATM    9  C   UNL     1     -11.371  11.086  69.132  1.00  0.00    -0.280 C  
HETATM   10  O   UNL     1     -12.458  11.049  68.579  1.00  0.00    -0.440 OA 
BRANCH   9  11
HETATM   11  O   UNL     1     -11.058  10.516  70.319  1.00  0.00    -0.298 OA 
BRANCH  11  12
HETATM   12  C   UNL     1     -12.111   9.778  70.958  1.00  0.00    -0.346 C  
BRANCH  12  13
HETATM   13  C   UNL     1     -11.633   8.387  71.286  1.00  0.00    -0.326 A  
HETATM   14  C   UNL     1     -11.331   8.030  72.609  1.00  0.00    -0.469 A  
HETATM   15  C   UNL     1     -10.903   6.736  72.914  1.00  0.00    -0.304 A  
HETATM   16  C   UNL     1     -10.773   5.787  71.903  1.00  0.00    -0.297 A  
HETATM   17  C   UNL     1     -11.070   6.129  70.585  1.00  0.00    -0.384 A  
HETATM   18  C   UNL     1     -11.496   7.422  70.277  1.00  0.00    -0.206 A  
ENDBRANCH  12  13
ENDBRANCH  11  12
ENDBRANCH   9  11
ENDBRANCH   6   9
TORSDOF 4
ENDMDL
MODEL      167
REMARK 921   NORMALIZED FREE ENERGY PREDICTED BY IDOCK:   -3.77 KCAL/MOL
REMARK 922        TOTAL FREE ENERGY PREDICTED BY IDOCK:   -5.27 KCAL/MOL
REMARK 923 INTER-LIGAND FREE ENERGY PREDICTED BY IDOCK:   -5.10 KCAL/MOL
REMARK 924 INTRA-LIGAND FREE ENERGY PREDICTED BY IDOCK:   -0.17 KCAL/MOL
REMARK 927      BINDING AFFINITY PREDICTED BY RF-SCORE:    0.00 PKD
ROOT
HETATM    1  O   UNL     1      -6.917  11.675  69.352  1.00  0.00    -0.203 OA 
HETATM    2  C   UNL     1      -7.801  12.258  68.493  1.00  0.00    -0.111 A  
HETATM    3  H   UNL     1      -6.811  10.732  69.387  1.00  0.00     0.000 HD 
HETATM    4  C   UNL     1      -7.954  13.639  68.441  1.00  0.00    -0.147 A  
HETATM    5  C   UNL     1      -8.886  14.189  67.557  1.00  0.00    -0.202 A  
HETATM    6  C   UNL     1      -9.660  13.362  66.727  1.00  0.00    -0.262 A  
HETATM    7  C   UNL     1      -8.551  11.424  67.671  1.00  0.00    -0.130 A  
HETATM    8  C   UNL     1      -9.483  11.973  66.785  1.00  0.00    -0.212 A  
ENDROOT
BRANCH   6   9
HETATM    9  C   UNL     1     -10.656  14.013  65.831  1.00  0.00    -0.301 C  
HETATM   10  O   UNL     1     -11.114  13.462  64.843  1.00  0.00    -0.310 OA 
BRANCH   9  11
HETATM   11  O   UNL     1     -10.932  15.272  66.244  1.00  0.00    -0.322 OA 
BRANCH  11  12
HETATM   12  C   UNL     1     -10.211  16.323  65.583  1.00  0.00    -0.343 C  
BRANCH  12  13
HETATM   13  C   UNL     1     -10.199  17.557  66.449  1.00  0.00    -0.354 A  
HETATM   14  C   UNL     1      -9.779  17.485  67.785  1.00  0.00    -0.274 A  
HETATM   15  C   UNL     1      -9.753  18.631  68.583  1.00  0.00    -0.418 A  
HETATM   16  C   UNL     1     -10.145  19.858  68.054  1.00  0.00    -0.572 A  
HETATM   17  C   UNL     1     -10.565  19.943  66.727  1.00  0.00    -0.536 A  
HETATM   18  C   UNL     1     -10.593  18.798  65.929  1.00  0.00    -0.405 A  
ENDBRANCH  12  13
ENDBRANCH  11  12
ENDBRANCH   9  11
ENDBRANCH   6   9
TORSDOF 4
ENDMDL
MODEL      168
REMARK 921   NORMALIZED FREE ENERGY PREDICTED BY IDOCK:   -3.76 KCAL/MOL
REMARK 922        TOTAL FREE ENERGY PREDICTED BY IDOCK:   -5.27 KCAL/MOL
REMARK 923 INTER-LIGAND FREE ENERGY PREDICTED BY IDOCK:   -4.46 KCAL/MOL
REMARK 924 INTRA-LIGAND FREE ENERGY PREDICTED BY IDOCK:   -0.80 KCAL/MOL
REMARK 927      BINDING AFFINITY PREDICTED BY RF-SCORE:    0.00 PKD
ROOT
HETATM    1  O   UNL     1     -11.159  15.803  64.725  1.00  0.00    -0.498 OA 
HETATM    2  C   UNL     1     -11.338  14.873  65.705  1.00  0.00    -0.314 A  
HETATM    3  H   UNL     1     -11.459  15.650  63.838  1.00  0.00     0.000 HD 
HETATM    4  C   UNL     1     -10.899  15.098  67.005  1.00  0.00    -0.314 A  
HETATM    5  C   UNL     1     -11.088  14.108  67.971  1.00  0.00    -0.285 A  
HETATM    6  C   UNL     1     -11.716  12.895  67.640  1.00  0.00    -0.422 A  
HETATM    7  C   UNL     1     -11.971  13.683  65.361  1.00  0.00    -0.400 A  
HETATM    8  C   UNL     1     -12.162  12.690  66.328  1.00  0.00    -0.225 A  
ENDROOT
BRANCH   6   9
HETATM    9  C   UNL     1     -11.859  11.871  68.712  1.00  0.00    -0.313 C  
HETATM   10  O   UNL     1     -11.949  12.161  69.894  1.00  0.00    -0.319 OA 
BRANCH   9  11
HETATM   11  O   UNL     1     -11.837  10.620  68.195  1.00  0.00    -0.482 OA 
BRANCH  11  12
HETATM   12  C   UNL     1     -10.869   9.724  68.761  1.00  0.00    -0.188 C  
BRANCH  12  13
HETATM   13  C   UNL     1      -9.481  10.149  68.353  1.00  0.00    -0.147 A  
HETATM   14  C   UNL     1      -8.567  10.611  69.312  1.00  0.00    -0.096 A  
HETATM   15  C   UNL     1      -7.277  10.990  68.937  1.00  0.00    -0.103 A  
HETATM   16  C   UNL     1      -6.886  10.911  67.603  1.00  0.00    -0.081 A  
HETATM   17  C   UNL     1      -7.785  10.452  66.640  1.00  0.00    -0.117 A  
HETATM   18  C   UNL     1      -9.076  10.075  67.013  1.00  0.00    -0.159 A  
ENDBRANCH  12  13
ENDBRANCH  11  12
ENDBRANCH   9  11
ENDBRANCH   6   9
TORSDOF 4
ENDMDL
MODEL      169
REMARK 921   NORMALIZED FREE ENERGY PREDICTED BY IDOCK:   -3.76 KCAL/MOL
REMARK 922        TOTAL FREE ENERGY PREDICTED BY IDOCK:   -5.27 KCAL/MOL
REMARK 923 INTER-LIGAND FREE ENERGY PREDICTED BY IDOCK:   -4.94 KCAL/MOL
REMARK 924 INTRA-LIGAND FREE ENERGY PREDICTED BY IDOCK:   -0.33 KCAL/MOL
REMARK 927      BINDING AFFINITY PREDICTED BY RF-SCORE:    0.00 PKD
ROOT
HETATM    1  O   UNL     1     -10.745  16.019  66.945  1.00  0.00    -0.314 OA 
HETATM    2  C   UNL     1     -10.938  14.883  67.674  1.00  0.00    -0.300 A  
HETATM    3  H   UNL     1     -11.249  16.806  67.114  1.00  0.00     0.000 HD 
HETATM    4  C   UNL     1     -10.201  13.731  67.426  1.00  0.00    -0.252 A  
HETATM    5  C   UNL     1     -10.446  12.586  68.187  1.00  0.00    -0.238 A  
HETATM    6  C   UNL     1     -11.426  12.593  69.194  1.00  0.00    -0.359 A  
HETATM    7  C   UNL     1     -11.905  14.912  68.674  1.00  0.00    -0.332 A  
HETATM    8  C   UNL     1     -12.152  13.766  69.437  1.00  0.00    -0.377 A  
ENDROOT
BRANCH   6   9
HETATM    9  C   UNL     1     -11.658  11.329  69.948  1.00  0.00    -0.334 C  
HETATM   10  O   UNL     1     -12.679  11.116  70.581  1.00  0.00    -0.313 OA 
BRANCH   9  11
HETATM   11  O   UNL     1     -10.588  10.504  69.854  1.00  0.00    -0.259 OA 
BRANCH  11  12
HETATM   12  C   UNL     1     -10.864   9.167  69.412  1.00  0.00    -0.151 C  
BRANCH  12  13
HETATM   13  C   UNL     1     -10.593   8.193  70.531  1.00  0.00    -0.228 A  
HETATM   14  C   UNL     1     -10.194   8.654  71.795  1.00  0.00    -0.378 A  
HETATM   15  C   UNL     1      -9.958   7.754  72.836  1.00  0.00    -0.341 A  
HETATM   16  C   UNL     1     -10.119   6.386  72.625  1.00  0.00    -0.193 A  
HETATM   17  C   UNL     1     -10.515   5.916  71.374  1.00  0.00    -0.291 A  
HETATM   18  C   UNL     1     -10.750   6.814  70.332  1.00  0.00    -0.281 A  
ENDBRANCH  12  13
ENDBRANCH  11  12
ENDBRANCH   9  11
ENDBRANCH   6   9
TORSDOF 4
ENDMDL
MODEL      170
REMARK 921   NORMALIZED FREE ENERGY PREDICTED BY IDOCK:   -3.76 KCAL/MOL
REMARK 922        TOTAL FREE ENERGY PREDICTED BY IDOCK:   -5.26 KCAL/MOL
REMARK 923 INTER-LIGAND FREE ENERGY PREDICTED BY IDOCK:   -4.83 KCAL/MOL
REMARK 924 INTRA-LIGAND FREE ENERGY PREDICTED BY IDOCK:   -0.43 KCAL/MOL
REMARK 927      BINDING AFFINITY PREDICTED BY RF-SCORE:    0.00 PKD
ROOT
HETATM    1  O   UNL     1     -10.178  18.571  67.909  1.00  0.00    -0.347 OA 
HETATM    2  C   UNL     1      -9.956  17.226  67.890  1.00  0.00    -0.297 A  
HETATM    3  H   UNL     1      -9.827  19.139  67.234  1.00  0.00     0.000 HD 
HETATM    4  C   UNL     1     -10.470  16.395  68.879  1.00  0.00    -0.285 A  
HETATM    5  C   UNL     1     -10.202  15.025  68.827  1.00  0.00    -0.235 A  
HETATM    6  C   UNL     1      -9.423  14.487  67.789  1.00  0.00    -0.210 A  
HETATM    7  C   UNL     1      -9.192  16.710  66.849  1.00  0.00    -0.245 A  
HETATM    8  C   UNL     1      -8.923  15.338  66.795  1.00  0.00    -0.291 A  
ENDROOT
BRANCH   6   9
HETATM    9  C   UNL     1      -9.150  13.023  67.811  1.00  0.00    -0.200 C  
HETATM   10  O   UNL     1      -8.307  12.519  68.535  1.00  0.00    -0.147 OA 
BRANCH   9  11
HETATM   11  O   UNL     1      -9.926  12.370  66.913  1.00  0.00    -0.210 OA 
BRANCH  11  12
HETATM   12  C   UNL     1     -11.316  12.253  67.253  1.00  0.00    -0.328 C  
BRANCH  12  13
HETATM   13  C   UNL     1     -11.466  11.446  68.517  1.00  0.00    -0.361 A  
HETATM   14  C   UNL     1     -12.023  12.022  69.669  1.00  0.00    -0.360 A  
HETATM   15  C   UNL     1     -12.176  11.269  70.835  1.00  0.00    -0.460 A  
HETATM   16  C   UNL     1     -11.775   9.936  70.863  1.00  0.00    -0.449 A  
HETATM   17  C   UNL     1     -11.220   9.352  69.725  1.00  0.00    -0.139 A  
HETATM   18  C   UNL     1     -11.065  10.103  68.559  1.00  0.00    -0.266 A  
ENDBRANCH  12  13
ENDBRANCH  11  12
ENDBRANCH   9  11
ENDBRANCH   6   9
TORSDOF 4
ENDMDL
MODEL      171
REMARK 921   NORMALIZED FREE ENERGY PREDICTED BY IDOCK:   -3.74 KCAL/MOL
REMARK 922        TOTAL FREE ENERGY PREDICTED BY IDOCK:   -5.23 KCAL/MOL
REMARK 923 INTER-LIGAND FREE ENERGY PREDICTED BY IDOCK:   -4.51 KCAL/MOL
REMARK 924 INTRA-LIGAND FREE ENERGY PREDICTED BY IDOCK:   -0.72 KCAL/MOL
REMARK 927      BINDING AFFINITY PREDICTED BY RF-SCORE:    0.00 PKD
ROOT
HETATM    1  O   UNL     1      -7.053  10.023  64.530  1.00  0.00    -0.133 OA 
HETATM    2  C   UNL     1      -8.103  10.436  65.295  1.00  0.00    -0.152 A  
HETATM    3  H   UNL     1      -7.096  10.037  63.582  1.00  0.00     0.000 HD 
HETATM    4  C   UNL     1      -8.039  10.415  66.683  1.00  0.00    -0.122 A  
HETATM    5  C   UNL     1      -9.147  10.833  67.424  1.00  0.00    -0.148 A  
HETATM    6  C   UNL     1     -10.316  11.270  66.779  1.00  0.00    -0.278 A  
HETATM    7  C   UNL     1      -9.248  10.877  64.638  1.00  0.00    -0.223 A  
HETATM    8  C   UNL     1     -10.358  11.295  65.379  1.00  0.00    -0.328 A  
ENDROOT
BRANCH   6   9
HETATM    9  C   UNL     1     -11.471  11.672  67.630  1.00  0.00    -0.303 C  
HETATM   10  O   UNL     1     -12.156  10.865  68.237  1.00  0.00    -0.562 OA 
BRANCH   9  11
HETATM   11  O   UNL     1     -11.655  13.013  67.597  1.00  0.00    -0.312 OA 
BRANCH  11  12
HETATM   12  C   UNL     1     -10.993  13.763  68.626  1.00  0.00    -0.266 C  
BRANCH  12  13
HETATM   13  C   UNL     1     -10.304  14.960  68.022  1.00  0.00    -0.244 A  
HETATM   14  C   UNL     1      -9.104  14.807  67.311  1.00  0.00    -0.214 A  
HETATM   15  C   UNL     1      -8.473  15.914  66.738  1.00  0.00    -0.297 A  
HETATM   16  C   UNL     1      -9.035  17.182  66.868  1.00  0.00    -0.253 A  
HETATM   17  C   UNL     1     -10.228  17.347  67.571  1.00  0.00    -0.332 A  
HETATM   18  C   UNL     1     -10.858  16.242  68.146  1.00  0.00    -0.342 A  
ENDBRANCH  12  13
ENDBRANCH  11  12
ENDBRANCH   9  11
ENDBRANCH   6   9
TORSDOF 4
ENDMDL
MODEL      172
REMARK 921   NORMALIZED FREE ENERGY PREDICTED BY IDOCK:   -3.72 KCAL/MOL
REMARK 922        TOTAL FREE ENERGY PREDICTED BY IDOCK:   -5.21 KCAL/MOL
REMARK 923 INTER-LIGAND FREE ENERGY PREDICTED BY IDOCK:   -5.05 KCAL/MOL
REMARK 924 INTRA-LIGAND FREE ENERGY PREDICTED BY IDOCK:   -0.16 KCAL/MOL
REMARK 927      BINDING AFFINITY PREDICTED BY RF-SCORE:    0.00 PKD
ROOT
HETATM    1  O   UNL     1     -13.967  12.035  72.220  1.00  0.00    -0.268 OA 
HETATM    2  C   UNL     1     -13.201  11.047  71.677  1.00  0.00    -0.357 A  
HETATM    3  H   UNL     1     -13.865  12.941  71.957  1.00  0.00     0.000 HD 
HETATM    4  C   UNL     1     -13.352   9.720  72.062  1.00  0.00    -0.547 A  
HETATM    5  C   UNL     1     -12.532   8.745  71.490  1.00  0.00    -0.374 A  
HETATM    6  C   UNL     1     -11.563   9.096  70.535  1.00  0.00    -0.238 A  
HETATM    7  C   UNL     1     -12.255  11.412  70.724  1.00  0.00    -0.475 A  
HETATM    8  C   UNL     1     -11.433  10.436  70.150  1.00  0.00    -0.396 A  
ENDROOT
BRANCH   6   9
HETATM    9  C   UNL     1     -10.701   8.010  69.988  1.00  0.00    -0.244 C  
HETATM   10  O   UNL     1     -10.752   6.860  70.394  1.00  0.00    -0.229 OA 
BRANCH   9  11
HETATM   11  O   UNL     1      -9.863   8.487  69.039  1.00  0.00    -0.174 OA 
BRANCH  11  12
HETATM   12  C   UNL     1     -10.389   8.534  67.703  1.00  0.00    -0.253 C  
BRANCH  12  13
HETATM   13  C   UNL     1      -9.934   7.321  66.933  1.00  0.00    -0.302 A  
HETATM   14  C   UNL     1     -10.732   6.169  66.882  1.00  0.00    -0.413 A  
HETATM   15  C   UNL     1     -10.317   5.050  66.155  1.00  0.00    -0.309 A  
HETATM   16  C   UNL     1      -9.103   5.073  65.473  1.00  0.00    -0.159 A  
HETATM   17  C   UNL     1      -8.301   6.212  65.516  1.00  0.00    -0.147 A  
HETATM   18  C   UNL     1      -8.713   7.330  66.243  1.00  0.00    -0.162 A  
ENDBRANCH  12  13
ENDBRANCH  11  12
ENDBRANCH   9  11
ENDBRANCH   6   9
TORSDOF 4
ENDMDL
MODEL      173
REMARK 921   NORMALIZED FREE ENERGY PREDICTED BY IDOCK:   -3.70 KCAL/MOL
REMARK 922        TOTAL FREE ENERGY PREDICTED BY IDOCK:   -5.19 KCAL/MOL
REMARK 923 INTER-LIGAND FREE ENERGY PREDICTED BY IDOCK:   -4.88 KCAL/MOL
REMARK 924 INTRA-LIGAND FREE ENERGY PREDICTED BY IDOCK:   -0.31 KCAL/MOL
REMARK 927      BINDING AFFINITY PREDICTED BY RF-SCORE:    0.00 PKD
ROOT
HETATM    1  O   UNL     1     -13.809   9.281  72.790  1.00  0.00    -0.736 OA 
HETATM    2  C   UNL     1     -12.810   9.266  71.864  1.00  0.00    -0.404 A  
HETATM    3  H   UNL     1     -14.327  10.061  72.947  1.00  0.00     0.000 HD 
HETATM    4  C   UNL     1     -12.053   8.123  71.634  1.00  0.00    -0.342 A  
HETATM    5  C   UNL     1     -11.027   8.162  70.687  1.00  0.00    -0.255 A  
HETATM    6  C   UNL     1     -10.760   9.340  69.970  1.00  0.00    -0.259 A  
HETATM    7  C   UNL     1     -12.567  10.438  71.155  1.00  0.00    -0.512 A  
HETATM    8  C   UNL     1     -11.541  10.479  70.205  1.00  0.00    -0.417 A  
ENDROOT
BRANCH   6   9
HETATM    9  C   UNL     1      -9.632   9.320  68.996  1.00  0.00    -0.159 C  
HETATM   10  O   UNL     1      -8.491   9.027  69.314  1.00  0.00    -0.122 OA 
BRANCH   9  11
HETATM   11  O   UNL     1     -10.047   9.697  67.764  1.00  0.00    -0.166 OA 
BRANCH  11  12
HETATM   12  C   UNL     1      -9.381  10.836  67.199  1.00  0.00    -0.155 C  
BRANCH  12  13
HETATM   13  C   UNL     1      -9.113  10.596  65.735  1.00  0.00    -0.208 A  
HETATM   14  C   UNL     1      -7.826  10.257  65.292  1.00  0.00    -0.145 A  
HETATM   15  C   UNL     1      -7.581  10.019  63.938  1.00  0.00    -0.138 A  
HETATM   16  C   UNL     1      -8.619  10.118  63.014  1.00  0.00    -0.192 A  
HETATM   17  C   UNL     1      -9.902  10.454  63.441  1.00  0.00    -0.251 A  
HETATM   18  C   UNL     1     -10.148  10.694  64.794  1.00  0.00    -0.412 A  
ENDBRANCH  12  13
ENDBRANCH  11  12
ENDBRANCH   9  11
ENDBRANCH   6   9
TORSDOF 4
ENDMDL
MODEL      174
REMARK 921   NORMALIZED FREE ENERGY PREDICTED BY IDOCK:   -3.68 KCAL/MOL
REMARK 922        TOTAL FREE ENERGY PREDICTED BY IDOCK:   -5.16 KCAL/MOL
REMARK 923 INTER-LIGAND FREE ENERGY PREDICTED BY IDOCK:   -4.77 KCAL/MOL
REMARK 924 INTRA-LIGAND FREE ENERGY PREDICTED BY IDOCK:   -0.39 KCAL/MOL
REMARK 927      BINDING AFFINITY PREDICTED BY RF-SCORE:    0.00 PKD
ROOT
HETATM    1  O   UNL     1      -7.131   1.589  69.132  1.00  0.00    -0.036 OA 
HETATM    2  C   UNL     1      -8.028   2.603  69.292  1.00  0.00    -0.044 A  
HETATM    3  H   UNL     1      -6.873   1.038  69.860  1.00  0.00     0.000 HD 
HETATM    4  C   UNL     1      -8.406   3.409  68.225  1.00  0.00    -0.097 A  
HETATM    5  C   UNL     1      -9.316   4.447  68.442  1.00  0.00    -0.203 A  
HETATM    6  C   UNL     1      -9.847   4.677  69.722  1.00  0.00    -0.296 A  
HETATM    7  C   UNL     1      -8.553   2.808  70.564  1.00  0.00    -0.108 A  
HETATM    8  C   UNL     1      -9.464   3.846  70.783  1.00  0.00    -0.233 A  
ENDROOT
BRANCH   6   9
HETATM    9  C   UNL     1     -10.789   5.819  69.889  1.00  0.00    -0.347 C  
HETATM   10  O   UNL     1     -11.483   6.241  68.978  1.00  0.00    -0.363 OA 
BRANCH   9  11
HETATM   11  O   UNL     1     -10.730   6.318  71.146  1.00  0.00    -0.229 OA 
BRANCH  11  12
HETATM   12  C   UNL     1     -10.057   7.578  71.290  1.00  0.00    -0.187 C  
BRANCH  12  13
HETATM   13  C   UNL     1     -11.058   8.702  71.215  1.00  0.00    -0.336 A  
HETATM   14  C   UNL     1     -12.154   8.741  72.090  1.00  0.00    -0.441 A  
HETATM   15  C   UNL     1     -13.073   9.791  72.031  1.00  0.00    -0.546 A  
HETATM   16  C   UNL     1     -12.906  10.812  71.098  1.00  0.00    -0.513 A  
HETATM   17  C   UNL     1     -11.822  10.785  70.222  1.00  0.00    -0.438 A  
HETATM   18  C   UNL     1     -10.903   9.735  70.279  1.00  0.00    -0.356 A  
ENDBRANCH  12  13
ENDBRANCH  11  12
ENDBRANCH   9  11
ENDBRANCH   6   9
TORSDOF 4
ENDMDL
MODEL      175
REMARK 921   NORMALIZED FREE ENERGY PREDICTED BY IDOCK:   -3.67 KCAL/MOL
REMARK 922        TOTAL FREE ENERGY PREDICTED BY IDOCK:   -5.15 KCAL/MOL
REMARK 923 INTER-LIGAND FREE ENERGY PREDICTED BY IDOCK:   -4.23 KCAL/MOL
REMARK 924 INTRA-LIGAND FREE ENERGY PREDICTED BY IDOCK:   -0.92 KCAL/MOL
REMARK 927      BINDING AFFINITY PREDICTED BY RF-SCORE:    0.00 PKD
ROOT
HETATM    1  O   UNL     1     -10.667  14.695  68.952  1.00  0.00    -0.234 OA 
HETATM    2  C   UNL     1     -10.510  13.606  68.148  1.00  0.00    -0.247 A  
HETATM    3  H   UNL     1     -11.423  14.786  69.520  1.00  0.00     0.000 HD 
HETATM    4  C   UNL     1      -9.404  13.474  67.317  1.00  0.00    -0.233 A  
HETATM    5  C   UNL     1      -9.296  12.348  66.498  1.00  0.00    -0.233 A  
HETATM    6  C   UNL     1     -10.290  11.356  66.510  1.00  0.00    -0.277 A  
HETATM    7  C   UNL     1     -11.500  12.629  68.182  1.00  0.00    -0.359 A  
HETATM    8  C   UNL     1     -11.393  11.500  67.362  1.00  0.00    -0.367 A  
ENDROOT
BRANCH   6   9
HETATM    9  C   UNL     1     -10.127  10.196  65.589  1.00  0.00    -0.254 C  
HETATM   10  O   UNL     1      -9.997  10.325  64.382  1.00  0.00    -0.335 OA 
BRANCH   9  11
HETATM   11  O   UNL     1     -10.180   9.026  66.267  1.00  0.00    -0.284 OA 
BRANCH  11  12
HETATM   12  C   UNL     1      -9.003   8.679  67.012  1.00  0.00    -0.133 C  
BRANCH  12  13
HETATM   13  C   UNL     1      -9.310   8.698  68.488  1.00  0.00    -0.138 A  
HETATM   14  C   UNL     1      -8.473   9.384  69.381  1.00  0.00    -0.142 A  
HETATM   15  C   UNL     1      -8.766   9.415  70.746  1.00  0.00    -0.216 A  
HETATM   16  C   UNL     1      -9.897   8.762  71.232  1.00  0.00    -0.336 A  
HETATM   17  C   UNL     1     -10.736   8.077  70.355  1.00  0.00    -0.233 A  
HETATM   18  C   UNL     1     -10.444   8.044  68.990  1.00  0.00    -0.212 A  
ENDBRANCH  12  13
ENDBRANCH  11  12
ENDBRANCH   9  11
ENDBRANCH   6   9
TORSDOF 4
ENDMDL
MODEL      176
REMARK 921   NORMALIZED FREE ENERGY PREDICTED BY IDOCK:   -3.65 KCAL/MOL
REMARK 922        TOTAL FREE ENERGY PREDICTED BY IDOCK:   -5.13 KCAL/MOL
REMARK 923 INTER-LIGAND FREE ENERGY PREDICTED BY IDOCK:   -4.45 KCAL/MOL
REMARK 924 INTRA-LIGAND FREE ENERGY PREDICTED BY IDOCK:   -0.68 KCAL/MOL
REMARK 927      BINDING AFFINITY PREDICTED BY RF-SCORE:    0.00 PKD
ROOT
HETATM    1  O   UNL     1      -6.101  13.907  69.497  1.00  0.00    -0.098 OA 
HETATM    2  C   UNL     1      -7.089  14.637  68.907  1.00  0.00    -0.117 A  
HETATM    3  H   UNL     1      -5.566  13.303  68.995  1.00  0.00     0.000 HD 
HETATM    4  C   UNL     1      -7.871  15.521  69.641  1.00  0.00    -0.128 A  
HETATM    5  C   UNL     1      -8.884  16.234  68.996  1.00  0.00    -0.243 A  
HETATM    6  C   UNL     1      -9.114  16.065  67.620  1.00  0.00    -0.200 A  
HETATM    7  C   UNL     1      -7.295  14.464  67.542  1.00  0.00    -0.208 A  
HETATM    8  C   UNL     1      -8.309  15.178  66.894  1.00  0.00    -0.267 A  
ENDROOT
BRANCH   6   9
HETATM    9  C   UNL     1     -10.230  16.834  67.002  1.00  0.00    -0.292 C  
HETATM   10  O   UNL     1     -10.487  17.987  67.310  1.00  0.00    -0.370 OA 
BRANCH   9  11
HETATM   11  O   UNL     1     -10.910  16.074  66.111  1.00  0.00    -0.281 OA 
BRANCH  11  12
HETATM   12  C   UNL     1     -11.745  15.048  66.669  1.00  0.00    -0.139 C  
BRANCH  12  13
HETATM   13  C   UNL     1     -11.427  13.724  66.024  1.00  0.00    -0.336 A  
HETATM   14  C   UNL     1     -11.076  13.659  64.667  1.00  0.00    -0.387 A  
HETATM   15  C   UNL     1     -10.766  12.434  64.073  1.00  0.00    -0.441 A  
HETATM   16  C   UNL     1     -10.802  11.263  64.827  1.00  0.00    -0.314 A  
HETATM   17  C   UNL     1     -11.149  11.315  66.176  1.00  0.00    -0.207 A  
HETATM   18  C   UNL     1     -11.461  12.538  66.771  1.00  0.00    -0.422 A  
ENDBRANCH  12  13
ENDBRANCH  11  12
ENDBRANCH   9  11
ENDBRANCH   6   9
TORSDOF 4
ENDMDL
MODEL      177
REMARK 921   NORMALIZED FREE ENERGY PREDICTED BY IDOCK:   -3.64 KCAL/MOL
REMARK 922        TOTAL FREE ENERGY PREDICTED BY IDOCK:   -5.11 KCAL/MOL
REMARK 923 INTER-LIGAND FREE ENERGY PREDICTED BY IDOCK:   -4.19 KCAL/MOL
REMARK 924 INTRA-LIGAND FREE ENERGY PREDICTED BY IDOCK:   -0.92 KCAL/MOL
REMARK 927      BINDING AFFINITY PREDICTED BY RF-SCORE:    0.00 PKD
ROOT
HETATM    1  O   UNL     1      -6.496  10.436  69.462  1.00  0.00    -0.050 OA 
HETATM    2  C   UNL     1      -7.492   9.851  70.185  1.00  0.00    -0.170 A  
HETATM    3  H   UNL     1      -5.582  10.311  69.688  1.00  0.00     0.000 HD 
HETATM    4  C   UNL     1      -8.829  10.033  69.853  1.00  0.00    -0.177 A  
HETATM    5  C   UNL     1      -9.816   9.428  70.635  1.00  0.00    -0.340 A  
HETATM    6  C   UNL     1      -9.467   8.643  71.746  1.00  0.00    -0.354 A  
HETATM    7  C   UNL     1      -7.127   9.068  71.275  1.00  0.00    -0.093 A  
HETATM    8  C   UNL     1      -8.114   8.462  72.060  1.00  0.00    -0.194 A  
ENDROOT
BRANCH   6   9
HETATM    9  C   UNL     1     -10.570   8.053  72.555  1.00  0.00    -0.329 C  
HETATM   10  O   UNL     1     -10.468   7.837  73.752  1.00  0.00    -0.152 OA 
BRANCH   9  11
HETATM   11  O   UNL     1     -11.644   7.771  71.780  1.00  0.00    -0.255 OA 
BRANCH  11  12
HETATM   12  C   UNL     1     -11.893   6.379  71.535  1.00  0.00    -0.298 C  
BRANCH  12  13
HETATM   13  C   UNL     1     -11.065   5.911  70.365  1.00  0.00    -0.353 A  
HETATM   14  C   UNL     1     -10.087   4.920  70.536  1.00  0.00    -0.312 A  
HETATM   15  C   UNL     1      -9.331   4.475  69.449  1.00  0.00    -0.217 A  
HETATM   16  C   UNL     1      -9.545   5.014  68.182  1.00  0.00    -0.182 A  
HETATM   17  C   UNL     1     -10.515   5.999  68.000  1.00  0.00    -0.291 A  
HETATM   18  C   UNL     1     -11.270   6.446  69.085  1.00  0.00    -0.421 A  
ENDBRANCH  12  13
ENDBRANCH  11  12
ENDBRANCH   9  11
ENDBRANCH   6   9
TORSDOF 4
ENDMDL
MODEL      178
REMARK 921   NORMALIZED FREE ENERGY PREDICTED BY IDOCK:   -3.61 KCAL/MOL
REMARK 922        TOTAL FREE ENERGY PREDICTED BY IDOCK:   -5.08 KCAL/MOL
REMARK 923 INTER-LIGAND FREE ENERGY PREDICTED BY IDOCK:   -4.59 KCAL/MOL
REMARK 924 INTRA-LIGAND FREE ENERGY PREDICTED BY IDOCK:   -0.48 KCAL/MOL
REMARK 927      BINDING AFFINITY PREDICTED BY RF-SCORE:    0.00 PKD
ROOT
HETATM    1  O   UNL     1      -9.639   9.488  63.356  1.00  0.00    -0.481 OA 
HETATM    2  C   UNL     1      -9.134   9.661  64.611  1.00  0.00    -0.235 A  
HETATM    3  H   UNL     1      -9.116   9.669  62.584  1.00  0.00     0.000 HD 
HETATM    4  C   UNL     1      -9.900   9.396  65.740  1.00  0.00    -0.345 A  
HETATM    5  C   UNL     1      -9.346   9.604  67.005  1.00  0.00    -0.180 A  
HETATM    6  C   UNL     1      -8.029  10.075  67.141  1.00  0.00    -0.109 A  
HETATM    7  C   UNL     1      -7.825  10.117  64.725  1.00  0.00    -0.146 A  
HETATM    8  C   UNL     1      -7.269  10.326  65.992  1.00  0.00    -0.128 A  
ENDROOT
BRANCH   6   9
HETATM    9  C   UNL     1      -7.511  10.304  68.519  1.00  0.00    -0.084 C  
HETATM   10  O   UNL     1      -6.320  10.389  68.770  1.00  0.00    -0.047 OA 
BRANCH   9  11
HETATM   11  O   UNL     1      -8.524  10.364  69.415  1.00  0.00    -0.161 OA 
BRANCH  11  12
HETATM   12  C   UNL     1      -8.492   9.384  70.464  1.00  0.00    -0.212 C  
BRANCH  12  13
HETATM   13  C   UNL     1      -9.871   9.224  71.054  1.00  0.00    -0.355 A  
HETATM   14  C   UNL     1     -10.097   8.314  72.097  1.00  0.00    -0.344 A  
HETATM   15  C   UNL     1     -11.371   8.177  72.654  1.00  0.00    -0.450 A  
HETATM   16  C   UNL     1     -12.428   8.948  72.176  1.00  0.00    -0.459 A  
HETATM   17  C   UNL     1     -12.215   9.856  71.139  1.00  0.00    -0.468 A  
HETATM   18  C   UNL     1     -10.944   9.992  70.580  1.00  0.00    -0.392 A  
ENDBRANCH  12  13
ENDBRANCH  11  12
ENDBRANCH   9  11
ENDBRANCH   6   9
TORSDOF 4
ENDMDL
MODEL      179
REMARK 921   NORMALIZED FREE ENERGY PREDICTED BY IDOCK:   -3.61 KCAL/MOL
REMARK 922        TOTAL FREE ENERGY PREDICTED BY IDOCK:   -5.07 KCAL/MOL
REMARK 923 INTER-LIGAND FREE ENERGY PREDICTED BY IDOCK:   -4.63 KCAL/MOL
REMARK 924 INTRA-LIGAND FREE ENERGY PREDICTED BY IDOCK:   -0.44 KCAL/MOL
REMARK 927      BINDING AFFINITY PREDICTED BY RF-SCORE:    0.00 PKD
ROOT
HETATM    1  O   UNL     1     -10.050  10.846  64.236  1.00  0.00    -0.298 OA 
HETATM    2  C   UNL     1     -10.379  10.753  65.555  1.00  0.00    -0.241 A  
HETATM    3  H   UNL     1     -10.256  11.622  63.729  1.00  0.00     0.000 HD 
HETATM    4  C   UNL     1     -10.078   9.617  66.297  1.00  0.00    -0.322 A  
HETATM    5  C   UNL     1     -10.451   9.561  67.642  1.00  0.00    -0.321 A  
HETATM    6  C   UNL     1     -11.124  10.638  68.244  1.00  0.00    -0.334 A  
HETATM    7  C   UNL     1     -11.035  11.834  66.137  1.00  0.00    -0.355 A  
HETATM    8  C   UNL     1     -11.409  11.779  67.484  1.00  0.00    -0.377 A  
ENDROOT
BRANCH   6   9
HETATM    9  C   UNL     1     -11.519  10.499  69.673  1.00  0.00    -0.282 C  
HETATM   10  O   UNL     1     -12.607  10.857  70.095  1.00  0.00    -0.307 OA 
BRANCH   9  11
HETATM   11  O   UNL     1     -10.513   9.969  70.407  1.00  0.00    -0.281 OA 
BRANCH  11  12
HETATM   12  C   UNL     1     -10.908   9.201  71.554  1.00  0.00    -0.366 C  
BRANCH  12  13
HETATM   13  C   UNL     1      -9.819   8.222  71.912  1.00  0.00    -0.300 A  
HETATM   14  C   UNL     1      -9.338   8.142  73.227  1.00  0.00    -0.308 A  
HETATM   15  C   UNL     1      -8.340   7.224  73.562  1.00  0.00    -0.159 A  
HETATM   16  C   UNL     1      -7.814   6.378  72.588  1.00  0.00    -0.104 A  
HETATM   17  C   UNL     1      -8.285   6.447  71.278  1.00  0.00    -0.122 A  
HETATM   18  C   UNL     1      -9.282   7.365  70.941  1.00  0.00    -0.154 A  
ENDBRANCH  12  13
ENDBRANCH  11  12
ENDBRANCH   9  11
ENDBRANCH   6   9
TORSDOF 4
ENDMDL
MODEL      180
REMARK 921   NORMALIZED FREE ENERGY PREDICTED BY IDOCK:   -3.61 KCAL/MOL
REMARK 922        TOTAL FREE ENERGY PREDICTED BY IDOCK:   -5.07 KCAL/MOL
REMARK 923 INTER-LIGAND FREE ENERGY PREDICTED BY IDOCK:   -4.39 KCAL/MOL
REMARK 924 INTRA-LIGAND FREE ENERGY PREDICTED BY IDOCK:   -0.68 KCAL/MOL
REMARK 927      BINDING AFFINITY PREDICTED BY RF-SCORE:    0.00 PKD
ROOT
HETATM    1  O   UNL     1      -6.166  15.452  67.158  1.00  0.00    -0.307 OA 
HETATM    2  C   UNL     1      -6.941  14.380  67.488  1.00  0.00    -0.159 A  
HETATM    3  H   UNL     1      -5.271  15.342  66.859  1.00  0.00     0.000 HD 
HETATM    4  C   UNL     1      -8.250  14.542  67.925  1.00  0.00    -0.155 A  
HETATM    5  C   UNL     1      -9.000  13.415  68.269  1.00  0.00    -0.176 A  
HETATM    6  C   UNL     1      -8.442  12.129  68.176  1.00  0.00    -0.175 A  
HETATM    7  C   UNL     1      -6.375  13.114  67.378  1.00  0.00    -0.063 A  
HETATM    8  C   UNL     1      -7.124  11.984  67.722  1.00  0.00    -0.108 A  
ENDROOT
BRANCH   6   9
HETATM    9  C   UNL     1      -9.287  10.973  68.587  1.00  0.00    -0.194 C  
HETATM   10  O   UNL     1      -9.331  10.564  69.737  1.00  0.00    -0.089 OA 
BRANCH   9  11
HETATM   11  O   UNL     1      -9.941  10.447  67.526  1.00  0.00    -0.171 OA 
BRANCH  11  12
HETATM   12  C   UNL     1     -11.280  10.922  67.315  1.00  0.00    -0.233 C  
BRANCH  12  13
HETATM   13  C   UNL     1     -11.376  11.595  65.969  1.00  0.00    -0.261 A  
HETATM   14  C   UNL     1     -10.698  11.068  64.860  1.00  0.00    -0.278 A  
HETATM   15  C   UNL     1     -10.799  11.683  63.610  1.00  0.00    -0.503 A  
HETATM   16  C   UNL     1     -11.579  12.827  63.456  1.00  0.00    -0.565 A  
HETATM   17  C   UNL     1     -12.258  13.359  64.550  1.00  0.00    -0.450 A  
HETATM   18  C   UNL     1     -12.156  12.748  65.801  1.00  0.00    -0.505 A  
ENDBRANCH  12  13
ENDBRANCH  11  12
ENDBRANCH   9  11
ENDBRANCH   6   9
TORSDOF 4
ENDMDL
MODEL      181
REMARK 921   NORMALIZED FREE ENERGY PREDICTED BY IDOCK:   -3.58 KCAL/MOL
REMARK 922        TOTAL FREE ENERGY PREDICTED BY IDOCK:   -5.04 KCAL/MOL
REMARK 923 INTER-LIGAND FREE ENERGY PREDICTED BY IDOCK:   -4.69 KCAL/MOL
REMARK 924 INTRA-LIGAND FREE ENERGY PREDICTED BY IDOCK:   -0.36 KCAL/MOL
REMARK 927      BINDING AFFINITY PREDICTED BY RF-SCORE:    0.00 PKD
ROOT
HETATM    1  O   UNL     1      -5.695  20.885  65.384  1.00  0.00    -0.214 OA 
HETATM    2  C   UNL     1      -6.262  19.776  65.937  1.00  0.00    -0.188 A  
HETATM    3  H   UNL     1      -6.110  21.736  65.447  1.00  0.00     0.000 HD 
HETATM    4  C   UNL     1      -5.654  18.529  65.843  1.00  0.00    -0.207 A  
HETATM    5  C   UNL     1      -6.282  17.418  66.410  1.00  0.00    -0.258 A  
HETATM    6  C   UNL     1      -7.515  17.553  67.070  1.00  0.00    -0.229 A  
HETATM    7  C   UNL     1      -7.478  19.930  66.596  1.00  0.00    -0.283 A  
HETATM    8  C   UNL     1      -8.108  18.819  67.165  1.00  0.00    -0.259 A  
ENDROOT
BRANCH   6   9
HETATM    9  C   UNL     1      -8.145  16.322  67.626  1.00  0.00    -0.146 C  
HETATM   10  O   UNL     1      -8.140  16.059  68.818  1.00  0.00    -0.184 OA 
BRANCH   9  11
HETATM   11  O   UNL     1      -8.667  15.556  66.640  1.00  0.00    -0.246 OA 
BRANCH  11  12
HETATM   12  C   UNL     1     -10.025  15.845  66.273  1.00  0.00    -0.298 C  
BRANCH  12  13
HETATM   13  C   UNL     1     -10.561  14.743  65.394  1.00  0.00    -0.395 A  
HETATM   14  C   UNL     1     -11.836  14.848  64.819  1.00  0.00    -0.385 A  
HETATM   15  C   UNL     1     -12.327  13.835  63.993  1.00  0.00    -0.370 A  
HETATM   16  C   UNL     1     -11.549  12.709  63.733  1.00  0.00    -0.550 A  
HETATM   17  C   UNL     1     -10.280  12.593  64.298  1.00  0.00    -0.358 A  
HETATM   18  C   UNL     1      -9.789  13.604  65.125  1.00  0.00    -0.115 A  
ENDBRANCH  12  13
ENDBRANCH  11  12
ENDBRANCH   9  11
ENDBRANCH   6   9
TORSDOF 4
ENDMDL
MODEL      182
REMARK 921   NORMALIZED FREE ENERGY PREDICTED BY IDOCK:   -3.58 KCAL/MOL
REMARK 922        TOTAL FREE ENERGY PREDICTED BY IDOCK:   -5.04 KCAL/MOL
REMARK 923 INTER-LIGAND FREE ENERGY PREDICTED BY IDOCK:   -4.49 KCAL/MOL
REMARK 924 INTRA-LIGAND FREE ENERGY PREDICTED BY IDOCK:   -0.54 KCAL/MOL
REMARK 927      BINDING AFFINITY PREDICTED BY RF-SCORE:    0.00 PKD
ROOT
HETATM    1  O   UNL     1      -8.692  17.543  66.205  1.00  0.00    -0.368 OA 
HETATM    2  C   UNL     1      -9.507  16.454  66.132  1.00  0.00    -0.329 A  
HETATM    3  H   UNL     1      -7.914  17.542  66.750  1.00  0.00     0.000 HD 
HETATM    4  C   UNL     1     -10.646  16.455  65.334  1.00  0.00    -0.338 A  
HETATM    5  C   UNL     1     -11.461  15.321  65.305  1.00  0.00    -0.217 A  
HETATM    6  C   UNL     1     -11.138  14.188  66.071  1.00  0.00    -0.314 A  
HETATM    7  C   UNL     1      -9.166  15.337  66.888  1.00  0.00    -0.255 A  
HETATM    8  C   UNL     1      -9.981  14.201  66.860  1.00  0.00    -0.261 A  
ENDROOT
BRANCH   6   9
HETATM    9  C   UNL     1     -12.067  13.025  66.016  1.00  0.00    -0.432 C  
HETATM   10  O   UNL     1     -12.811  12.819  65.070  1.00  0.00    -0.743 OA 
BRANCH   9  11
HETATM   11  O   UNL     1     -11.987  12.285  67.147  1.00  0.00    -0.564 OA 
BRANCH  11  12
HETATM   12  C   UNL     1     -11.650  10.901  66.969  1.00  0.00     0.334 C  
BRANCH  12  13
HETATM   13  C   UNL     1     -10.286  10.629  67.552  1.00  0.00    -0.254 A  
HETATM   14  C   UNL     1      -9.127  11.000  66.855  1.00  0.00    -0.165 A  
HETATM   15  C   UNL     1      -7.864  10.762  67.402  1.00  0.00    -0.111 A  
HETATM   16  C   UNL     1      -7.747  10.153  68.649  1.00  0.00    -0.092 A  
HETATM   17  C   UNL     1      -8.892   9.780  69.352  1.00  0.00    -0.188 A  
HETATM   18  C   UNL     1     -10.155  10.016  68.806  1.00  0.00    -0.197 A  
ENDBRANCH  12  13
ENDBRANCH  11  12
ENDBRANCH   9  11
ENDBRANCH   6   9
TORSDOF 4
ENDMDL
MODEL      183
REMARK 921   NORMALIZED FREE ENERGY PREDICTED BY IDOCK:   -3.57 KCAL/MOL
REMARK 922        TOTAL FREE ENERGY PREDICTED BY IDOCK:   -5.02 KCAL/MOL
REMARK 923 INTER-LIGAND FREE ENERGY PREDICTED BY IDOCK:   -4.58 KCAL/MOL
REMARK 924 INTRA-LIGAND FREE ENERGY PREDICTED BY IDOCK:   -0.45 KCAL/MOL
REMARK 927      BINDING AFFINITY PREDICTED BY RF-SCORE:    0.00 PKD
ROOT
HETATM    1  O   UNL     1     -11.767  16.246  63.736  1.00  0.00    -1.511 OA 
HETATM    2  C   UNL     1     -11.022  15.947  64.837  1.00  0.00    -0.411 A  
HETATM    3  H   UNL     1     -12.070  15.567  63.145  1.00  0.00     0.000 HD 
HETATM    4  C   UNL     1     -10.580  16.942  65.702  1.00  0.00    -0.231 A  
HETATM    5  C   UNL     1      -9.804  16.589  66.809  1.00  0.00    -0.274 A  
HETATM    6  C   UNL     1      -9.472  15.245  67.051  1.00  0.00    -0.235 A  
HETATM    7  C   UNL     1     -10.713  14.611  65.067  1.00  0.00    -0.448 A  
HETATM    8  C   UNL     1      -9.936  14.256  66.175  1.00  0.00    -0.330 A  
ENDROOT
BRANCH   6   9
HETATM    9  C   UNL     1      -8.616  14.943  68.232  1.00  0.00    -0.160 C  
HETATM   10  O   UNL     1      -8.893  15.317  69.360  1.00  0.00    -0.238 OA 
BRANCH   9  11
HETATM   11  O   UNL     1      -7.512  14.250  67.867  1.00  0.00    -0.118 OA 
BRANCH  11  12
HETATM   12  C   UNL     1      -6.838  13.544  68.920  1.00  0.00    -0.111 C  
BRANCH  12  13
HETATM   13  C   UNL     1      -6.670  12.095  68.537  1.00  0.00    -0.071 A  
HETATM   14  C   UNL     1      -6.555  11.106  69.524  1.00  0.00    -0.126 A  
HETATM   15  C   UNL     1      -6.415   9.763  69.169  1.00  0.00    -0.044 A  
HETATM   16  C   UNL     1      -6.389   9.395  67.826  1.00  0.00    -0.058 A  
HETATM   17  C   UNL     1      -6.503  10.369  66.835  1.00  0.00    -0.076 A  
HETATM   18  C   UNL     1      -6.642  11.712  67.188  1.00  0.00    -0.134 A  
ENDBRANCH  12  13
ENDBRANCH  11  12
ENDBRANCH   9  11
ENDBRANCH   6   9
TORSDOF 4
ENDMDL
MODEL      184
REMARK 921   NORMALIZED FREE ENERGY PREDICTED BY IDOCK:   -3.56 KCAL/MOL
REMARK 922        TOTAL FREE ENERGY PREDICTED BY IDOCK:   -5.02 KCAL/MOL
REMARK 923 INTER-LIGAND FREE ENERGY PREDICTED BY IDOCK:   -4.52 KCAL/MOL
REMARK 924 INTRA-LIGAND FREE ENERGY PREDICTED BY IDOCK:   -0.50 KCAL/MOL
REMARK 927      BINDING AFFINITY PREDICTED BY RF-SCORE:    0.00 PKD
ROOT
HETATM    1  O   UNL     1     -12.478  13.414  62.810  1.00  0.00    -0.782 OA 
HETATM    2  C   UNL     1     -11.993  13.607  64.069  1.00  0.00    -0.431 A  
HETATM    3  H   UNL     1     -12.527  12.547  62.427  1.00  0.00     0.000 HD 
HETATM    4  C   UNL     1     -11.922  14.877  64.630  1.00  0.00    -0.407 A  
HETATM    5  C   UNL     1     -11.401  15.027  65.917  1.00  0.00    -0.273 A  
HETATM    6  C   UNL     1     -10.953  13.910  66.643  1.00  0.00    -0.302 A  
HETATM    7  C   UNL     1     -11.565  12.488  64.777  1.00  0.00    -0.387 A  
HETATM    8  C   UNL     1     -11.044  12.637  66.066  1.00  0.00    -0.321 A  
ENDROOT
BRANCH   6   9
HETATM    9  C   UNL     1     -10.382  14.146  67.998  1.00  0.00    -0.231 C  
HETATM   10  O   UNL     1     -10.759  13.539  68.988  1.00  0.00    -0.228 OA 
BRANCH   9  11
HETATM   11  O   UNL     1      -9.444  15.121  67.968  1.00  0.00    -0.196 OA 
BRANCH  11  12
HETATM   12  C   UNL     1      -8.211  14.787  67.313  1.00  0.00    -0.213 C  
BRANCH  12  13
HETATM   13  C   UNL     1      -7.289  14.095  68.285  1.00  0.00    -0.120 A  
HETATM   14  C   UNL     1      -7.000  14.676  69.529  1.00  0.00    -0.165 A  
HETATM   15  C   UNL     1      -6.159  14.028  70.436  1.00  0.00    -0.157 A  
HETATM   16  C   UNL     1      -5.598  12.795  70.109  1.00  0.00    -0.140 A  
HETATM   17  C   UNL     1      -5.878  12.208  68.876  1.00  0.00    -0.061 A  
HETATM   18  C   UNL     1      -6.717  12.855  67.968  1.00  0.00    -0.109 A  
ENDBRANCH  12  13
ENDBRANCH  11  12
ENDBRANCH   9  11
ENDBRANCH   6   9
TORSDOF 4
ENDMDL
MODEL      185
REMARK 921   NORMALIZED FREE ENERGY PREDICTED BY IDOCK:   -3.56 KCAL/MOL
REMARK 922        TOTAL FREE ENERGY PREDICTED BY IDOCK:   -5.01 KCAL/MOL
REMARK 923 INTER-LIGAND FREE ENERGY PREDICTED BY IDOCK:   -4.48 KCAL/MOL
REMARK 924 INTRA-LIGAND FREE ENERGY PREDICTED BY IDOCK:   -0.53 KCAL/MOL
REMARK 927      BINDING AFFINITY PREDICTED BY RF-SCORE:    0.00 PKD
ROOT
HETATM    1  O   UNL     1      -9.546   6.759  69.228  1.00  0.00    -0.145 OA 
HETATM    2  C   UNL     1      -9.693   7.935  68.555  1.00  0.00    -0.161 A  
HETATM    3  H   UNL     1      -9.559   5.925  68.773  1.00  0.00     0.000 HD 
HETATM    4  C   UNL     1      -9.674   9.155  69.221  1.00  0.00    -0.164 A  
HETATM    5  C   UNL     1      -9.847  10.334  68.492  1.00  0.00    -0.174 A  
HETATM    6  C   UNL     1     -10.037  10.293  67.100  1.00  0.00    -0.259 A  
HETATM    7  C   UNL     1      -9.870   7.875  67.177  1.00  0.00    -0.273 A  
HETATM    8  C   UNL     1     -10.043   9.055  66.445  1.00  0.00    -0.351 A  
ENDROOT
BRANCH   6   9
HETATM    9  C   UNL     1     -10.245  11.585  66.389  1.00  0.00    -0.224 C  
HETATM   10  O   UNL     1     -10.929  11.681  65.381  1.00  0.00    -0.299 OA 
BRANCH   9  11
HETATM   11  O   UNL     1      -9.558  12.586  66.987  1.00  0.00    -0.205 OA 
BRANCH  11  12
HETATM   12  C   UNL     1     -10.185  13.877  66.968  1.00  0.00    -0.254 C  
BRANCH  12  13
HETATM   13  C   UNL     1     -10.763  14.184  68.327  1.00  0.00    -0.256 A  
HETATM   14  C   UNL     1     -11.768  13.372  68.873  1.00  0.00    -0.369 A  
HETATM   15  C   UNL     1     -12.292  13.647  70.138  1.00  0.00    -0.372 A  
HETATM   16  C   UNL     1     -11.817  14.734  70.869  1.00  0.00    -0.379 A  
HETATM   17  C   UNL     1     -10.817  15.547  70.337  1.00  0.00    -0.356 A  
HETATM   18  C   UNL     1     -10.294  15.275  69.072  1.00  0.00    -0.242 A  
ENDBRANCH  12  13
ENDBRANCH  11  12
ENDBRANCH   9  11
ENDBRANCH   6   9
TORSDOF 4
ENDMDL
MODEL      186
REMARK 921   NORMALIZED FREE ENERGY PREDICTED BY IDOCK:   -3.55 KCAL/MOL
REMARK 922        TOTAL FREE ENERGY PREDICTED BY IDOCK:   -5.00 KCAL/MOL
REMARK 923 INTER-LIGAND FREE ENERGY PREDICTED BY IDOCK:   -4.42 KCAL/MOL
REMARK 924 INTRA-LIGAND FREE ENERGY PREDICTED BY IDOCK:   -0.58 KCAL/MOL
REMARK 927      BINDING AFFINITY PREDICTED BY RF-SCORE:    0.00 PKD
ROOT
HETATM    1  O   UNL     1      -8.537   4.564  66.467  1.00  0.00    -0.112 OA 
HETATM    2  C   UNL     1      -9.162   5.303  67.426  1.00  0.00    -0.113 A  
HETATM    3  H   UNL     1      -7.605   4.391  66.506  1.00  0.00     0.000 HD 
HETATM    4  C   UNL     1     -10.528   5.556  67.370  1.00  0.00    -0.284 A  
HETATM    5  C   UNL     1     -11.121   6.334  68.366  1.00  0.00    -0.371 A  
HETATM    6  C   UNL     1     -10.350   6.859  69.418  1.00  0.00    -0.220 A  
HETATM    7  C   UNL     1      -8.385   5.805  68.466  1.00  0.00    -0.107 A  
HETATM    8  C   UNL     1      -8.977   6.584  69.465  1.00  0.00    -0.137 A  
ENDROOT
BRANCH   6   9
HETATM    9  C   UNL     1     -11.041   7.706  70.430  1.00  0.00    -0.258 C  
HETATM   10  O   UNL     1     -11.829   7.251  71.244  1.00  0.00    -0.280 OA 
BRANCH   9  11
HETATM   11  O   UNL     1     -10.699   9.008  70.289  1.00  0.00    -0.214 OA 
BRANCH  11  12
HETATM   12  C   UNL     1     -11.790   9.937  70.208  1.00  0.00    -0.184 C  
BRANCH  12  13
HETATM   13  C   UNL     1     -11.588  10.860  69.033  1.00  0.00    -0.387 A  
HETATM   14  C   UNL     1     -11.040  10.378  67.835  1.00  0.00    -0.363 A  
HETATM   15  C   UNL     1     -10.867  11.230  66.742  1.00  0.00    -0.334 A  
HETATM   16  C   UNL     1     -11.240  12.569  66.834  1.00  0.00    -0.354 A  
HETATM   17  C   UNL     1     -11.786  13.059  68.019  1.00  0.00    -0.391 A  
HETATM   18  C   UNL     1     -11.958  12.210  69.114  1.00  0.00    -0.311 A  
ENDBRANCH  12  13
ENDBRANCH  11  12
ENDBRANCH   9  11
ENDBRANCH   6   9
TORSDOF 4
ENDMDL
MODEL      187
REMARK 921   NORMALIZED FREE ENERGY PREDICTED BY IDOCK:   -3.54 KCAL/MOL
REMARK 922        TOTAL FREE ENERGY PREDICTED BY IDOCK:   -4.99 KCAL/MOL
REMARK 923 INTER-LIGAND FREE ENERGY PREDICTED BY IDOCK:   -4.65 KCAL/MOL
REMARK 924 INTRA-LIGAND FREE ENERGY PREDICTED BY IDOCK:   -0.35 KCAL/MOL
REMARK 927      BINDING AFFINITY PREDICTED BY RF-SCORE:    0.00 PKD
ROOT
HETATM    1  O   UNL     1     -10.906   8.644  67.130  1.00  0.00    -0.399 OA 
HETATM    2  C   UNL     1     -10.318   9.871  67.216  1.00  0.00    -0.245 A  
HETATM    3  H   UNL     1     -11.266   8.214  67.896  1.00  0.00     0.000 HD 
HETATM    4  C   UNL     1      -9.790  10.500  66.095  1.00  0.00    -0.271 A  
HETATM    5  C   UNL     1      -9.182  11.750  66.236  1.00  0.00    -0.227 A  
HETATM    6  C   UNL     1      -9.102  12.369  67.494  1.00  0.00    -0.185 A  
HETATM    7  C   UNL     1     -10.259  10.474  68.469  1.00  0.00    -0.190 A  
HETATM    8  C   UNL     1      -9.650  11.725  68.611  1.00  0.00    -0.122 A  
ENDROOT
BRANCH   6   9
HETATM    9  C   UNL     1      -8.413  13.687  67.578  1.00  0.00    -0.189 C  
HETATM   10  O   UNL     1      -7.437  13.878  68.285  1.00  0.00    -0.097 OA 
BRANCH   9  11
HETATM   11  O   UNL     1      -9.036  14.611  66.808  1.00  0.00    -0.246 OA 
BRANCH  11  12
HETATM   12  C   UNL     1     -10.303  15.080  67.293  1.00  0.00    -0.249 C  
BRANCH  12  13
HETATM   13  C   UNL     1     -10.356  16.585  67.207  1.00  0.00    -0.296 A  
HETATM   14  C   UNL     1     -10.119  17.371  68.344  1.00  0.00    -0.347 A  
HETATM   15  C   UNL     1     -10.153  18.765  68.262  1.00  0.00    -0.431 A  
HETATM   16  C   UNL     1     -10.423  19.386  67.044  1.00  0.00    -0.571 A  
HETATM   17  C   UNL     1     -10.659  18.615  65.907  1.00  0.00    -0.365 A  
HETATM   18  C   UNL     1     -10.628  17.222  65.988  1.00  0.00    -0.217 A  
ENDBRANCH  12  13
ENDBRANCH  11  12
ENDBRANCH   9  11
ENDBRANCH   6   9
TORSDOF 4
ENDMDL
MODEL      188
REMARK 921   NORMALIZED FREE ENERGY PREDICTED BY IDOCK:   -3.52 KCAL/MOL
REMARK 922        TOTAL FREE ENERGY PREDICTED BY IDOCK:   -4.97 KCAL/MOL
REMARK 923 INTER-LIGAND FREE ENERGY PREDICTED BY IDOCK:   -4.19 KCAL/MOL
REMARK 924 INTRA-LIGAND FREE ENERGY PREDICTED BY IDOCK:   -0.77 KCAL/MOL
REMARK 927      BINDING AFFINITY PREDICTED BY RF-SCORE:    0.00 PKD
ROOT
HETATM    1  O   UNL     1     -13.397  11.890  72.236  1.00  0.00    -0.601 OA 
HETATM    2  C   UNL     1     -12.918  10.721  71.727  1.00  0.00    -0.463 A  
HETATM    3  H   UNL     1     -13.031  12.728  71.980  1.00  0.00     0.000 HD 
HETATM    4  C   UNL     1     -13.455   9.495  72.101  1.00  0.00    -0.535 A  
HETATM    5  C   UNL     1     -12.918   8.321  71.566  1.00  0.00    -0.310 A  
HETATM    6  C   UNL     1     -11.848   8.374  70.657  1.00  0.00    -0.100 A  
HETATM    7  C   UNL     1     -11.865  10.793  70.820  1.00  0.00    -0.443 A  
HETATM    8  C   UNL     1     -11.327   9.619  70.282  1.00  0.00    -0.311 A  
ENDROOT
BRANCH   6   9
HETATM    9  C   UNL     1     -11.304   7.084  70.148  1.00  0.00    -0.277 C  
HETATM   10  O   UNL     1     -11.520   6.014  70.697  1.00  0.00    -0.299 OA 
BRANCH   9  11
HETATM   11  O   UNL     1     -10.537   7.279  69.050  1.00  0.00    -0.212 OA 
BRANCH  11  12
HETATM   12  C   UNL     1      -9.244   6.654  69.069  1.00  0.00    -0.131 C  
BRANCH  12  13
HETATM   13  C   UNL     1      -8.223   7.612  69.627  1.00  0.00    -0.128 A  
HETATM   14  C   UNL     1      -7.842   7.541  70.976  1.00  0.00    -0.091 A  
HETATM   15  C   UNL     1      -6.884   8.418  71.489  1.00  0.00    -0.073 A  
HETATM   16  C   UNL     1      -6.298   9.373  70.662  1.00  0.00    -0.075 A  
HETATM   17  C   UNL     1      -6.668   9.454  69.320  1.00  0.00    -0.049 A  
HETATM   18  C   UNL     1      -7.627   8.579  68.806  1.00  0.00    -0.097 A  
ENDBRANCH  12  13
ENDBRANCH  11  12
ENDBRANCH   9  11
ENDBRANCH   6   9
TORSDOF 4
ENDMDL
MODEL      189
REMARK 921   NORMALIZED FREE ENERGY PREDICTED BY IDOCK:   -3.52 KCAL/MOL
REMARK 922        TOTAL FREE ENERGY PREDICTED BY IDOCK:   -4.96 KCAL/MOL
REMARK 923 INTER-LIGAND FREE ENERGY PREDICTED BY IDOCK:   -4.64 KCAL/MOL
REMARK 924 INTRA-LIGAND FREE ENERGY PREDICTED BY IDOCK:   -0.33 KCAL/MOL
REMARK 927      BINDING AFFINITY PREDICTED BY RF-SCORE:    0.00 PKD
ROOT
HETATM    1  O   UNL     1     -10.758   5.752  68.073  1.00  0.00    -0.242 OA 
HETATM    2  C   UNL     1     -10.560   7.099  68.017  1.00  0.00    -0.196 A  
HETATM    3  H   UNL     1     -10.643   5.203  67.307  1.00  0.00     0.000 HD 
HETATM    4  C   UNL     1     -10.728   7.902  69.139  1.00  0.00    -0.130 A  
HETATM    5  C   UNL     1     -10.531   9.281  69.029  1.00  0.00    -0.233 A  
HETATM    6  C   UNL     1     -10.167   9.855  67.799  1.00  0.00    -0.241 A  
HETATM    7  C   UNL     1     -10.189   7.649  66.794  1.00  0.00    -0.333 A  
HETATM    8  C   UNL     1      -9.991   9.029  66.681  1.00  0.00    -0.349 A  
ENDROOT
BRANCH   6   9
HETATM    9  C   UNL     1     -10.003  11.335  67.745  1.00  0.00    -0.176 C  
HETATM   10  O   UNL     1      -9.113  11.922  68.340  1.00  0.00    -0.187 OA 
BRANCH   9  11
HETATM   11  O   UNL     1     -10.975  11.904  66.995  1.00  0.00    -0.248 OA 
BRANCH  11  12
HETATM   12  C   UNL     1     -11.828  12.837  67.676  1.00  0.00    -0.339 C  
BRANCH  12  13
HETATM   13  C   UNL     1     -11.309  14.239  67.483  1.00  0.00    -0.346 A  
HETATM   14  C   UNL     1     -11.347  15.164  68.536  1.00  0.00    -0.321 A  
HETATM   15  C   UNL     1     -10.852  16.458  68.362  1.00  0.00    -0.342 A  
HETATM   16  C   UNL     1     -10.313  16.840  67.135  1.00  0.00    -0.297 A  
HETATM   17  C   UNL     1     -10.269  15.929  66.081  1.00  0.00    -0.340 A  
HETATM   18  C   UNL     1     -10.765  14.636  66.253  1.00  0.00    -0.316 A  
ENDBRANCH  12  13
ENDBRANCH  11  12
ENDBRANCH   9  11
ENDBRANCH   6   9
TORSDOF 4
ENDMDL
MODEL      190
REMARK 921   NORMALIZED FREE ENERGY PREDICTED BY IDOCK:   -3.51 KCAL/MOL
REMARK 922        TOTAL FREE ENERGY PREDICTED BY IDOCK:   -4.95 KCAL/MOL
REMARK 923 INTER-LIGAND FREE ENERGY PREDICTED BY IDOCK:   -4.95 KCAL/MOL
REMARK 924 INTRA-LIGAND FREE ENERGY PREDICTED BY IDOCK:    0.00 KCAL/MOL
REMARK 927      BINDING AFFINITY PREDICTED BY RF-SCORE:    0.00 PKD
ROOT
HETATM    1  O   UNL     1     -10.584   4.543  65.036  1.00  0.00    -0.458 OA 
HETATM    2  C   UNL     1     -10.289   5.069  66.259  1.00  0.00    -0.291 A  
HETATM    3  H   UNL     1     -10.473   3.618  64.856  1.00  0.00     0.000 HD 
HETATM    4  C   UNL     1     -10.452   6.424  66.521  1.00  0.00    -0.150 A  
HETATM    5  C   UNL     1     -10.120   6.920  67.784  1.00  0.00    -0.199 A  
HETATM    6  C   UNL     1      -9.627   6.063  68.782  1.00  0.00    -0.148 A  
HETATM    7  C   UNL     1      -9.813   4.203  67.238  1.00  0.00    -0.171 A  
HETATM    8  C   UNL     1      -9.480   4.698  68.503  1.00  0.00    -0.206 A  
ENDROOT
BRANCH   6   9
HETATM    9  C   UNL     1      -9.264   6.663  70.097  1.00  0.00    -0.155 C  
HETATM   10  O   UNL     1      -8.298   7.394  70.244  1.00  0.00    -0.130 OA 
BRANCH   9  11
HETATM   11  O   UNL     1     -10.116   6.257  71.068  1.00  0.00    -0.181 OA 
BRANCH  11  12
HETATM   12  C   UNL     1     -11.493   6.130  70.682  1.00  0.00    -0.261 C  
BRANCH  12  13
HETATM   13  C   UNL     1     -12.271   7.327  71.165  1.00  0.00    -0.376 A  
HETATM   14  C   UNL     1     -11.659   8.587  71.251  1.00  0.00    -0.332 A  
HETATM   15  C   UNL     1     -12.384   9.699  71.684  1.00  0.00    -0.489 A  
HETATM   16  C   UNL     1     -13.726   9.565  72.034  1.00  0.00    -0.435 A  
HETATM   17  C   UNL     1     -14.345   8.318  71.952  1.00  0.00    -0.564 A  
HETATM   18  C   UNL     1     -13.621   7.205  71.521  1.00  0.00    -0.408 A  
ENDBRANCH  12  13
ENDBRANCH  11  12
ENDBRANCH   9  11
ENDBRANCH   6   9
TORSDOF 4
ENDMDL
MODEL      191
REMARK 921   NORMALIZED FREE ENERGY PREDICTED BY IDOCK:   -3.50 KCAL/MOL
REMARK 922        TOTAL FREE ENERGY PREDICTED BY IDOCK:   -4.94 KCAL/MOL
REMARK 923 INTER-LIGAND FREE ENERGY PREDICTED BY IDOCK:   -4.64 KCAL/MOL
REMARK 924 INTRA-LIGAND FREE ENERGY PREDICTED BY IDOCK:   -0.30 KCAL/MOL
REMARK 927      BINDING AFFINITY PREDICTED BY RF-SCORE:    0.00 PKD
ROOT
HETATM    1  O   UNL     1     -10.366   4.374  66.715  1.00  0.00    -0.260 OA 
HETATM    2  C   UNL     1     -10.403   5.588  67.334  1.00  0.00    -0.225 A  
HETATM    3  H   UNL     1     -10.530   3.571  67.194  1.00  0.00     0.000 HD 
HETATM    4  C   UNL     1     -10.165   6.765  66.633  1.00  0.00    -0.211 A  
HETATM    5  C   UNL     1     -10.196   7.984  67.314  1.00  0.00    -0.345 A  
HETATM    6  C   UNL     1     -10.466   8.027  68.692  1.00  0.00    -0.196 A  
HETATM    7  C   UNL     1     -10.684   5.612  68.696  1.00  0.00    -0.249 A  
HETATM    8  C   UNL     1     -10.716   6.832  69.380  1.00  0.00    -0.291 A  
ENDROOT
BRANCH   6   9
HETATM    9  C   UNL     1     -10.454   9.358  69.362  1.00  0.00    -0.220 C  
HETATM   10  O   UNL     1      -9.647   9.653  70.229  1.00  0.00    -0.241 OA 
BRANCH   9  11
HETATM   11  O   UNL     1     -11.458  10.141  68.904  1.00  0.00    -0.176 OA 
BRANCH  11  12
HETATM   12  C   UNL     1     -11.059  11.349  68.239  1.00  0.00    -0.244 C  
BRANCH  12  13
HETATM   13  C   UNL     1     -11.313  12.533  69.137  1.00  0.00    -0.331 A  
HETATM   14  C   UNL     1     -12.123  12.404  70.274  1.00  0.00    -0.377 A  
HETATM   15  C   UNL     1     -12.346  13.497  71.114  1.00  0.00    -0.377 A  
HETATM   16  C   UNL     1     -11.763  14.729  70.826  1.00  0.00    -0.355 A  
HETATM   17  C   UNL     1     -10.955  14.870  69.699  1.00  0.00    -0.294 A  
HETATM   18  C   UNL     1     -10.732  13.779  68.857  1.00  0.00    -0.249 A  
ENDBRANCH  12  13
ENDBRANCH  11  12
ENDBRANCH   9  11
ENDBRANCH   6   9
TORSDOF 4
ENDMDL
MODEL      192
REMARK 921   NORMALIZED FREE ENERGY PREDICTED BY IDOCK:   -3.47 KCAL/MOL
REMARK 922        TOTAL FREE ENERGY PREDICTED BY IDOCK:   -4.90 KCAL/MOL
REMARK 923 INTER-LIGAND FREE ENERGY PREDICTED BY IDOCK:   -4.11 KCAL/MOL
REMARK 924 INTRA-LIGAND FREE ENERGY PREDICTED BY IDOCK:   -0.79 KCAL/MOL
REMARK 927      BINDING AFFINITY PREDICTED BY RF-SCORE:    0.00 PKD
ROOT
HETATM    1  O   UNL     1      -5.778  11.348  70.154  1.00  0.00    -0.096 OA 
HETATM    2  C   UNL     1      -6.376  12.454  69.629  1.00  0.00    -0.107 A  
HETATM    3  H   UNL     1      -5.984  10.477  69.836  1.00  0.00     0.000 HD 
HETATM    4  C   UNL     1      -6.074  13.729  70.094  1.00  0.00    -0.139 A  
HETATM    5  C   UNL     1      -6.726  14.832  69.538  1.00  0.00    -0.160 A  
HETATM    6  C   UNL     1      -7.678  14.661  68.519  1.00  0.00    -0.126 A  
HETATM    7  C   UNL     1      -7.307  12.267  68.613  1.00  0.00    -0.106 A  
HETATM    8  C   UNL     1      -7.961  13.370  68.054  1.00  0.00    -0.148 A  
ENDROOT
BRANCH   6   9
HETATM    9  C   UNL     1      -8.357  15.877  67.991  1.00  0.00    -0.160 C  
HETATM   10  O   UNL     1      -8.778  16.765  68.716  1.00  0.00    -0.252 OA 
BRANCH   9  11
HETATM   11  O   UNL     1      -8.464  15.828  66.643  1.00  0.00    -0.239 OA 
BRANCH  11  12
HETATM   12  C   UNL     1      -9.747  16.179  66.102  1.00  0.00    -0.323 C  
BRANCH  12  13
HETATM   13  C   UNL     1     -10.566  14.932  65.883  1.00  0.00    -0.334 A  
HETATM   14  C   UNL     1     -11.741  14.713  66.617  1.00  0.00    -0.345 A  
HETATM   15  C   UNL     1     -12.508  13.566  66.404  1.00  0.00    -0.349 A  
HETATM   16  C   UNL     1     -12.110  12.627  65.454  1.00  0.00    -0.516 A  
HETATM   17  C   UNL     1     -10.944  12.834  64.717  1.00  0.00    -0.334 A  
HETATM   18  C   UNL     1     -10.176  13.979  64.931  1.00  0.00    -0.377 A  
ENDBRANCH  12  13
ENDBRANCH  11  12
ENDBRANCH   9  11
ENDBRANCH   6   9
TORSDOF 4
ENDMDL
MODEL      193
REMARK 921   NORMALIZED FREE ENERGY PREDICTED BY IDOCK:   -3.46 KCAL/MOL
REMARK 922        TOTAL FREE ENERGY PREDICTED BY IDOCK:   -4.89 KCAL/MOL
REMARK 923 INTER-LIGAND FREE ENERGY PREDICTED BY IDOCK:   -4.43 KCAL/MOL
REMARK 924 INTRA-LIGAND FREE ENERGY PREDICTED BY IDOCK:   -0.46 KCAL/MOL
REMARK 927      BINDING AFFINITY PREDICTED BY RF-SCORE:    0.00 PKD
ROOT
HETATM    1  O   UNL     1      -8.853   9.120  64.613  1.00  0.00    -0.255 OA 
HETATM    2  C   UNL     1      -9.545  10.257  64.907  1.00  0.00    -0.304 A  
HETATM    3  H   UNL     1      -8.295   9.066  63.847  1.00  0.00     0.000 HD 
HETATM    4  C   UNL     1     -10.361  10.336  66.029  1.00  0.00    -0.248 A  
HETATM    5  C   UNL     1     -11.065  11.517  66.280  1.00  0.00    -0.321 A  
HETATM    6  C   UNL     1     -10.951  12.615  65.412  1.00  0.00    -0.320 A  
HETATM    7  C   UNL     1      -9.411  11.338  64.042  1.00  0.00    -0.202 A  
HETATM    8  C   UNL     1     -10.115  12.521  64.292  1.00  0.00    -0.298 A  
ENDROOT
BRANCH   6   9
HETATM    9  C   UNL     1     -11.753  13.832  65.722  1.00  0.00    -0.349 C  
HETATM   10  O   UNL     1     -12.960  13.888  65.554  1.00  0.00    -0.673 OA 
BRANCH   9  11
HETATM   11  O   UNL     1     -10.960  14.835  66.167  1.00  0.00    -0.320 OA 
BRANCH  11  12
HETATM   12  C   UNL     1     -11.149  15.225  67.536  1.00  0.00    -0.324 C  
BRANCH  12  13
HETATM   13  C   UNL     1      -9.823  15.597  68.148  1.00  0.00    -0.212 A  
HETATM   14  C   UNL     1      -9.351  14.927  69.287  1.00  0.00    -0.106 A  
HETATM   15  C   UNL     1      -8.116  15.261  69.845  1.00  0.00     0.121 A  
HETATM   16  C   UNL     1      -7.339  16.266  69.271  1.00  0.00    -0.221 A  
HETATM   17  C   UNL     1      -7.797  16.938  68.139  1.00  0.00    -0.189 A  
HETATM   18  C   UNL     1      -9.033  16.607  67.581  1.00  0.00    -0.206 A  
ENDBRANCH  12  13
ENDBRANCH  11  12
ENDBRANCH   9  11
ENDBRANCH   6   9
TORSDOF 4
ENDMDL
MODEL      194
REMARK 921   NORMALIZED FREE ENERGY PREDICTED BY IDOCK:   -3.44 KCAL/MOL
REMARK 922        TOTAL FREE ENERGY PREDICTED BY IDOCK:   -4.87 KCAL/MOL
REMARK 923 INTER-LIGAND FREE ENERGY PREDICTED BY IDOCK:   -4.12 KCAL/MOL
REMARK 924 INTRA-LIGAND FREE ENERGY PREDICTED BY IDOCK:   -0.75 KCAL/MOL
REMARK 927      BINDING AFFINITY PREDICTED BY RF-SCORE:    0.00 PKD
ROOT
HETATM    1  O   UNL     1      -5.686  11.366  70.051  1.00  0.00    -0.083 OA 
HETATM    2  C   UNL     1      -6.345  12.489  69.651  1.00  0.00    -0.100 A  
HETATM    3  H   UNL     1      -5.830  10.530  69.625  1.00  0.00     0.000 HD 
HETATM    4  C   UNL     1      -6.133  13.713  70.275  1.00  0.00    -0.121 A  
HETATM    5  C   UNL     1      -6.845  14.834  69.842  1.00  0.00    -0.158 A  
HETATM    6  C   UNL     1      -7.766  14.731  68.786  1.00  0.00    -0.136 A  
HETATM    7  C   UNL     1      -7.245  12.371  68.597  1.00  0.00    -0.104 A  
HETATM    8  C   UNL     1      -7.959  13.492  68.161  1.00  0.00    -0.149 A  
ENDROOT
BRANCH   6   9
HETATM    9  C   UNL     1      -8.514  15.959  68.394  1.00  0.00    -0.176 C  
HETATM   10  O   UNL     1      -8.068  17.084  68.559  1.00  0.00    -0.231 OA 
BRANCH   9  11
HETATM   11  O   UNL     1      -9.727  15.647  67.882  1.00  0.00    -0.211 OA 
BRANCH  11  12
HETATM   12  C   UNL     1     -10.847  16.339  68.455  1.00  0.00    -0.330 C  
BRANCH  12  13
HETATM   13  C   UNL     1     -11.340  15.594  69.670  1.00  0.00    -0.331 A  
HETATM   14  C   UNL     1     -11.398  16.228  70.920  1.00  0.00    -0.319 A  
HETATM   15  C   UNL     1     -11.870  15.542  72.041  1.00  0.00    -0.538 A  
HETATM   16  C   UNL     1     -12.288  14.218  71.925  1.00  0.00    -0.329 A  
HETATM   17  C   UNL     1     -12.235  13.578  70.688  1.00  0.00    -0.434 A  
HETATM   18  C   UNL     1     -11.763  14.261  69.566  1.00  0.00    -0.366 A  
ENDBRANCH  12  13
ENDBRANCH  11  12
ENDBRANCH   9  11
ENDBRANCH   6   9
TORSDOF 4
ENDMDL
MODEL      195
REMARK 921   NORMALIZED FREE ENERGY PREDICTED BY IDOCK:   -3.42 KCAL/MOL
REMARK 922        TOTAL FREE ENERGY PREDICTED BY IDOCK:   -4.85 KCAL/MOL
REMARK 923 INTER-LIGAND FREE ENERGY PREDICTED BY IDOCK:   -4.50 KCAL/MOL
REMARK 924 INTRA-LIGAND FREE ENERGY PREDICTED BY IDOCK:   -0.35 KCAL/MOL
REMARK 927      BINDING AFFINITY PREDICTED BY RF-SCORE:    0.00 PKD
ROOT
HETATM    1  O   UNL     1      -6.849   9.440  65.535  1.00  0.00    -0.075 OA 
HETATM    2  C   UNL     1      -7.694  10.450  65.887  1.00  0.00    -0.145 A  
HETATM    3  H   UNL     1      -7.108   8.775  64.908  1.00  0.00     0.000 HD 
HETATM    4  C   UNL     1      -7.314  11.422  66.805  1.00  0.00    -0.135 A  
HETATM    5  C   UNL     1      -8.220  12.429  67.148  1.00  0.00    -0.176 A  
HETATM    6  C   UNL     1      -9.502  12.463  66.574  1.00  0.00    -0.242 A  
HETATM    7  C   UNL     1      -8.955  10.475  65.300  1.00  0.00    -0.211 A  
HETATM    8  C   UNL     1      -9.863  11.482  65.642  1.00  0.00    -0.269 A  
ENDROOT
BRANCH   6   9
HETATM    9  C   UNL     1     -10.429  13.546  67.008  1.00  0.00    -0.265 C  
HETATM   10  O   UNL     1     -11.555  13.324  67.423  1.00  0.00    -0.312 OA 
BRANCH   9  11
HETATM   11  O   UNL     1      -9.864  14.765  66.842  1.00  0.00    -0.233 OA 
BRANCH  11  12
HETATM   12  C   UNL     1     -10.630  15.882  67.317  1.00  0.00    -0.314 C  
BRANCH  12  13
HETATM   13  C   UNL     1      -9.913  17.168  66.990  1.00  0.00    -0.287 A  
HETATM   14  C   UNL     1      -8.620  17.144  66.448  1.00  0.00    -0.300 A  
HETATM   15  C   UNL     1      -7.962  18.335  66.131  1.00  0.00    -0.219 A  
HETATM   16  C   UNL     1      -8.589  19.559  66.352  1.00  0.00    -0.384 A  
HETATM   17  C   UNL     1      -9.875  19.595  66.890  1.00  0.00    -0.497 A  
HETATM   18  C   UNL     1     -10.533  18.406  67.209  1.00  0.00    -0.434 A  
ENDBRANCH  12  13
ENDBRANCH  11  12
ENDBRANCH   9  11
ENDBRANCH   6   9
TORSDOF 4
ENDMDL
MODEL      196
REMARK 921   NORMALIZED FREE ENERGY PREDICTED BY IDOCK:   -3.42 KCAL/MOL
REMARK 922        TOTAL FREE ENERGY PREDICTED BY IDOCK:   -4.84 KCAL/MOL
REMARK 923 INTER-LIGAND FREE ENERGY PREDICTED BY IDOCK:   -4.36 KCAL/MOL
REMARK 924 INTRA-LIGAND FREE ENERGY PREDICTED BY IDOCK:   -0.48 KCAL/MOL
REMARK 927      BINDING AFFINITY PREDICTED BY RF-SCORE:    0.00 PKD
ROOT
HETATM    1  O   UNL     1     -13.526   8.808  73.193  1.00  0.00    -0.953 OA 
HETATM    2  C   UNL     1     -12.856   9.434  72.184  1.00  0.00    -0.401 A  
HETATM    3  H   UNL     1     -14.162   9.270  73.724  1.00  0.00     0.000 HD 
HETATM    4  C   UNL     1     -11.924   8.756  71.406  1.00  0.00    -0.367 A  
HETATM    5  C   UNL     1     -11.249   9.444  70.395  1.00  0.00    -0.309 A  
HETATM    6  C   UNL     1     -11.506  10.806  70.162  1.00  0.00    -0.415 A  
HETATM    7  C   UNL     1     -13.132  10.778  71.960  1.00  0.00    -0.476 A  
HETATM    8  C   UNL     1     -12.457  11.469  70.948  1.00  0.00    -0.464 A  
ENDROOT
BRANCH   6   9
HETATM    9  C   UNL     1     -10.729  11.485  69.087  1.00  0.00    -0.168 C  
HETATM   10  O   UNL     1     -11.260  12.024  68.129  1.00  0.00    -0.223 OA 
BRANCH   9  11
HETATM   11  O   UNL     1      -9.399  11.384  69.311  1.00  0.00     0.078 OA 
BRANCH  11  12
HETATM   12  C   UNL     1      -8.562  11.408  68.145  1.00  0.00    -0.153 C  
BRANCH  12  13
HETATM   13  C   UNL     1      -7.893  10.068  67.969  1.00  0.00    -0.089 A  
HETATM   14  C   UNL     1      -8.638   8.883  68.057  1.00  0.00    -0.130 A  
HETATM   15  C   UNL     1      -8.020   7.643  67.879  1.00  0.00    -0.118 A  
HETATM   16  C   UNL     1      -6.655   7.575  67.612  1.00  0.00    -0.062 A  
HETATM   17  C   UNL     1      -5.904   8.746  67.522  1.00  0.00    -0.043 A  
HETATM   18  C   UNL     1      -6.519   9.986  67.701  1.00  0.00    -0.063 A  
ENDBRANCH  12  13
ENDBRANCH  11  12
ENDBRANCH   9  11
ENDBRANCH   6   9
TORSDOF 4
ENDMDL
MODEL      197
REMARK 921   NORMALIZED FREE ENERGY PREDICTED BY IDOCK:   -3.41 KCAL/MOL
REMARK 922        TOTAL FREE ENERGY PREDICTED BY IDOCK:   -4.82 KCAL/MOL
REMARK 923 INTER-LIGAND FREE ENERGY PREDICTED BY IDOCK:   -4.19 KCAL/MOL
REMARK 924 INTRA-LIGAND FREE ENERGY PREDICTED BY IDOCK:   -0.63 KCAL/MOL
REMARK 927      BINDING AFFINITY PREDICTED BY RF-SCORE:    0.00 PKD
ROOT
HETATM    1  O   UNL     1      -7.295   1.878  68.252  1.00  0.00    -0.043 OA 
HETATM    2  C   UNL     1      -8.197   2.899  68.246  1.00  0.00    -0.065 A  
HETATM    3  H   UNL     1      -7.068   1.422  69.054  1.00  0.00     0.000 HD 
HETATM    4  C   UNL     1      -8.528   3.565  67.072  1.00  0.00    -0.107 A  
HETATM    5  C   UNL     1      -9.445   4.618  67.119  1.00  0.00    -0.171 A  
HETATM    6  C   UNL     1     -10.029   5.004  68.337  1.00  0.00    -0.202 A  
HETATM    7  C   UNL     1      -8.774   3.260  69.460  1.00  0.00    -0.132 A  
HETATM    8  C   UNL     1      -9.692   4.314  69.509  1.00  0.00    -0.272 A  
ENDROOT
BRANCH   6   9
HETATM    9  C   UNL     1     -10.976   6.154  68.320  1.00  0.00    -0.308 C  
HETATM   10  O   UNL     1     -11.161   6.842  67.328  1.00  0.00    -0.348 OA 
BRANCH   9  11
HETATM   11  O   UNL     1     -11.545   6.333  69.534  1.00  0.00    -0.423 OA 
BRANCH  11  12
HETATM   12  C   UNL     1     -11.171   7.530  70.234  1.00  0.00    -0.236 C  
BRANCH  12  13
HETATM   13  C   UNL     1     -10.766   7.190  71.646  1.00  0.00    -0.236 A  
HETATM   14  C   UNL     1     -11.259   6.034  72.269  1.00  0.00    -0.341 A  
HETATM   15  C   UNL     1     -10.873   5.711  73.572  1.00  0.00    -0.295 A  
HETATM   16  C   UNL     1      -9.990   6.538  74.263  1.00  0.00    -0.362 A  
HETATM   17  C   UNL     1      -9.493   7.689  73.654  1.00  0.00    -0.340 A  
HETATM   18  C   UNL     1      -9.880   8.015  72.353  1.00  0.00    -0.313 A  
ENDBRANCH  12  13
ENDBRANCH  11  12
ENDBRANCH   9  11
ENDBRANCH   6   9
TORSDOF 4
ENDMDL
MODEL      198
REMARK 921   NORMALIZED FREE ENERGY PREDICTED BY IDOCK:   -3.40 KCAL/MOL
REMARK 922        TOTAL FREE ENERGY PREDICTED BY IDOCK:   -4.81 KCAL/MOL
REMARK 923 INTER-LIGAND FREE ENERGY PREDICTED BY IDOCK:   -4.52 KCAL/MOL
REMARK 924 INTRA-LIGAND FREE ENERGY PREDICTED BY IDOCK:   -0.29 KCAL/MOL
REMARK 927      BINDING AFFINITY PREDICTED BY RF-SCORE:    0.00 PKD
ROOT
HETATM    1  O   UNL     1     -12.508  12.649  62.867  1.00  0.00    -0.581 OA 
HETATM    2  C   UNL     1     -11.978  12.697  64.122  1.00  0.00    -0.426 A  
HETATM    3  H   UNL     1     -12.301  11.941  62.270  1.00  0.00     0.000 HD 
HETATM    4  C   UNL     1     -12.282  13.734  64.996  1.00  0.00    -0.448 A  
HETATM    5  C   UNL     1     -11.700  13.750  66.266  1.00  0.00    -0.400 A  
HETATM    6  C   UNL     1     -10.817  12.731  66.661  1.00  0.00    -0.288 A  
HETATM    7  C   UNL     1     -11.115  11.674  64.499  1.00  0.00    -0.365 A  
HETATM    8  C   UNL     1     -10.531  11.687  65.770  1.00  0.00    -0.308 A  
ENDROOT
BRANCH   6   9
HETATM    9  C   UNL     1     -10.208  12.825  68.017  1.00  0.00    -0.228 C  
HETATM   10  O   UNL     1      -9.975  13.892  68.563  1.00  0.00    -0.226 OA 
BRANCH   9  11
HETATM   11  O   UNL     1      -9.932  11.596  68.513  1.00  0.00    -0.193 OA 
BRANCH  11  12
HETATM   12  C   UNL     1      -8.540  11.275  68.653  1.00  0.00    -0.139 C  
BRANCH  12  13
HETATM   13  C   UNL     1      -8.376  10.132  69.623  1.00  0.00    -0.174 A  
HETATM   14  C   UNL     1      -9.430   9.235  69.852  1.00  0.00    -0.214 A  
HETATM   15  C   UNL     1      -9.272   8.168  70.739  1.00  0.00    -0.165 A  
HETATM   16  C   UNL     1      -8.062   7.986  71.404  1.00  0.00    -0.118 A  
HETATM   17  C   UNL     1      -7.007   8.870  71.185  1.00  0.00    -0.089 A  
HETATM   18  C   UNL     1      -7.163   9.939  70.300  1.00  0.00    -0.160 A  
ENDBRANCH  12  13
ENDBRANCH  11  12
ENDBRANCH   9  11
ENDBRANCH   6   9
TORSDOF 4
ENDMDL
MODEL      199
REMARK 921   NORMALIZED FREE ENERGY PREDICTED BY IDOCK:   -3.38 KCAL/MOL
REMARK 922        TOTAL FREE ENERGY PREDICTED BY IDOCK:   -4.80 KCAL/MOL
REMARK 923 INTER-LIGAND FREE ENERGY PREDICTED BY IDOCK:   -4.23 KCAL/MOL
REMARK 924 INTRA-LIGAND FREE ENERGY PREDICTED BY IDOCK:   -0.57 KCAL/MOL
REMARK 927      BINDING AFFINITY PREDICTED BY RF-SCORE:    0.00 PKD
ROOT
HETATM    1  O   UNL     1     -11.161   4.766  65.609  1.00  0.00    -0.888 OA 
HETATM    2  C   UNL     1     -10.430   5.736  66.228  1.00  0.00    -0.071 A  
HETATM    3  H   UNL     1     -12.086   4.652  65.792  1.00  0.00     0.000 HD 
HETATM    4  C   UNL     1      -9.077   5.902  65.960  1.00  0.00    -0.154 A  
HETATM    5  C   UNL     1      -8.365   6.899  66.632  1.00  0.00    -0.118 A  
HETATM    6  C   UNL     1      -9.005   7.728  67.568  1.00  0.00    -0.126 A  
HETATM    7  C   UNL     1     -11.084   6.554  67.143  1.00  0.00    -0.434 A  
HETATM    8  C   UNL     1     -10.373   7.553  67.817  1.00  0.00    -0.278 A  
ENDROOT
BRANCH   6   9
HETATM    9  C   UNL     1      -8.180   8.750  68.270  1.00  0.00    -0.118 C  
HETATM   10  O   UNL     1      -7.700   8.564  69.377  1.00  0.00    -0.088 OA 
BRANCH   9  11
HETATM   11  O   UNL     1      -8.082   9.883  67.536  1.00  0.00    -0.109 OA 
BRANCH  11  12
HETATM   12  C   UNL     1      -8.309  11.112  68.243  1.00  0.00    -0.143 C  
BRANCH  12  13
HETATM   13  C   UNL     1      -9.392  11.903  67.555  1.00  0.00    -0.177 A  
HETATM   14  C   UNL     1     -10.707  11.416  67.503  1.00  0.00    -0.266 A  
HETATM   15  C   UNL     1     -11.713  12.156  66.879  1.00  0.00    -0.374 A  
HETATM   16  C   UNL     1     -11.417  13.389  66.302  1.00  0.00    -0.354 A  
HETATM   17  C   UNL     1     -10.114  13.884  66.348  1.00  0.00    -0.298 A  
HETATM   18  C   UNL     1      -9.107  13.145  66.970  1.00  0.00    -0.231 A  
ENDBRANCH  12  13
ENDBRANCH  11  12
ENDBRANCH   9  11
ENDBRANCH   6   9
TORSDOF 4
ENDMDL
MODEL      200
REMARK 921   NORMALIZED FREE ENERGY PREDICTED BY IDOCK:   -3.38 KCAL/MOL
REMARK 922        TOTAL FREE ENERGY PREDICTED BY IDOCK:   -4.79 KCAL/MOL
REMARK 923 INTER-LIGAND FREE ENERGY PREDICTED BY IDOCK:   -4.25 KCAL/MOL
REMARK 924 INTRA-LIGAND FREE ENERGY PREDICTED BY IDOCK:   -0.54 KCAL/MOL
REMARK 927      BINDING AFFINITY PREDICTED BY RF-SCORE:    0.00 PKD
ROOT
HETATM    1  O   UNL     1      -7.299  11.971  69.197  1.00  0.00    -0.272 OA 
HETATM    2  C   UNL     1      -7.808  13.053  68.543  1.00  0.00    -0.105 A  
HETATM    3  H   UNL     1      -7.459  11.087  68.889  1.00  0.00     0.000 HD 
HETATM    4  C   UNL     1      -7.572  14.347  68.994  1.00  0.00    -0.106 A  
HETATM    5  C   UNL     1      -8.130  15.424  68.302  1.00  0.00    -0.136 A  
HETATM    6  C   UNL     1      -8.920  15.208  67.160  1.00  0.00    -0.231 A  
HETATM    7  C   UNL     1      -8.579  12.821  67.409  1.00  0.00    -0.194 A  
HETATM    8  C   UNL     1      -9.138  13.899  66.714  1.00  0.00    -0.238 A  
ENDROOT
BRANCH   6   9
HETATM    9  C   UNL     1      -9.509  16.400  66.487  1.00  0.00    -0.272 C  
HETATM   10  O   UNL     1      -9.926  16.371  65.340  1.00  0.00    -0.534 OA 
BRANCH   9  11
HETATM   11  O   UNL     1      -9.476  17.482  67.299  1.00  0.00    -0.246 OA 
BRANCH  11  12
HETATM   12  C   UNL     1      -9.322  18.752  66.647  1.00  0.00    -0.329 C  
BRANCH  12  13
HETATM   13  C   UNL     1      -7.904  19.238  66.806  1.00  0.00    -0.276 A  
HETATM   14  C   UNL     1      -7.619  20.356  67.604  1.00  0.00    -0.323 A  
HETATM   15  C   UNL     1      -6.304  20.797  67.763  1.00  0.00    -0.371 A  
HETATM   16  C   UNL     1      -5.261  20.126  67.128  1.00  0.00    -0.163 A  
HETATM   17  C   UNL     1      -5.531  19.014  66.333  1.00  0.00    -0.173 A  
HETATM   18  C   UNL     1      -6.845  18.573  66.171  1.00  0.00    -0.285 A  
ENDBRANCH  12  13
ENDBRANCH  11  12
ENDBRANCH   9  11
ENDBRANCH   6   9
TORSDOF 4
ENDMDL
MODEL      201
REMARK 921   NORMALIZED FREE ENERGY PREDICTED BY IDOCK:   -3.38 KCAL/MOL
REMARK 922        TOTAL FREE ENERGY PREDICTED BY IDOCK:   -4.79 KCAL/MOL
REMARK 923 INTER-LIGAND FREE ENERGY PREDICTED BY IDOCK:   -4.09 KCAL/MOL
REMARK 924 INTRA-LIGAND FREE ENERGY PREDICTED BY IDOCK:   -0.70 KCAL/MOL
REMARK 927      BINDING AFFINITY PREDICTED BY RF-SCORE:    0.00 PKD
ROOT
HETATM    1  O   UNL     1     -11.134   7.975  67.618  1.00  0.00    -0.495 OA 
HETATM    2  C   UNL     1     -10.356   9.085  67.474  1.00  0.00    -0.264 A  
HETATM    3  H   UNL     1     -11.274   7.576  68.468  1.00  0.00     0.000 HD 
HETATM    4  C   UNL     1     -10.152   9.669  66.229  1.00  0.00    -0.322 A  
HETATM    5  C   UNL     1      -9.332  10.795  66.129  1.00  0.00    -0.209 A  
HETATM    6  C   UNL     1      -8.718  11.337  67.271  1.00  0.00    -0.145 A  
HETATM    7  C   UNL     1      -9.765   9.614  68.617  1.00  0.00    -0.162 A  
HETATM    8  C   UNL     1      -8.944  10.742  68.519  1.00  0.00    -0.160 A  
ENDROOT
BRANCH   6   9
HETATM    9  C   UNL     1      -7.832  12.520  67.088  1.00  0.00    -0.123 C  
HETATM   10  O   UNL     1      -6.619  12.426  66.980  1.00  0.00    -0.127 OA 
BRANCH   9  11
HETATM   11  O   UNL     1      -8.547  13.669  67.096  1.00  0.00    -0.203 OA 
BRANCH  11  12
HETATM   12  C   UNL     1      -8.472  14.447  68.301  1.00  0.00    -0.165 C  
BRANCH  12  13
HETATM   13  C   UNL     1      -9.837  14.543  68.932  1.00  0.00    -0.191 A  
HETATM   14  C   UNL     1     -10.913  13.804  68.419  1.00  0.00    -0.275 A  
HETATM   15  C   UNL     1     -12.174  13.882  69.013  1.00  0.00    -0.274 A  
HETATM   16  C   UNL     1     -12.373  14.697  70.125  1.00  0.00    -0.390 A  
HETATM   17  C   UNL     1     -11.312  15.437  70.645  1.00  0.00    -0.360 A  
HETATM   18  C   UNL     1     -10.051  15.362  70.051  1.00  0.00    -0.224 A  
ENDBRANCH  12  13
ENDBRANCH  11  12
ENDBRANCH   9  11
ENDBRANCH   6   9
TORSDOF 4
ENDMDL
MODEL      202
REMARK 921   NORMALIZED FREE ENERGY PREDICTED BY IDOCK:   -3.36 KCAL/MOL
REMARK 922        TOTAL FREE ENERGY PREDICTED BY IDOCK:   -4.77 KCAL/MOL
REMARK 923 INTER-LIGAND FREE ENERGY PREDICTED BY IDOCK:   -4.12 KCAL/MOL
REMARK 924 INTRA-LIGAND FREE ENERGY PREDICTED BY IDOCK:   -0.65 KCAL/MOL
REMARK 927      BINDING AFFINITY PREDICTED BY RF-SCORE:    0.00 PKD
ROOT
HETATM    1  O   UNL     1     -12.050  11.010  68.061  1.00  0.00    -0.744 OA 
HETATM    2  C   UNL     1     -11.040  10.484  68.810  1.00  0.00    -0.265 A  
HETATM    3  H   UNL     1     -12.960  10.882  68.299  1.00  0.00     0.000 HD 
HETATM    4  C   UNL     1      -9.708  10.670  68.461  1.00  0.00    -0.177 A  
HETATM    5  C   UNL     1      -8.708  10.097  69.250  1.00  0.00    -0.186 A  
HETATM    6  C   UNL     1      -9.040   9.339  70.386  1.00  0.00    -0.288 A  
HETATM    7  C   UNL     1     -11.387   9.746  69.937  1.00  0.00    -0.238 A  
HETATM    8  C   UNL     1     -10.387   9.171  70.729  1.00  0.00    -0.323 A  
ENDROOT
BRANCH   6   9
HETATM    9  C   UNL     1      -7.925   8.731  71.165  1.00  0.00    -0.138 C  
HETATM   10  O   UNL     1      -7.199   9.384  71.898  1.00  0.00    -0.300 OA 
BRANCH   9  11
HETATM   11  O   UNL     1      -7.825   7.405  70.916  1.00  0.00    -0.093 OA 
BRANCH  11  12
HETATM   12  C   UNL     1      -7.582   6.568  72.057  1.00  0.00    -0.093 C  
BRANCH  12  13
HETATM   13  C   UNL     1      -8.878   5.957  72.526  1.00  0.00    -0.132 A  
HETATM   14  C   UNL     1      -9.940   5.764  71.630  1.00  0.00    -0.218 A  
HETATM   15  C   UNL     1     -11.135   5.184  72.061  1.00  0.00    -0.085 A  
HETATM   16  C   UNL     1     -11.281   4.790  73.389  1.00  0.00    -0.425 A  
HETATM   17  C   UNL     1     -10.232   4.976  74.289  1.00  0.00    -0.291 A  
HETATM   18  C   UNL     1      -9.038   5.557  73.861  1.00  0.00    -0.122 A  
ENDBRANCH  12  13
ENDBRANCH  11  12
ENDBRANCH   9  11
ENDBRANCH   6   9
TORSDOF 4
ENDMDL
MODEL      203
REMARK 921   NORMALIZED FREE ENERGY PREDICTED BY IDOCK:   -3.36 KCAL/MOL
REMARK 922        TOTAL FREE ENERGY PREDICTED BY IDOCK:   -4.76 KCAL/MOL
REMARK 923 INTER-LIGAND FREE ENERGY PREDICTED BY IDOCK:   -4.18 KCAL/MOL
REMARK 924 INTRA-LIGAND FREE ENERGY PREDICTED BY IDOCK:   -0.58 KCAL/MOL
REMARK 927      BINDING AFFINITY PREDICTED BY RF-SCORE:    0.00 PKD
ROOT
HETATM    1  O   UNL     1      -8.009   5.457  73.198  1.00  0.00    -0.103 OA 
HETATM    2  C   UNL     1      -8.196   6.451  72.285  1.00  0.00    -0.107 A  
HETATM    3  H   UNL     1      -8.459   4.624  73.122  1.00  0.00     0.000 HD 
HETATM    4  C   UNL     1      -7.537   7.670  72.398  1.00  0.00    -0.095 A  
HETATM    5  C   UNL     1      -7.775   8.665  71.447  1.00  0.00    -0.150 A  
HETATM    6  C   UNL     1      -8.670   8.443  70.387  1.00  0.00    -0.142 A  
HETATM    7  C   UNL     1      -9.077   6.209  71.236  1.00  0.00    -0.147 A  
HETATM    8  C   UNL     1      -9.316   7.205  70.283  1.00  0.00    -0.155 A  
ENDROOT
BRANCH   6   9
HETATM    9  C   UNL     1      -8.900   9.558  69.426  1.00  0.00    -0.170 C  
HETATM   10  O   UNL     1      -8.039  10.378  69.148  1.00  0.00    -0.129 OA 
BRANCH   9  11
HETATM   11  O   UNL     1     -10.169   9.541  68.957  1.00  0.00    -0.185 OA 
BRANCH  11  12
HETATM   12  C   UNL     1     -10.775  10.825  68.740  1.00  0.00    -0.208 C  
BRANCH  12  13
HETATM   13  C   UNL     1     -11.669  11.170  69.903  1.00  0.00    -0.433 A  
HETATM   14  C   UNL     1     -12.037  12.501  70.148  1.00  0.00    -0.368 A  
HETATM   15  C   UNL     1     -12.878  12.820  71.217  1.00  0.00    -0.355 A  
HETATM   16  C   UNL     1     -13.360  11.812  72.050  1.00  0.00    -0.417 A  
HETATM   17  C   UNL     1     -13.002  10.485  71.817  1.00  0.00    -0.582 A  
HETATM   18  C   UNL     1     -12.160  10.166  70.750  1.00  0.00    -0.438 A  
ENDBRANCH  12  13
ENDBRANCH  11  12
ENDBRANCH   9  11
ENDBRANCH   6   9
TORSDOF 4
ENDMDL
MODEL      204
REMARK 921   NORMALIZED FREE ENERGY PREDICTED BY IDOCK:   -3.35 KCAL/MOL
REMARK 922        TOTAL FREE ENERGY PREDICTED BY IDOCK:   -4.76 KCAL/MOL
REMARK 923 INTER-LIGAND FREE ENERGY PREDICTED BY IDOCK:   -4.30 KCAL/MOL
REMARK 924 INTRA-LIGAND FREE ENERGY PREDICTED BY IDOCK:   -0.45 KCAL/MOL
REMARK 927      BINDING AFFINITY PREDICTED BY RF-SCORE:    0.00 PKD
ROOT
HETATM    1  O   UNL     1      -7.498   8.963  63.687  1.00  0.00    -0.100 OA 
HETATM    2  C   UNL     1      -8.171   8.467  64.763  1.00  0.00    -0.160 A  
HETATM    3  H   UNL     1      -7.777   9.760  63.254  1.00  0.00     0.000 HD 
HETATM    4  C   UNL     1      -7.762   7.299  65.397  1.00  0.00    -0.111 A  
HETATM    5  C   UNL     1      -8.495   6.820  66.485  1.00  0.00    -0.124 A  
HETATM    6  C   UNL     1      -9.634   7.507  66.939  1.00  0.00    -0.242 A  
HETATM    7  C   UNL     1      -9.289   9.166  65.205  1.00  0.00    -0.224 A  
HETATM    8  C   UNL     1     -10.024   8.688  66.295  1.00  0.00    -0.287 A  
ENDROOT
BRANCH   6   9
HETATM    9  C   UNL     1     -10.386   6.924  68.085  1.00  0.00    -0.190 C  
HETATM   10  O   UNL     1     -11.464   6.367  67.952  1.00  0.00    -0.150 OA 
BRANCH   9  11
HETATM   11  O   UNL     1      -9.732   7.132  69.252  1.00  0.00    -0.158 OA 
BRANCH  11  12
HETATM   12  C   UNL     1      -9.608   8.502  69.665  1.00  0.00    -0.170 C  
BRANCH  12  13
HETATM   13  C   UNL     1     -10.826   8.909  70.455  1.00  0.00    -0.269 A  
HETATM   14  C   UNL     1     -11.455  10.139  70.210  1.00  0.00    -0.381 A  
HETATM   15  C   UNL     1     -12.592  10.509  70.931  1.00  0.00    -0.493 A  
HETATM   16  C   UNL     1     -13.112   9.655  71.901  1.00  0.00    -0.530 A  
HETATM   17  C   UNL     1     -12.496   8.430  72.153  1.00  0.00    -0.422 A  
HETATM   18  C   UNL     1     -11.358   8.059  71.435  1.00  0.00    -0.292 A  
ENDBRANCH  12  13
ENDBRANCH  11  12
ENDBRANCH   9  11
ENDBRANCH   6   9
TORSDOF 4
ENDMDL
MODEL      205
REMARK 921   NORMALIZED FREE ENERGY PREDICTED BY IDOCK:   -3.35 KCAL/MOL
REMARK 922        TOTAL FREE ENERGY PREDICTED BY IDOCK:   -4.75 KCAL/MOL
REMARK 923 INTER-LIGAND FREE ENERGY PREDICTED BY IDOCK:   -4.39 KCAL/MOL
REMARK 924 INTRA-LIGAND FREE ENERGY PREDICTED BY IDOCK:   -0.37 KCAL/MOL
REMARK 927      BINDING AFFINITY PREDICTED BY RF-SCORE:    0.00 PKD
ROOT
HETATM    1  O   UNL     1      -8.163   5.766  68.388  1.00  0.00    -0.106 OA 
HETATM    2  C   UNL     1      -8.697   6.856  67.769  1.00  0.00    -0.120 A  
HETATM    3  H   UNL     1      -7.225   5.671  68.500  1.00  0.00     0.000 HD 
HETATM    4  C   UNL     1     -10.070   6.994  67.605  1.00  0.00    -0.218 A  
HETATM    5  C   UNL     1     -10.570   8.121  66.948  1.00  0.00    -0.311 A  
HETATM    6  C   UNL     1      -9.699   9.108  66.457  1.00  0.00    -0.306 A  
HETATM    7  C   UNL     1      -7.820   7.828  67.299  1.00  0.00    -0.117 A  
HETATM    8  C   UNL     1      -8.318   8.957  66.641  1.00  0.00    -0.111 A  
ENDROOT
BRANCH   6   9
HETATM    9  C   UNL     1     -10.297  10.268  65.740  1.00  0.00    -0.165 C  
HETATM   10  O   UNL     1     -10.270  10.378  64.525  1.00  0.00    -0.342 OA 
BRANCH   9  11
HETATM   11  O   UNL     1     -10.820  11.162  66.612  1.00  0.00    -0.266 OA 
BRANCH  11  12
HETATM   12  C   UNL     1     -11.589  12.227  66.034  1.00  0.00    -0.393 C  
BRANCH  12  13
HETATM   13  C   UNL     1     -10.780  13.499  66.035  1.00  0.00    -0.280 A  
HETATM   14  C   UNL     1      -9.731  13.676  66.950  1.00  0.00    -0.262 A  
HETATM   15  C   UNL     1      -8.972  14.848  66.941  1.00  0.00    -0.277 A  
HETATM   16  C   UNL     1      -9.252  15.854  66.019  1.00  0.00    -0.372 A  
HETATM   17  C   UNL     1     -10.292  15.690  65.104  1.00  0.00    -0.366 A  
HETATM   18  C   UNL     1     -11.053  14.520  65.113  1.00  0.00    -0.374 A  
ENDBRANCH  12  13
ENDBRANCH  11  12
ENDBRANCH   9  11
ENDBRANCH   6   9
TORSDOF 4
ENDMDL
MODEL      206
REMARK 921   NORMALIZED FREE ENERGY PREDICTED BY IDOCK:   -3.30 KCAL/MOL
REMARK 922        TOTAL FREE ENERGY PREDICTED BY IDOCK:   -4.69 KCAL/MOL
REMARK 923 INTER-LIGAND FREE ENERGY PREDICTED BY IDOCK:   -3.88 KCAL/MOL
REMARK 924 INTRA-LIGAND FREE ENERGY PREDICTED BY IDOCK:   -0.82 KCAL/MOL
REMARK 927      BINDING AFFINITY PREDICTED BY RF-SCORE:    0.00 PKD
ROOT
HETATM    1  O   UNL     1     -11.900   7.229  72.559  1.00  0.00    -0.446 OA 
HETATM    2  C   UNL     1     -11.212   6.543  71.603  1.00  0.00    -0.270 A  
HETATM    3  H   UNL     1     -12.654   7.762  72.338  1.00  0.00     0.000 HD 
HETATM    4  C   UNL     1     -10.108   5.763  71.927  1.00  0.00    -0.228 A  
HETATM    5  C   UNL     1      -9.424   5.092  70.911  1.00  0.00    -0.223 A  
HETATM    6  C   UNL     1      -9.843   5.201  69.574  1.00  0.00    -0.278 A  
HETATM    7  C   UNL     1     -11.648   6.654  70.287  1.00  0.00    -0.454 A  
HETATM    8  C   UNL     1     -10.964   5.982  69.268  1.00  0.00    -0.436 A  
ENDROOT
BRANCH   6   9
HETATM    9  C   UNL     1      -9.050   4.483  68.537  1.00  0.00    -0.121 C  
HETATM   10  O   UNL     1      -8.411   3.471  68.777  1.00  0.00    -0.070 OA 
BRANCH   9  11
HETATM   11  O   UNL     1      -9.116   5.123  67.346  1.00  0.00    -0.112 OA 
BRANCH  11  12
HETATM   12  C   UNL     1      -8.087   6.093  67.097  1.00  0.00    -0.106 C  
BRANCH  12  13
HETATM   13  C   UNL     1      -8.628   7.481  67.332  1.00  0.00    -0.118 A  
HETATM   14  C   UNL     1      -8.258   8.205  68.475  1.00  0.00    -0.125 A  
HETATM   15  C   UNL     1      -8.747   9.496  68.686  1.00  0.00    -0.127 A  
HETATM   16  C   UNL     1      -9.608  10.076  67.757  1.00  0.00    -0.168 A  
HETATM   17  C   UNL     1      -9.982   9.367  66.616  1.00  0.00    -0.326 A  
HETATM   18  C   UNL     1      -9.496   8.076  66.405  1.00  0.00    -0.268 A  
ENDBRANCH  12  13
ENDBRANCH  11  12
ENDBRANCH   9  11
ENDBRANCH   6   9
TORSDOF 4
ENDMDL
MODEL      207
REMARK 921   NORMALIZED FREE ENERGY PREDICTED BY IDOCK:   -3.30 KCAL/MOL
REMARK 922        TOTAL FREE ENERGY PREDICTED BY IDOCK:   -4.69 KCAL/MOL
REMARK 923 INTER-LIGAND FREE ENERGY PREDICTED BY IDOCK:   -4.39 KCAL/MOL
REMARK 924 INTRA-LIGAND FREE ENERGY PREDICTED BY IDOCK:   -0.30 KCAL/MOL
REMARK 927      BINDING AFFINITY PREDICTED BY RF-SCORE:    0.00 PKD
ROOT
HETATM    1  O   UNL     1      -8.031   5.885  72.588  1.00  0.00    -0.104 OA 
HETATM    2  C   UNL     1      -8.545   6.822  71.742  1.00  0.00    -0.121 A  
HETATM    3  H   UNL     1      -7.779   6.106  73.477  1.00  0.00     0.000 HD 
HETATM    4  C   UNL     1      -8.913   6.498  70.442  1.00  0.00    -0.152 A  
HETATM    5  C   UNL     1      -9.419   7.496  69.606  1.00  0.00    -0.156 A  
HETATM    6  C   UNL     1      -9.558   8.815  70.070  1.00  0.00    -0.177 A  
HETATM    7  C   UNL     1      -8.686   8.120  72.223  1.00  0.00    -0.243 A  
HETATM    8  C   UNL     1      -9.193   9.121  71.387  1.00  0.00    -0.208 A  
ENDROOT
BRANCH   6   9
HETATM    9  C   UNL     1     -10.076   9.837  69.117  1.00  0.00    -0.192 C  
HETATM   10  O   UNL     1     -10.026   9.694  67.906  1.00  0.00    -0.153 OA 
BRANCH   9  11
HETATM   11  O   UNL     1     -10.556  10.917  69.776  1.00  0.00    -0.194 OA 
BRANCH  11  12
HETATM   12  C   UNL     1     -11.853  11.376  69.368  1.00  0.00    -0.351 C  
BRANCH  12  13
HETATM   13  C   UNL     1     -12.113  12.747  69.939  1.00  0.00    -0.329 A  
HETATM   14  C   UNL     1     -11.736  13.897  69.230  1.00  0.00    -0.381 A  
HETATM   15  C   UNL     1     -11.990  15.167  69.753  1.00  0.00    -0.367 A  
HETATM   16  C   UNL     1     -12.623  15.300  70.987  1.00  0.00    -0.469 A  
HETATM   17  C   UNL     1     -13.003  14.164  71.701  1.00  0.00    -0.423 A  
HETATM   18  C   UNL     1     -12.748  12.894  71.181  1.00  0.00    -0.366 A  
ENDBRANCH  12  13
ENDBRANCH  11  12
ENDBRANCH   9  11
ENDBRANCH   6   9
TORSDOF 4
ENDMDL
MODEL      208
REMARK 921   NORMALIZED FREE ENERGY PREDICTED BY IDOCK:   -3.28 KCAL/MOL
REMARK 922        TOTAL FREE ENERGY PREDICTED BY IDOCK:   -4.66 KCAL/MOL
REMARK 923 INTER-LIGAND FREE ENERGY PREDICTED BY IDOCK:   -4.33 KCAL/MOL
REMARK 924 INTRA-LIGAND FREE ENERGY PREDICTED BY IDOCK:   -0.33 KCAL/MOL
REMARK 927      BINDING AFFINITY PREDICTED BY RF-SCORE:    0.00 PKD
ROOT
HETATM    1  O   UNL     1      -8.904   6.840  74.323  1.00  0.00    -0.149 OA 
HETATM    2  C   UNL     1      -9.351   7.610  73.292  1.00  0.00    -0.243 A  
HETATM    3  H   UNL     1      -7.978   6.770  74.522  1.00  0.00     0.000 HD 
HETATM    4  C   UNL     1     -10.707   7.712  73.001  1.00  0.00    -0.449 A  
HETATM    5  C   UNL     1     -11.117   8.500  71.923  1.00  0.00    -0.395 A  
HETATM    6  C   UNL     1     -10.174   9.185  71.138  1.00  0.00    -0.384 A  
HETATM    7  C   UNL     1      -8.404   8.290  72.533  1.00  0.00    -0.235 A  
HETATM    8  C   UNL     1      -8.813   9.080  71.453  1.00  0.00    -0.220 A  
ENDROOT
BRANCH   6   9
HETATM    9  C   UNL     1     -10.678   9.983  69.985  1.00  0.00    -0.299 C  
HETATM   10  O   UNL     1     -11.830  10.381  69.911  1.00  0.00    -0.258 OA 
BRANCH   9  11
HETATM   11  O   UNL     1      -9.710  10.160  69.056  1.00  0.00    -0.184 OA 
BRANCH  11  12
HETATM   12  C   UNL     1      -9.802  11.360  68.274  1.00  0.00    -0.200 C  
BRANCH  12  13
HETATM   13  C   UNL     1      -9.460  11.060  66.837  1.00  0.00    -0.197 A  
HETATM   14  C   UNL     1      -8.311  10.323  66.517  1.00  0.00    -0.126 A  
HETATM   15  C   UNL     1      -8.003  10.031  65.186  1.00  0.00    -0.145 A  
HETATM   16  C   UNL     1      -8.839  10.472  64.164  1.00  0.00    -0.205 A  
HETATM   17  C   UNL     1      -9.985  11.206  64.469  1.00  0.00    -0.350 A  
HETATM   18  C   UNL     1     -10.294  11.500  65.798  1.00  0.00    -0.295 A  
ENDBRANCH  12  13
ENDBRANCH  11  12
ENDBRANCH   9  11
ENDBRANCH   6   9
TORSDOF 4
ENDMDL
MODEL      209
REMARK 921   NORMALIZED FREE ENERGY PREDICTED BY IDOCK:   -3.25 KCAL/MOL
REMARK 922        TOTAL FREE ENERGY PREDICTED BY IDOCK:   -4.63 KCAL/MOL
REMARK 923 INTER-LIGAND FREE ENERGY PREDICTED BY IDOCK:   -4.17 KCAL/MOL
REMARK 924 INTRA-LIGAND FREE ENERGY PREDICTED BY IDOCK:   -0.46 KCAL/MOL
REMARK 927      BINDING AFFINITY PREDICTED BY RF-SCORE:    0.00 PKD
ROOT
HETATM    1  O   UNL     1      -9.927   6.714  69.053  1.00  0.00    -0.148 OA 
HETATM    2  C   UNL     1     -10.289   7.972  68.675  1.00  0.00    -0.200 A  
HETATM    3  H   UNL     1      -9.941   6.448  69.965  1.00  0.00     0.000 HD 
HETATM    4  C   UNL     1     -10.268   8.360  67.341  1.00  0.00    -0.328 A  
HETATM    5  C   UNL     1     -10.631   9.666  67.004  1.00  0.00    -0.267 A  
HETATM    6  C   UNL     1     -11.015  10.582  67.998  1.00  0.00    -0.345 A  
HETATM    7  C   UNL     1     -10.677   8.861  69.673  1.00  0.00    -0.222 A  
HETATM    8  C   UNL     1     -11.041  10.169  69.337  1.00  0.00    -0.288 A  
ENDROOT
BRANCH   6   9
HETATM    9  C   UNL     1     -11.361  11.967  67.572  1.00  0.00    -0.314 C  
HETATM   10  O   UNL     1     -12.080  12.202  66.614  1.00  0.00    -0.622 OA 
BRANCH   9  11
HETATM   11  O   UNL     1     -10.749  12.884  68.358  1.00  0.00    -0.240 OA 
BRANCH  11  12
HETATM   12  C   UNL     1     -10.324  14.088  67.702  1.00  0.00    -0.242 C  
BRANCH  12  13
HETATM   13  C   UNL     1      -8.890  14.385  68.061  1.00  0.00    -0.178 A  
HETATM   14  C   UNL     1      -8.558  15.560  68.754  1.00  0.00    -0.188 A  
HETATM   15  C   UNL     1      -7.232  15.828  69.100  1.00  0.00    -0.192 A  
HETATM   16  C   UNL     1      -6.226  14.927  68.760  1.00  0.00    -0.083 A  
HETATM   17  C   UNL     1      -6.543  13.756  68.073  1.00  0.00    -0.142 A  
HETATM   18  C   UNL     1      -7.868  13.487  67.723  1.00  0.00    -0.167 A  
ENDBRANCH  12  13
ENDBRANCH  11  12
ENDBRANCH   9  11
ENDBRANCH   6   9
TORSDOF 4
ENDMDL
MODEL      210
REMARK 921   NORMALIZED FREE ENERGY PREDICTED BY IDOCK:   -3.20 KCAL/MOL
REMARK 922        TOTAL FREE ENERGY PREDICTED BY IDOCK:   -4.57 KCAL/MOL
REMARK 923 INTER-LIGAND FREE ENERGY PREDICTED BY IDOCK:   -3.72 KCAL/MOL
REMARK 924 INTRA-LIGAND FREE ENERGY PREDICTED BY IDOCK:   -0.86 KCAL/MOL
REMARK 927      BINDING AFFINITY PREDICTED BY RF-SCORE:    0.00 PKD
ROOT
HETATM    1  O   UNL     1     -11.066   8.085  73.212  1.00  0.00    -0.258 OA 
HETATM    2  C   UNL     1     -10.877   7.806  71.891  1.00  0.00    -0.235 A  
HETATM    3  H   UNL     1     -10.997   8.972  73.545  1.00  0.00     0.000 HD 
HETATM    4  C   UNL     1     -10.979   6.508  71.404  1.00  0.00    -0.303 A  
HETATM    5  C   UNL     1     -10.759   6.269  70.046  1.00  0.00    -0.346 A  
HETATM    6  C   UNL     1     -10.440   7.325  69.176  1.00  0.00    -0.222 A  
HETATM    7  C   UNL     1     -10.574   8.866  71.043  1.00  0.00    -0.315 A  
HETATM    8  C   UNL     1     -10.354   8.629  69.682  1.00  0.00    -0.213 A  
ENDROOT
BRANCH   6   9
HETATM    9  C   UNL     1     -10.189   6.995  67.745  1.00  0.00    -0.180 C  
HETATM   10  O   UNL     1     -11.024   6.456  67.036  1.00  0.00    -0.365 OA 
BRANCH   9  11
HETATM   11  O   UNL     1      -8.932   7.339  67.380  1.00  0.00    -0.122 OA 
BRANCH  11  12
HETATM   12  C   UNL     1      -8.825   8.236  66.265  1.00  0.00    -0.161 C  
BRANCH  12  13
HETATM   13  C   UNL     1      -8.788   9.660  66.758  1.00  0.00    -0.148 A  
HETATM   14  C   UNL     1      -7.691  10.130  67.497  1.00  0.00    -0.091 A  
HETATM   15  C   UNL     1      -7.650  11.454  67.941  1.00  0.00    -0.108 A  
HETATM   16  C   UNL     1      -8.702  12.320  67.651  1.00  0.00    -0.175 A  
HETATM   17  C   UNL     1      -9.797  11.865  66.918  1.00  0.00    -0.217 A  
HETATM   18  C   UNL     1      -9.840  10.542  66.475  1.00  0.00    -0.255 A  
ENDBRANCH  12  13
ENDBRANCH  11  12
ENDBRANCH   9  11
ENDBRANCH   6   9
TORSDOF 4
ENDMDL
MODEL      211
REMARK 921   NORMALIZED FREE ENERGY PREDICTED BY IDOCK:   -3.20 KCAL/MOL
REMARK 922        TOTAL FREE ENERGY PREDICTED BY IDOCK:   -4.57 KCAL/MOL
REMARK 923 INTER-LIGAND FREE ENERGY PREDICTED BY IDOCK:   -3.91 KCAL/MOL
REMARK 924 INTRA-LIGAND FREE ENERGY PREDICTED BY IDOCK:   -0.66 KCAL/MOL
REMARK 927      BINDING AFFINITY PREDICTED BY RF-SCORE:    0.00 PKD
ROOT
HETATM    1  O   UNL     1     -13.296  10.335  71.084  1.00  0.00    -0.361 OA 
HETATM    2  C   UNL     1     -12.752   9.134  71.429  1.00  0.00    -0.318 A  
HETATM    3  H   UNL     1     -12.752  11.096  70.921  1.00  0.00     0.000 HD 
HETATM    4  C   UNL     1     -13.549   8.021  71.666  1.00  0.00    -0.390 A  
HETATM    5  C   UNL     1     -12.947   6.815  72.035  1.00  0.00    -0.156 A  
HETATM    6  C   UNL     1     -11.551   6.724  72.166  1.00  0.00    -0.324 A  
HETATM    7  C   UNL     1     -11.367   9.059  71.542  1.00  0.00    -0.416 A  
HETATM    8  C   UNL     1     -10.762   7.853  71.911  1.00  0.00    -0.290 A  
ENDROOT
BRANCH   6   9
HETATM    9  C   UNL     1     -10.977   5.416  72.592  1.00  0.00    -0.268 C  
HETATM   10  O   UNL     1     -10.927   5.067  73.760  1.00  0.00    -0.297 OA 
BRANCH   9  11
HETATM   11  O   UNL     1     -10.506   4.723  71.529  1.00  0.00    -0.167 OA 
BRANCH  11  12
HETATM   12  C   UNL     1      -9.099   4.844  71.274  1.00  0.00    -0.142 C  
BRANCH  12  13
HETATM   13  C   UNL     1      -8.874   5.252  69.840  1.00  0.00    -0.132 A  
HETATM   14  C   UNL     1      -7.585   5.565  69.382  1.00  0.00    -0.078 A  
HETATM   15  C   UNL     1      -7.375   5.928  68.050  1.00  0.00    -0.080 A  
HETATM   16  C   UNL     1      -8.447   5.980  67.163  1.00  0.00    -0.104 A  
HETATM   17  C   UNL     1      -9.732   5.670  67.606  1.00  0.00    -0.135 A  
HETATM   18  C   UNL     1      -9.945   5.309  68.937  1.00  0.00    -0.250 A  
ENDBRANCH  12  13
ENDBRANCH  11  12
ENDBRANCH   9  11
ENDBRANCH   6   9
TORSDOF 4
ENDMDL
MODEL      212
REMARK 921   NORMALIZED FREE ENERGY PREDICTED BY IDOCK:   -3.18 KCAL/MOL
REMARK 922        TOTAL FREE ENERGY PREDICTED BY IDOCK:   -4.54 KCAL/MOL
REMARK 923 INTER-LIGAND FREE ENERGY PREDICTED BY IDOCK:   -4.36 KCAL/MOL
REMARK 924 INTRA-LIGAND FREE ENERGY PREDICTED BY IDOCK:   -0.19 KCAL/MOL
REMARK 927      BINDING AFFINITY PREDICTED BY RF-SCORE:    0.00 PKD
ROOT
HETATM    1  O   UNL     1      -9.534   6.277  65.997  1.00  0.00    -0.328 OA 
HETATM    2  C   UNL     1      -9.196   7.527  66.422  1.00  0.00    -0.167 A  
HETATM    3  H   UNL     1     -10.213   6.143  65.347  1.00  0.00     0.000 HD 
HETATM    4  C   UNL     1      -8.202   7.722  67.374  1.00  0.00    -0.123 A  
HETATM    5  C   UNL     1      -7.902   9.021  67.792  1.00  0.00    -0.101 A  
HETATM    6  C   UNL     1      -8.593  10.122  67.258  1.00  0.00    -0.125 A  
HETATM    7  C   UNL     1      -9.883   8.605  65.874  1.00  0.00    -0.073 A  
HETATM    8  C   UNL     1      -9.584   9.907  66.291  1.00  0.00    -0.265 A  
ENDROOT
BRANCH   6   9
HETATM    9  C   UNL     1      -8.244  11.476  67.770  1.00  0.00    -0.135 C  
HETATM   10  O   UNL     1      -7.762  11.660  68.877  1.00  0.00    -0.125 OA 
BRANCH   9  11
HETATM   11  O   UNL     1      -8.565  12.434  66.869  1.00  0.00    -0.195 OA 
BRANCH  11  12
HETATM   12  C   UNL     1      -9.821  13.097  67.079  1.00  0.00    -0.244 C  
BRANCH  12  13
HETATM   13  C   UNL     1     -10.690  12.943  65.857  1.00  0.00    -0.291 A  
HETATM   14  C   UNL     1     -12.084  13.065  65.954  1.00  0.00    -0.503 A  
HETATM   15  C   UNL     1     -12.888  12.937  64.819  1.00  0.00    -0.359 A  
HETATM   16  C   UNL     1     -12.308  12.688  63.578  1.00  0.00    -0.591 A  
HETATM   17  C   UNL     1     -10.923  12.565  63.468  1.00  0.00    -0.472 A  
HETATM   18  C   UNL     1     -10.118  12.691  64.602  1.00  0.00    -0.260 A  
ENDBRANCH  12  13
ENDBRANCH  11  12
ENDBRANCH   9  11
ENDBRANCH   6   9
TORSDOF 4
ENDMDL
MODEL      213
REMARK 921   NORMALIZED FREE ENERGY PREDICTED BY IDOCK:   -3.15 KCAL/MOL
REMARK 922        TOTAL FREE ENERGY PREDICTED BY IDOCK:   -4.51 KCAL/MOL
REMARK 923 INTER-LIGAND FREE ENERGY PREDICTED BY IDOCK:   -4.18 KCAL/MOL
REMARK 924 INTRA-LIGAND FREE ENERGY PREDICTED BY IDOCK:   -0.33 KCAL/MOL
REMARK 927      BINDING AFFINITY PREDICTED BY RF-SCORE:    0.00 PKD
ROOT
HETATM    1  O   UNL     1      -6.934   5.760  66.259  1.00  0.00    -0.057 OA 
HETATM    2  C   UNL     1      -7.307   6.316  67.446  1.00  0.00    -0.084 A  
HETATM    3  H   UNL     1      -7.037   6.228  65.439  1.00  0.00     0.000 HD 
HETATM    4  C   UNL     1      -7.155   5.630  68.645  1.00  0.00    -0.066 A  
HETATM    5  C   UNL     1      -7.569   6.234  69.834  1.00  0.00    -0.092 A  
HETATM    6  C   UNL     1      -8.132   7.521  69.825  1.00  0.00    -0.126 A  
HETATM    7  C   UNL     1      -7.852   7.595  67.418  1.00  0.00    -0.118 A  
HETATM    8  C   UNL     1      -8.267   8.202  68.608  1.00  0.00    -0.125 A  
ENDROOT
BRANCH   6   9
HETATM    9  C   UNL     1      -8.579   8.094  71.126  1.00  0.00    -0.133 C  
HETATM   10  O   UNL     1      -8.004   9.022  71.671  1.00  0.00    -0.326 OA 
BRANCH   9  11
HETATM   11  O   UNL     1      -9.655   7.427  71.606  1.00  0.00    -0.152 OA 
BRANCH  11  12
HETATM   12  C   UNL     1     -10.826   7.444  70.775  1.00  0.00    -0.241 C  
BRANCH  12  13
HETATM   13  C   UNL     1     -11.597   8.718  71.007  1.00  0.00    -0.337 A  
HETATM   14  C   UNL     1     -12.672   8.746  71.908  1.00  0.00    -0.427 A  
HETATM   15  C   UNL     1     -13.377   9.931  72.134  1.00  0.00    -0.498 A  
HETATM   16  C   UNL     1     -13.015  11.097  71.463  1.00  0.00    -0.542 A  
HETATM   17  C   UNL     1     -11.949  11.082  70.566  1.00  0.00    -0.474 A  
HETATM   18  C   UNL     1     -11.244   9.899  70.338  1.00  0.00    -0.379 A  
ENDBRANCH  12  13
ENDBRANCH  11  12
ENDBRANCH   9  11
ENDBRANCH   6   9
TORSDOF 4
ENDMDL
MODEL      214
REMARK 921   NORMALIZED FREE ENERGY PREDICTED BY IDOCK:   -3.15 KCAL/MOL
REMARK 922        TOTAL FREE ENERGY PREDICTED BY IDOCK:   -4.50 KCAL/MOL
REMARK 923 INTER-LIGAND FREE ENERGY PREDICTED BY IDOCK:   -3.90 KCAL/MOL
REMARK 924 INTRA-LIGAND FREE ENERGY PREDICTED BY IDOCK:   -0.61 KCAL/MOL
REMARK 927      BINDING AFFINITY PREDICTED BY RF-SCORE:    0.00 PKD
ROOT
HETATM    1  O   UNL     1     -13.114  14.375  64.800  1.00  0.00    -0.548 OA 
HETATM    2  C   UNL     1     -12.049  13.528  64.881  1.00  0.00    -0.397 A  
HETATM    3  H   UNL     1     -13.753  14.300  64.102  1.00  0.00     0.000 HD 
HETATM    4  C   UNL     1     -11.114  13.638  65.903  1.00  0.00    -0.289 A  
HETATM    5  C   UNL     1     -10.029  12.758  65.935  1.00  0.00    -0.273 A  
HETATM    6  C   UNL     1      -9.881  11.770  64.947  1.00  0.00    -0.251 A  
HETATM    7  C   UNL     1     -11.925  12.549  63.901  1.00  0.00    -0.563 A  
HETATM    8  C   UNL     1     -10.839  11.666  63.931  1.00  0.00    -0.471 A  
ENDROOT
BRANCH   6   9
HETATM    9  C   UNL     1      -8.685  10.884  65.024  1.00  0.00    -0.101 C  
HETATM   10  O   UNL     1      -8.046  10.552  64.038  1.00  0.00    -0.125 OA 
BRANCH   9  11
HETATM   11  O   UNL     1      -8.451  10.493  66.298  1.00  0.00    -0.139 OA 
BRANCH  11  12
HETATM   12  C   UNL     1      -7.071  10.343  66.665  1.00  0.00    -0.112 C  
BRANCH  12  13
HETATM   13  C   UNL     1      -6.718  11.340  67.739  1.00  0.00    -0.069 A  
HETATM   14  C   UNL     1      -6.578  10.931  69.073  1.00  0.00    -0.061 A  
HETATM   15  C   UNL     1      -6.236  11.852  70.066  1.00  0.00    -0.123 A  
HETATM   16  C   UNL     1      -6.030  13.189  69.735  1.00  0.00    -0.127 A  
HETATM   17  C   UNL     1      -6.165  13.608  68.413  1.00  0.00    -0.095 A  
HETATM   18  C   UNL     1      -6.509  12.689  67.420  1.00  0.00    -0.150 A  
ENDBRANCH  12  13
ENDBRANCH  11  12
ENDBRANCH   9  11
ENDBRANCH   6   9
TORSDOF 4
ENDMDL
MODEL      215
REMARK 921   NORMALIZED FREE ENERGY PREDICTED BY IDOCK:   -3.13 KCAL/MOL
REMARK 922        TOTAL FREE ENERGY PREDICTED BY IDOCK:   -4.49 KCAL/MOL
REMARK 923 INTER-LIGAND FREE ENERGY PREDICTED BY IDOCK:   -4.16 KCAL/MOL
REMARK 924 INTRA-LIGAND FREE ENERGY PREDICTED BY IDOCK:   -0.33 KCAL/MOL
REMARK 927      BINDING AFFINITY PREDICTED BY RF-SCORE:    0.00 PKD
ROOT
HETATM    1  O   UNL     1      -7.024   2.418  65.363  1.00  0.00    -0.049 OA 
HETATM    2  C   UNL     1      -7.871   3.332  65.916  1.00  0.00    -0.085 A  
HETATM    3  H   UNL     1      -7.304   1.850  64.655  1.00  0.00     0.000 HD 
HETATM    4  C   UNL     1      -7.461   4.163  66.952  1.00  0.00    -0.077 A  
HETATM    5  C   UNL     1      -8.369   5.072  67.498  1.00  0.00    -0.105 A  
HETATM    6  C   UNL     1      -9.685   5.150  67.010  1.00  0.00    -0.173 A  
HETATM    7  C   UNL     1      -9.165   3.403  65.412  1.00  0.00    -0.152 A  
HETATM    8  C   UNL     1     -10.077   4.313  65.958  1.00  0.00    -0.217 A  
ENDROOT
BRANCH   6   9
HETATM    9  C   UNL     1     -10.610   6.121  67.659  1.00  0.00    -0.270 C  
HETATM   10  O   UNL     1     -11.379   6.825  67.024  1.00  0.00    -0.337 OA 
BRANCH   9  11
HETATM   11  O   UNL     1     -10.446   6.125  69.002  1.00  0.00    -0.197 OA 
BRANCH  11  12
HETATM   12  C   UNL     1     -10.111   7.392  69.589  1.00  0.00    -0.186 C  
BRANCH  12  13
HETATM   13  C   UNL     1     -11.285   7.915  70.378  1.00  0.00    -0.240 A  
HETATM   14  C   UNL     1     -12.234   7.031  70.913  1.00  0.00    -0.388 A  
HETATM   15  C   UNL     1     -13.313   7.515  71.656  1.00  0.00    -0.414 A  
HETATM   16  C   UNL     1     -13.453   8.884  71.874  1.00  0.00    -0.464 A  
HETATM   17  C   UNL     1     -12.516   9.772  71.348  1.00  0.00    -0.482 A  
HETATM   18  C   UNL     1     -11.438   9.291  70.603  1.00  0.00    -0.327 A  
ENDBRANCH  12  13
ENDBRANCH  11  12
ENDBRANCH   9  11
ENDBRANCH   6   9
TORSDOF 4
ENDMDL
MODEL      216
REMARK 921   NORMALIZED FREE ENERGY PREDICTED BY IDOCK:   -3.13 KCAL/MOL
REMARK 922        TOTAL FREE ENERGY PREDICTED BY IDOCK:   -4.48 KCAL/MOL
REMARK 923 INTER-LIGAND FREE ENERGY PREDICTED BY IDOCK:   -3.97 KCAL/MOL
REMARK 924 INTRA-LIGAND FREE ENERGY PREDICTED BY IDOCK:   -0.51 KCAL/MOL
REMARK 927      BINDING AFFINITY PREDICTED BY RF-SCORE:    0.00 PKD
ROOT
HETATM    1  O   UNL     1      -9.669   9.926  62.819  1.00  0.00    -0.535 OA 
HETATM    2  C   UNL     1      -9.465  10.180  64.142  1.00  0.00    -0.293 A  
HETATM    3  H   UNL     1      -8.951   9.689  62.245  1.00  0.00     0.000 HD 
HETATM    4  C   UNL     1     -10.517  10.527  64.982  1.00  0.00    -0.221 A  
HETATM    5  C   UNL     1     -10.257  10.796  66.328  1.00  0.00    -0.301 A  
HETATM    6  C   UNL     1      -8.948  10.717  66.833  1.00  0.00    -0.147 A  
HETATM    7  C   UNL     1      -8.165  10.086  64.627  1.00  0.00    -0.163 A  
HETATM    8  C   UNL     1      -7.902  10.355  65.974  1.00  0.00    -0.142 A  
ENDROOT
BRANCH   6   9
HETATM    9  C   UNL     1      -8.736  11.046  68.271  1.00  0.00    -0.144 C  
HETATM   10  O   UNL     1      -7.888  11.837  68.649  1.00  0.00    -0.135 OA 
BRANCH   9  11
HETATM   11  O   UNL     1      -9.572  10.332  69.060  1.00  0.00    -0.182 OA 
BRANCH  11  12
HETATM   12  C   UNL     1      -8.946   9.525  70.070  1.00  0.00    -0.223 C  
BRANCH  12  13
HETATM   13  C   UNL     1      -9.438   8.104  69.966  1.00  0.00    -0.167 A  
HETATM   14  C   UNL     1     -10.805   7.835  69.801  1.00  0.00    -0.211 A  
HETATM   15  C   UNL     1     -11.260   6.519  69.690  1.00  0.00    -0.446 A  
HETATM   16  C   UNL     1     -10.355   5.461  69.741  1.00  0.00    -0.375 A  
HETATM   17  C   UNL     1      -8.994   5.716  69.905  1.00  0.00    -0.142 A  
HETATM   18  C   UNL     1      -8.538   7.031  70.018  1.00  0.00    -0.141 A  
ENDBRANCH  12  13
ENDBRANCH  11  12
ENDBRANCH   9  11
ENDBRANCH   6   9
TORSDOF 4
ENDMDL
MODEL      217
REMARK 921   NORMALIZED FREE ENERGY PREDICTED BY IDOCK:   -3.11 KCAL/MOL
REMARK 922        TOTAL FREE ENERGY PREDICTED BY IDOCK:   -4.46 KCAL/MOL
REMARK 923 INTER-LIGAND FREE ENERGY PREDICTED BY IDOCK:   -3.90 KCAL/MOL
REMARK 924 INTRA-LIGAND FREE ENERGY PREDICTED BY IDOCK:   -0.56 KCAL/MOL
REMARK 927      BINDING AFFINITY PREDICTED BY RF-SCORE:    0.00 PKD
ROOT
HETATM    1  O   UNL     1      -6.855   3.615  69.717  1.00  0.00    -0.036 OA 
HETATM    2  C   UNL     1      -7.268   4.865  69.365  1.00  0.00    -0.056 A  
HETATM    3  H   UNL     1      -7.437   3.008  70.158  1.00  0.00     0.000 HD 
HETATM    4  C   UNL     1      -6.415   5.752  68.719  1.00  0.00    -0.042 A  
HETATM    5  C   UNL     1      -6.878   7.030  68.393  1.00  0.00    -0.074 A  
HETATM    6  C   UNL     1      -8.190   7.418  68.713  1.00  0.00    -0.129 A  
HETATM    7  C   UNL     1      -8.573   5.228  69.679  1.00  0.00    -0.101 A  
HETATM    8  C   UNL     1      -9.038   6.507  69.354  1.00  0.00    -0.141 A  
ENDROOT
BRANCH   6   9
HETATM    9  C   UNL     1      -8.608   8.805  68.364  1.00  0.00    -0.134 C  
HETATM   10  O   UNL     1      -7.891   9.575  67.745  1.00  0.00    -0.094 OA 
BRANCH   9  11
HETATM   11  O   UNL     1      -9.840   9.078  68.853  1.00  0.00    -0.167 OA 
BRANCH  11  12
HETATM   12  C   UNL     1      -9.892  10.024  69.932  1.00  0.00    -0.224 C  
BRANCH  12  13
HETATM   13  C   UNL     1     -11.088   9.738  70.804  1.00  0.00    -0.415 A  
HETATM   14  C   UNL     1     -11.133   8.578  71.593  1.00  0.00    -0.360 A  
HETATM   15  C   UNL     1     -12.234   8.321  72.412  1.00  0.00    -0.412 A  
HETATM   16  C   UNL     1     -13.299   9.218  72.453  1.00  0.00    -0.521 A  
HETATM   17  C   UNL     1     -13.266  10.374  71.675  1.00  0.00    -0.502 A  
HETATM   18  C   UNL     1     -12.167  10.632  70.853  1.00  0.00    -0.497 A  
ENDBRANCH  12  13
ENDBRANCH  11  12
ENDBRANCH   9  11
ENDBRANCH   6   9
TORSDOF 4
ENDMDL
MODEL      218
REMARK 921   NORMALIZED FREE ENERGY PREDICTED BY IDOCK:   -3.11 KCAL/MOL
REMARK 922        TOTAL FREE ENERGY PREDICTED BY IDOCK:   -4.46 KCAL/MOL
REMARK 923 INTER-LIGAND FREE ENERGY PREDICTED BY IDOCK:   -4.08 KCAL/MOL
REMARK 924 INTRA-LIGAND FREE ENERGY PREDICTED BY IDOCK:   -0.38 KCAL/MOL
REMARK 927      BINDING AFFINITY PREDICTED BY RF-SCORE:    0.00 PKD
ROOT
HETATM    1  O   UNL     1      -8.052   5.652  72.558  1.00  0.00    -0.103 OA 
HETATM    2  C   UNL     1      -8.558   6.479  71.599  1.00  0.00    -0.128 A  
HETATM    3  H   UNL     1      -7.897   5.959  73.443  1.00  0.00     0.000 HD 
HETATM    4  C   UNL     1      -8.784   6.030  70.304  1.00  0.00    -0.143 A  
HETATM    5  C   UNL     1      -9.288   6.918  69.351  1.00  0.00    -0.146 A  
HETATM    6  C   UNL     1      -9.566   8.252  69.693  1.00  0.00    -0.167 A  
HETATM    7  C   UNL     1      -8.838   7.793  71.960  1.00  0.00    -0.169 A  
HETATM    8  C   UNL     1      -9.343   8.684  71.007  1.00  0.00    -0.254 A  
ENDROOT
BRANCH   6   9
HETATM    9  C   UNL     1     -10.073   9.154  68.621  1.00  0.00    -0.194 C  
HETATM   10  O   UNL     1     -10.248   8.780  67.472  1.00  0.00    -0.211 OA 
BRANCH   9  11
HETATM   11  O   UNL     1     -10.267  10.408  69.092  1.00  0.00    -0.198 OA 
BRANCH  11  12
HETATM   12  C   UNL     1     -11.581  10.954  68.903  1.00  0.00    -0.309 C  
BRANCH  12  13
HETATM   13  C   UNL     1     -11.500  12.194  68.049  1.00  0.00    -0.380 A  
HETATM   14  C   UNL     1     -11.869  12.152  66.696  1.00  0.00    -0.314 A  
HETATM   15  C   UNL     1     -11.809  13.304  65.909  1.00  0.00    -0.436 A  
HETATM   16  C   UNL     1     -11.381  14.508  66.465  1.00  0.00    -0.354 A  
HETATM   17  C   UNL     1     -11.013  14.562  67.808  1.00  0.00    -0.282 A  
HETATM   18  C   UNL     1     -11.070  13.411  68.596  1.00  0.00    -0.295 A  
ENDBRANCH  12  13
ENDBRANCH  11  12
ENDBRANCH   9  11
ENDBRANCH   6   9
TORSDOF 4
ENDMDL
MODEL      219
REMARK 921   NORMALIZED FREE ENERGY PREDICTED BY IDOCK:   -3.08 KCAL/MOL
REMARK 922        TOTAL FREE ENERGY PREDICTED BY IDOCK:   -4.42 KCAL/MOL
REMARK 923 INTER-LIGAND FREE ENERGY PREDICTED BY IDOCK:   -4.08 KCAL/MOL
REMARK 924 INTRA-LIGAND FREE ENERGY PREDICTED BY IDOCK:   -0.35 KCAL/MOL
REMARK 927      BINDING AFFINITY PREDICTED BY RF-SCORE:    0.00 PKD
ROOT
HETATM    1  O   UNL     1     -11.260  11.361  63.228  1.00  0.00    -0.770 OA 
HETATM    2  C   UNL     1     -10.758  11.968  64.341  1.00  0.00    -0.323 A  
HETATM    3  H   UNL     1     -11.985  11.738  62.744  1.00  0.00     0.000 HD 
HETATM    4  C   UNL     1      -9.697  11.416  65.048  1.00  0.00    -0.286 A  
HETATM    5  C   UNL     1      -9.228  12.065  66.193  1.00  0.00    -0.181 A  
HETATM    6  C   UNL     1      -9.818  13.264  66.628  1.00  0.00    -0.276 A  
HETATM    7  C   UNL     1     -11.347  13.160  64.750  1.00  0.00    -0.352 A  
HETATM    8  C   UNL     1     -10.879  13.811  65.895  1.00  0.00    -0.283 A  
ENDROOT
BRANCH   6   9
HETATM    9  C   UNL     1      -9.288  13.887  67.873  1.00  0.00    -0.208 C  
HETATM   10  O   UNL     1      -9.262  13.302  68.944  1.00  0.00     0.064 OA 
BRANCH   9  11
HETATM   11  O   UNL     1      -8.893  15.162  67.648  1.00  0.00    -0.166 OA 
BRANCH  11  12
HETATM   12  C   UNL     1      -8.975  16.052  68.772  1.00  0.00    -0.226 C  
BRANCH  12  13
HETATM   13  C   UNL     1      -7.637  16.706  69.004  1.00  0.00    -0.226 A  
HETATM   14  C   UNL     1      -6.473  15.929  69.104  1.00  0.00    -0.152 A  
HETATM   15  C   UNL     1      -5.231  16.535  69.303  1.00  0.00    -0.132 A  
HETATM   16  C   UNL     1      -5.139  17.922  69.404  1.00  0.00    -0.179 A  
HETATM   17  C   UNL     1      -6.288  18.704  69.305  1.00  0.00    -0.282 A  
HETATM   18  C   UNL     1      -7.531  18.100  69.108  1.00  0.00    -0.099 A  
ENDBRANCH  12  13
ENDBRANCH  11  12
ENDBRANCH   9  11
ENDBRANCH   6   9
TORSDOF 4
ENDMDL
MODEL      220
REMARK 921   NORMALIZED FREE ENERGY PREDICTED BY IDOCK:   -3.08 KCAL/MOL
REMARK 922        TOTAL FREE ENERGY PREDICTED BY IDOCK:   -4.42 KCAL/MOL
REMARK 923 INTER-LIGAND FREE ENERGY PREDICTED BY IDOCK:   -3.88 KCAL/MOL
REMARK 924 INTRA-LIGAND FREE ENERGY PREDICTED BY IDOCK:   -0.54 KCAL/MOL
REMARK 927      BINDING AFFINITY PREDICTED BY RF-SCORE:    0.00 PKD
ROOT
HETATM    1  O   UNL     1      -7.316   5.900  65.415  1.00  0.00    -0.072 OA 
HETATM    2  C   UNL     1      -7.655   7.008  66.132  1.00  0.00    -0.095 A  
HETATM    3  H   UNL     1      -7.311   5.908  64.465  1.00  0.00     0.000 HD 
HETATM    4  C   UNL     1      -7.661   6.996  67.522  1.00  0.00    -0.111 A  
HETATM    5  C   UNL     1      -8.033   8.151  68.214  1.00  0.00    -0.123 A  
HETATM    6  C   UNL     1      -8.397   9.316  67.517  1.00  0.00    -0.119 A  
HETATM    7  C   UNL     1      -8.002   8.156  65.426  1.00  0.00    -0.126 A  
HETATM    8  C   UNL     1      -8.374   9.313  66.116  1.00  0.00    -0.122 A  
ENDROOT
BRANCH   6   9
HETATM    9  C   UNL     1      -8.812  10.503  68.317  1.00  0.00    -0.139 C  
HETATM   10  O   UNL     1      -8.142  11.521  68.383  1.00  0.00    -0.136 OA 
BRANCH   9  11
HETATM   11  O   UNL     1      -9.981  10.271  68.959  1.00  0.00    -0.191 OA 
BRANCH  11  12
HETATM   12  C   UNL     1     -11.170  10.396  68.164  1.00  0.00    -0.268 C  
BRANCH  12  13
HETATM   13  C   UNL     1     -11.483  11.854  67.941  1.00  0.00    -0.385 A  
HETATM   14  C   UNL     1     -11.672  12.717  69.030  1.00  0.00    -0.371 A  
HETATM   15  C   UNL     1     -11.947  14.071  68.824  1.00  0.00    -0.382 A  
HETATM   16  C   UNL     1     -12.036  14.575  67.528  1.00  0.00    -0.358 A  
HETATM   17  C   UNL     1     -11.850  13.727  66.437  1.00  0.00    -0.434 A  
HETATM   18  C   UNL     1     -11.577  12.374  66.642  1.00  0.00    -0.447 A  
ENDBRANCH  12  13
ENDBRANCH  11  12
ENDBRANCH   9  11
ENDBRANCH   6   9
TORSDOF 4
ENDMDL
MODEL      221
REMARK 921   NORMALIZED FREE ENERGY PREDICTED BY IDOCK:   -3.06 KCAL/MOL
REMARK 922        TOTAL FREE ENERGY PREDICTED BY IDOCK:   -4.40 KCAL/MOL
REMARK 923 INTER-LIGAND FREE ENERGY PREDICTED BY IDOCK:   -3.90 KCAL/MOL
REMARK 924 INTRA-LIGAND FREE ENERGY PREDICTED BY IDOCK:   -0.50 KCAL/MOL
REMARK 927      BINDING AFFINITY PREDICTED BY RF-SCORE:    0.00 PKD
ROOT
HETATM    1  O   UNL     1      -9.997  13.077  65.075  1.00  0.00    -0.468 OA 
HETATM    2  C   UNL     1     -10.151  11.938  65.807  1.00  0.00    -0.241 A  
HETATM    3  H   UNL     1      -9.401  13.113  64.336  1.00  0.00     0.000 HD 
HETATM    4  C   UNL     1     -11.023  11.885  66.888  1.00  0.00    -0.335 A  
HETATM    5  C   UNL     1     -11.134  10.700  67.619  1.00  0.00    -0.385 A  
HETATM    6  C   UNL     1     -10.376   9.571  67.270  1.00  0.00    -0.319 A  
HETATM    7  C   UNL     1      -9.400  10.826  65.439  1.00  0.00    -0.243 A  
HETATM    8  C   UNL     1      -9.510   9.638  66.170  1.00  0.00    -0.274 A  
ENDROOT
BRANCH   6   9
HETATM    9  C   UNL     1     -10.520   8.349  68.111  1.00  0.00    -0.174 C  
HETATM   10  O   UNL     1     -10.194   8.315  69.287  1.00  0.00    -0.196 OA 
BRANCH   9  11
HETATM   11  O   UNL     1     -11.015   7.317  67.388  1.00  0.00    -0.258 OA 
BRANCH  11  12
HETATM   12  C   UNL     1     -10.873   6.015  67.975  1.00  0.00    -0.287 C  
BRANCH  12  13
HETATM   13  C   UNL     1      -9.678   5.314  67.380  1.00  0.00    -0.162 A  
HETATM   14  C   UNL     1      -9.596   5.096  65.997  1.00  0.00    -0.176 A  
HETATM   15  C   UNL     1      -8.482   4.461  65.444  1.00  0.00    -0.120 A  
HETATM   16  C   UNL     1      -7.440   4.038  66.266  1.00  0.00    -0.088 A  
HETATM   17  C   UNL     1      -7.510   4.250  67.643  1.00  0.00    -0.069 A  
HETATM   18  C   UNL     1      -8.623   4.883  68.197  1.00  0.00    -0.104 A  
ENDBRANCH  12  13
ENDBRANCH  11  12
ENDBRANCH   9  11
ENDBRANCH   6   9
TORSDOF 4
ENDMDL
MODEL      222
REMARK 921   NORMALIZED FREE ENERGY PREDICTED BY IDOCK:   -3.06 KCAL/MOL
REMARK 922        TOTAL FREE ENERGY PREDICTED BY IDOCK:   -4.39 KCAL/MOL
REMARK 923 INTER-LIGAND FREE ENERGY PREDICTED BY IDOCK:   -4.02 KCAL/MOL
REMARK 924 INTRA-LIGAND FREE ENERGY PREDICTED BY IDOCK:   -0.37 KCAL/MOL
REMARK 927      BINDING AFFINITY PREDICTED BY RF-SCORE:    0.00 PKD
ROOT
HETATM    1  O   UNL     1     -11.495   7.488  73.428  1.00  0.00    -0.629 OA 
HETATM    2  C   UNL     1     -11.268   7.429  72.085  1.00  0.00    -0.262 A  
HETATM    3  H   UNL     1     -11.409   8.303  73.908  1.00  0.00     0.000 HD 
HETATM    4  C   UNL     1     -11.395   6.237  71.382  1.00  0.00    -0.353 A  
HETATM    5  C   UNL     1     -11.135   6.222  70.010  1.00  0.00    -0.455 A  
HETATM    6  C   UNL     1     -10.751   7.397  69.342  1.00  0.00    -0.220 A  
HETATM    7  C   UNL     1     -10.899   8.605  71.439  1.00  0.00    -0.339 A  
HETATM    8  C   UNL     1     -10.639   8.592  70.064  1.00  0.00    -0.230 A  
ENDROOT
BRANCH   6   9
HETATM    9  C   UNL     1     -10.460   7.304  67.884  1.00  0.00    -0.209 C  
HETATM   10  O   UNL     1     -10.863   6.386  67.187  1.00  0.00    -0.311 OA 
BRANCH   9  11
HETATM   11  O   UNL     1      -9.680   8.332  67.477  1.00  0.00    -0.151 OA 
BRANCH  11  12
HETATM   12  C   UNL     1      -8.298   8.019  67.244  1.00  0.00    -0.122 C  
BRANCH  12  13
HETATM   13  C   UNL     1      -7.915   8.413  65.840  1.00  0.00    -0.099 A  
HETATM   14  C   UNL     1      -8.775   9.202  65.062  1.00  0.00    -0.222 A  
HETATM   15  C   UNL     1      -8.414   9.579  63.767  1.00  0.00    -0.198 A  
HETATM   16  C   UNL     1      -7.191   9.174  63.237  1.00  0.00    -0.091 A  
HETATM   17  C   UNL     1      -6.328   8.389  64.001  1.00  0.00    -0.071 A  
HETATM   18  C   UNL     1      -6.688   8.010  65.295  1.00  0.00    -0.055 A  
ENDBRANCH  12  13
ENDBRANCH  11  12
ENDBRANCH   9  11
ENDBRANCH   6   9
TORSDOF 4
ENDMDL
MODEL      223
REMARK 921   NORMALIZED FREE ENERGY PREDICTED BY IDOCK:   -2.97 KCAL/MOL
REMARK 922        TOTAL FREE ENERGY PREDICTED BY IDOCK:   -4.29 KCAL/MOL
REMARK 923 INTER-LIGAND FREE ENERGY PREDICTED BY IDOCK:   -3.46 KCAL/MOL
REMARK 924 INTRA-LIGAND FREE ENERGY PREDICTED BY IDOCK:   -0.83 KCAL/MOL
REMARK 927      BINDING AFFINITY PREDICTED BY RF-SCORE:    0.00 PKD
ROOT
HETATM    1  O   UNL     1     -13.447   6.907  72.174  1.00  0.00    -0.547 OA 
HETATM    2  C   UNL     1     -12.113   6.731  71.955  1.00  0.00    -0.305 A  
HETATM    3  H   UNL     1     -13.919   6.376  72.804  1.00  0.00     0.000 HD 
HETATM    4  C   UNL     1     -11.423   7.508  71.033  1.00  0.00    -0.299 A  
HETATM    5  C   UNL     1     -10.060   7.279  70.831  1.00  0.00    -0.192 A  
HETATM    6  C   UNL     1      -9.389   6.276  71.550  1.00  0.00    -0.155 A  
HETATM    7  C   UNL     1     -11.463   5.741  72.685  1.00  0.00    -0.337 A  
HETATM    8  C   UNL     1     -10.098   5.510  72.484  1.00  0.00    -0.211 A  
ENDROOT
BRANCH   6   9
HETATM    9  C   UNL     1      -7.942   6.065  71.263  1.00  0.00    -0.113 C  
HETATM   10  O   UNL     1      -7.246   5.300  71.912  1.00  0.00    -0.079 OA 
BRANCH   9  11
HETATM   11  O   UNL     1      -7.530   6.848  70.239  1.00  0.00    -0.082 OA 
BRANCH  11  12
HETATM   12  C   UNL     1      -7.036   6.158  69.081  1.00  0.00    -0.068 C  
BRANCH  12  13
HETATM   13  C   UNL     1      -8.185   5.794  68.175  1.00  0.00    -0.104 A  
HETATM   14  C   UNL     1      -8.842   6.781  67.427  1.00  0.00    -0.117 A  
HETATM   15  C   UNL     1      -9.896   6.441  66.576  1.00  0.00    -0.170 A  
HETATM   16  C   UNL     1     -10.303   5.113  66.465  1.00  0.00    -0.336 A  
HETATM   17  C   UNL     1      -9.657   4.123  67.203  1.00  0.00    -0.229 A  
HETATM   18  C   UNL     1      -8.604   4.461  68.055  1.00  0.00    -0.111 A  
ENDBRANCH  12  13
ENDBRANCH  11  12
ENDBRANCH   9  11
ENDBRANCH   6   9
TORSDOF 4
ENDMDL
MODEL      224
REMARK 921   NORMALIZED FREE ENERGY PREDICTED BY IDOCK:   -2.96 KCAL/MOL
REMARK 922        TOTAL FREE ENERGY PREDICTED BY IDOCK:   -4.28 KCAL/MOL
REMARK 923 INTER-LIGAND FREE ENERGY PREDICTED BY IDOCK:   -3.93 KCAL/MOL
REMARK 924 INTRA-LIGAND FREE ENERGY PREDICTED BY IDOCK:   -0.34 KCAL/MOL
REMARK 927      BINDING AFFINITY PREDICTED BY RF-SCORE:    0.00 PKD
ROOT
HETATM    1  O   UNL     1      -5.326  10.521  70.012  1.00  0.00    -0.038 OA 
HETATM    2  C   UNL     1      -5.834  11.744  69.691  1.00  0.00    -0.097 A  
HETATM    3  H   UNL     1      -5.649   9.728  69.601  1.00  0.00     0.000 HD 
HETATM    4  C   UNL     1      -5.360  12.904  70.292  1.00  0.00    -0.121 A  
HETATM    5  C   UNL     1      -5.923  14.134  69.944  1.00  0.00    -0.133 A  
HETATM    6  C   UNL     1      -6.958  14.203  68.995  1.00  0.00    -0.112 A  
HETATM    7  C   UNL     1      -6.849  11.795  68.741  1.00  0.00    -0.095 A  
HETATM    8  C   UNL     1      -7.415  13.025  68.391  1.00  0.00    -0.128 A  
ENDROOT
BRANCH   6   9
HETATM    9  C   UNL     1      -7.534  15.544  68.693  1.00  0.00    -0.131 C  
HETATM   10  O   UNL     1      -7.162  16.563  69.251  1.00  0.00    -0.229 OA 
BRANCH   9  11
HETATM   11  O   UNL     1      -8.518  15.452  67.768  1.00  0.00    -0.144 OA 
BRANCH  11  12
HETATM   12  C   UNL     1      -8.260  16.095  66.511  1.00  0.00    -0.308 C  
BRANCH  12  13
HETATM   13  C   UNL     1      -8.770  17.513  66.549  1.00  0.00    -0.290 A  
HETATM   14  C   UNL     1     -10.128  17.776  66.781  1.00  0.00    -0.349 A  
HETATM   15  C   UNL     1     -10.597  19.090  66.832  1.00  0.00    -0.518 A  
HETATM   16  C   UNL     1      -9.716  20.154  66.653  1.00  0.00    -0.568 A  
HETATM   17  C   UNL     1      -8.363  19.906  66.422  1.00  0.00    -0.368 A  
HETATM   18  C   UNL     1      -7.893  18.593  66.369  1.00  0.00    -0.305 A  
ENDBRANCH  12  13
ENDBRANCH  11  12
ENDBRANCH   9  11
ENDBRANCH   6   9
TORSDOF 4
ENDMDL
MODEL      225
REMARK 921   NORMALIZED FREE ENERGY PREDICTED BY IDOCK:   -2.96 KCAL/MOL
REMARK 922        TOTAL FREE ENERGY PREDICTED BY IDOCK:   -4.27 KCAL/MOL
REMARK 923 INTER-LIGAND FREE ENERGY PREDICTED BY IDOCK:   -3.95 KCAL/MOL
REMARK 924 INTRA-LIGAND FREE ENERGY PREDICTED BY IDOCK:   -0.32 KCAL/MOL
REMARK 927      BINDING AFFINITY PREDICTED BY RF-SCORE:    0.00 PKD
ROOT
HETATM    1  O   UNL     1     -10.092  16.379  68.946  1.00  0.00    -0.228 OA 
HETATM    2  C   UNL     1     -10.175  15.201  68.266  1.00  0.00    -0.223 A  
HETATM    3  H   UNL     1      -9.302  16.907  68.927  1.00  0.00     0.000 HD 
HETATM    4  C   UNL     1     -11.330  14.430  68.295  1.00  0.00    -0.311 A  
HETATM    5  C   UNL     1     -11.362  13.220  67.597  1.00  0.00    -0.328 A  
HETATM    6  C   UNL     1     -10.241  12.784  66.871  1.00  0.00    -0.241 A  
HETATM    7  C   UNL     1      -9.059  14.790  67.544  1.00  0.00    -0.191 A  
HETATM    8  C   UNL     1      -9.089  13.580  66.844  1.00  0.00    -0.246 A  
ENDROOT
BRANCH   6   9
HETATM    9  C   UNL     1     -10.333  11.470  66.174  1.00  0.00    -0.245 C  
HETATM   10  O   UNL     1     -10.579  11.371  64.982  1.00  0.00    -0.286 OA 
BRANCH   9  11
HETATM   11  O   UNL     1     -10.146  10.446  67.040  1.00  0.00    -0.197 OA 
BRANCH  11  12
HETATM   12  C   UNL     1     -10.180   9.129  66.471  1.00  0.00    -0.252 C  
BRANCH  12  13
HETATM   13  C   UNL     1     -10.071   8.098  67.565  1.00  0.00    -0.286 A  
HETATM   14  C   UNL     1      -9.542   6.826  67.295  1.00  0.00    -0.165 A  
HETATM   15  C   UNL     1      -9.426   5.877  68.313  1.00  0.00    -0.123 A  
HETATM   16  C   UNL     1      -9.837   6.187  69.607  1.00  0.00    -0.196 A  
HETATM   17  C   UNL     1     -10.364   7.446  69.887  1.00  0.00    -0.222 A  
HETATM   18  C   UNL     1     -10.482   8.397  68.872  1.00  0.00    -0.208 A  
ENDBRANCH  12  13
ENDBRANCH  11  12
ENDBRANCH   9  11
ENDBRANCH   6   9
TORSDOF 4
ENDMDL
MODEL      226
REMARK 921   NORMALIZED FREE ENERGY PREDICTED BY IDOCK:   -2.90 KCAL/MOL
REMARK 922        TOTAL FREE ENERGY PREDICTED BY IDOCK:   -4.20 KCAL/MOL
REMARK 923 INTER-LIGAND FREE ENERGY PREDICTED BY IDOCK:   -3.75 KCAL/MOL
REMARK 924 INTRA-LIGAND FREE ENERGY PREDICTED BY IDOCK:   -0.44 KCAL/MOL
REMARK 927      BINDING AFFINITY PREDICTED BY RF-SCORE:    0.00 PKD
ROOT
HETATM    1  O   UNL     1     -12.789   8.418  72.701  1.00  0.00    -0.592 OA 
HETATM    2  C   UNL     1     -11.967   7.470  72.168  1.00  0.00    -0.285 A  
HETATM    3  H   UNL     1     -12.681   8.719  73.595  1.00  0.00     0.000 HD 
HETATM    4  C   UNL     1     -12.125   7.030  70.859  1.00  0.00    -0.403 A  
HETATM    5  C   UNL     1     -11.269   6.044  70.362  1.00  0.00    -0.380 A  
HETATM    6  C   UNL     1     -10.258   5.500  71.172  1.00  0.00    -0.285 A  
HETATM    7  C   UNL     1     -10.964   6.952  72.981  1.00  0.00    -0.308 A  
HETATM    8  C   UNL     1     -10.106   5.964  72.485  1.00  0.00    -0.204 A  
ENDROOT
BRANCH   6   9
HETATM    9  C   UNL     1      -9.400   4.430  70.589  1.00  0.00    -0.152 C  
HETATM   10  O   UNL     1      -9.505   3.256  70.904  1.00  0.00    -0.142 OA 
BRANCH   9  11
HETATM   11  O   UNL     1      -8.501   4.948  69.719  1.00  0.00    -0.082 OA 
BRANCH  11  12
HETATM   12  C   UNL     1      -7.860   4.007  68.845  1.00  0.00    -0.057 C  
BRANCH  12  13
HETATM   13  C   UNL     1      -8.312   4.240  67.425  1.00  0.00    -0.099 A  
HETATM   14  C   UNL     1      -9.660   4.077  67.071  1.00  0.00    -0.231 A  
HETATM   15  C   UNL     1     -10.081   4.308  65.760  1.00  0.00    -0.229 A  
HETATM   16  C   UNL     1      -9.162   4.703  64.791  1.00  0.00    -0.133 A  
HETATM   17  C   UNL     1      -7.820   4.869  65.131  1.00  0.00    -0.092 A  
HETATM   18  C   UNL     1      -7.397   4.637  66.440  1.00  0.00    -0.081 A  
ENDBRANCH  12  13
ENDBRANCH  11  12
ENDBRANCH   9  11
ENDBRANCH   6   9
TORSDOF 4
ENDMDL
MODEL      227
REMARK 921   NORMALIZED FREE ENERGY PREDICTED BY IDOCK:   -2.86 KCAL/MOL
REMARK 922        TOTAL FREE ENERGY PREDICTED BY IDOCK:   -4.15 KCAL/MOL
REMARK 923 INTER-LIGAND FREE ENERGY PREDICTED BY IDOCK:   -3.32 KCAL/MOL
REMARK 924 INTRA-LIGAND FREE ENERGY PREDICTED BY IDOCK:   -0.84 KCAL/MOL
REMARK 927      BINDING AFFINITY PREDICTED BY RF-SCORE:    0.00 PKD
ROOT
HETATM    1  O   UNL     1     -10.493   3.628  64.760  1.00  0.00    -0.414 OA 
HETATM    2  C   UNL     1      -9.922   4.372  65.749  1.00  0.00    -0.239 A  
HETATM    3  H   UNL     1     -11.428   3.658  64.597  1.00  0.00     0.000 HD 
HETATM    4  C   UNL     1      -8.553   4.329  65.986  1.00  0.00    -0.113 A  
HETATM    5  C   UNL     1      -8.015   5.096  67.023  1.00  0.00    -0.100 A  
HETATM    6  C   UNL     1      -8.843   5.905  67.818  1.00  0.00    -0.109 A  
HETATM    7  C   UNL     1     -10.756   5.176  66.519  1.00  0.00    -0.262 A  
HETATM    8  C   UNL     1     -10.219   5.945  67.557  1.00  0.00    -0.232 A  
ENDROOT
BRANCH   6   9
HETATM    9  C   UNL     1      -8.208   6.673  68.926  1.00  0.00    -0.120 C  
HETATM   10  O   UNL     1      -8.288   6.333  70.095  1.00  0.00    -0.125 OA 
BRANCH   9  11
HETATM   11  O   UNL     1      -7.587   7.780  68.455  1.00  0.00    -0.101 OA 
BRANCH  11  12
HETATM   12  C   UNL     1      -8.250   9.027  68.708  1.00  0.00    -0.117 C  
BRANCH  12  13
HETATM   13  C   UNL     1      -8.859   9.550  67.432  1.00  0.00    -0.134 A  
HETATM   14  C   UNL     1      -9.958  10.421  67.471  1.00  0.00    -0.215 A  
HETATM   15  C   UNL     1     -10.512  10.917  66.289  1.00  0.00    -0.304 A  
HETATM   16  C   UNL     1      -9.975  10.548  65.058  1.00  0.00    -0.388 A  
HETATM   17  C   UNL     1      -8.883   9.683  65.006  1.00  0.00    -0.221 A  
HETATM   18  C   UNL     1      -8.329   9.185  66.186  1.00  0.00    -0.123 A  
ENDBRANCH  12  13
ENDBRANCH  11  12
ENDBRANCH   9  11
ENDBRANCH   6   9
TORSDOF 4
ENDMDL
MODEL      228
REMARK 921   NORMALIZED FREE ENERGY PREDICTED BY IDOCK:   -2.86 KCAL/MOL
REMARK 922        TOTAL FREE ENERGY PREDICTED BY IDOCK:   -4.15 KCAL/MOL
REMARK 923 INTER-LIGAND FREE ENERGY PREDICTED BY IDOCK:   -3.72 KCAL/MOL
REMARK 924 INTRA-LIGAND FREE ENERGY PREDICTED BY IDOCK:   -0.43 KCAL/MOL
REMARK 927      BINDING AFFINITY PREDICTED BY RF-SCORE:    0.00 PKD
ROOT
HETATM    1  O   UNL     1      -8.904   6.840  74.323  1.00  0.00    -0.149 OA 
HETATM    2  C   UNL     1      -9.352   7.612  73.293  1.00  0.00    -0.243 A  
HETATM    3  H   UNL     1      -7.977   6.763  74.517  1.00  0.00     0.000 HD 
HETATM    4  C   UNL     1     -10.708   7.723  73.010  1.00  0.00    -0.446 A  
HETATM    5  C   UNL     1     -11.119   8.513  71.933  1.00  0.00    -0.395 A  
HETATM    6  C   UNL     1     -10.175   9.190  71.142  1.00  0.00    -0.384 A  
HETATM    7  C   UNL     1      -8.404   8.284  72.528  1.00  0.00    -0.235 A  
HETATM    8  C   UNL     1      -8.813   9.075  71.449  1.00  0.00    -0.220 A  
ENDROOT
BRANCH   6   9
HETATM    9  C   UNL     1     -10.680   9.990  69.991  1.00  0.00    -0.299 C  
HETATM   10  O   UNL     1     -11.829  10.396  69.923  1.00  0.00    -0.258 OA 
BRANCH   9  11
HETATM   11  O   UNL     1      -9.716  10.158  69.056  1.00  0.00    -0.184 OA 
BRANCH  11  12
HETATM   12  C   UNL     1     -10.126   9.977  67.692  1.00  0.00    -0.190 C  
BRANCH  12  13
HETATM   13  C   UNL     1      -9.059   9.230  66.933  1.00  0.00    -0.158 A  
HETATM   14  C   UNL     1      -9.071   7.828  66.882  1.00  0.00    -0.171 A  
HETATM   15  C   UNL     1      -8.091   7.137  66.166  1.00  0.00    -0.121 A  
HETATM   16  C   UNL     1      -7.092   7.838  65.494  1.00  0.00    -0.063 A  
HETATM   17  C   UNL     1      -7.070   9.231  65.537  1.00  0.00    -0.086 A  
HETATM   18  C   UNL     1      -8.048   9.924  66.254  1.00  0.00    -0.114 A  
ENDBRANCH  12  13
ENDBRANCH  11  12
ENDBRANCH   9  11
ENDBRANCH   6   9
TORSDOF 4
ENDMDL
MODEL      229
REMARK 921   NORMALIZED FREE ENERGY PREDICTED BY IDOCK:   -2.80 KCAL/MOL
REMARK 922        TOTAL FREE ENERGY PREDICTED BY IDOCK:   -4.08 KCAL/MOL
REMARK 923 INTER-LIGAND FREE ENERGY PREDICTED BY IDOCK:   -3.97 KCAL/MOL
REMARK 924 INTRA-LIGAND FREE ENERGY PREDICTED BY IDOCK:   -0.11 KCAL/MOL
REMARK 927      BINDING AFFINITY PREDICTED BY RF-SCORE:    0.00 PKD
ROOT
HETATM    1  O   UNL     1      -7.609   8.863  73.121  1.00  0.00    -0.366 OA 
HETATM    2  C   UNL     1      -8.175   8.591  71.911  1.00  0.00    -0.142 A  
HETATM    3  H   UNL     1      -6.698   8.663  73.298  1.00  0.00     0.000 HD 
HETATM    4  C   UNL     1      -9.508   8.886  71.654  1.00  0.00    -0.351 A  
HETATM    5  C   UNL     1     -10.048   8.572  70.404  1.00  0.00    -0.208 A  
HETATM    6  C   UNL     1      -9.256   7.966  69.414  1.00  0.00    -0.145 A  
HETATM    7  C   UNL     1      -7.372   8.002  70.940  1.00  0.00    -0.058 A  
HETATM    8  C   UNL     1      -7.911   7.687  69.688  1.00  0.00    -0.108 A  
ENDROOT
BRANCH   6   9
HETATM    9  C   UNL     1      -9.903   7.631  68.115  1.00  0.00    -0.164 C  
HETATM   10  O   UNL     1     -10.760   6.769  68.008  1.00  0.00    -0.212 OA 
BRANCH   9  11
HETATM   11  O   UNL     1      -9.387   8.376  67.109  1.00  0.00    -0.143 OA 
BRANCH  11  12
HETATM   12  C   UNL     1      -9.133   9.755  67.415  1.00  0.00    -0.134 C  
BRANCH  12  13
HETATM   13  C   UNL     1      -9.864  10.638  66.437  1.00  0.00    -0.259 A  
HETATM   14  C   UNL     1     -11.031  11.314  66.822  1.00  0.00    -0.339 A  
HETATM   15  C   UNL     1     -11.700  12.145  65.920  1.00  0.00    -0.393 A  
HETATM   16  C   UNL     1     -11.210  12.308  64.626  1.00  0.00    -0.363 A  
HETATM   17  C   UNL     1     -10.051  11.642  64.232  1.00  0.00    -0.328 A  
HETATM   18  C   UNL     1      -9.382  10.810  65.131  1.00  0.00    -0.254 A  
ENDBRANCH  12  13
ENDBRANCH  11  12
ENDBRANCH   9  11
ENDBRANCH   6   9
TORSDOF 4
ENDMDL
MODEL      230
REMARK 921   NORMALIZED FREE ENERGY PREDICTED BY IDOCK:   -2.79 KCAL/MOL
REMARK 922        TOTAL FREE ENERGY PREDICTED BY IDOCK:   -4.06 KCAL/MOL
REMARK 923 INTER-LIGAND FREE ENERGY PREDICTED BY IDOCK:   -3.09 KCAL/MOL
REMARK 924 INTRA-LIGAND FREE ENERGY PREDICTED BY IDOCK:   -0.97 KCAL/MOL
REMARK 927      BINDING AFFINITY PREDICTED BY RF-SCORE:    0.00 PKD
ROOT
HETATM    1  O   UNL     1      -9.229   6.836  72.772  1.00  0.00    -0.136 OA 
HETATM    2  C   UNL     1      -9.678   7.484  71.661  1.00  0.00    -0.161 A  
HETATM    3  H   UNL     1      -8.715   7.284  73.432  1.00  0.00     0.000 HD 
HETATM    4  C   UNL     1     -10.431   6.827  70.695  1.00  0.00    -0.243 A  
HETATM    5  C   UNL     1     -10.855   7.528  69.564  1.00  0.00    -0.184 A  
HETATM    6  C   UNL     1     -10.527   8.885  69.399  1.00  0.00    -0.228 A  
HETATM    7  C   UNL     1      -9.354   8.829  71.520  1.00  0.00    -0.337 A  
HETATM    8  C   UNL     1      -9.777   9.534  70.388  1.00  0.00    -0.328 A  
ENDROOT
BRANCH   6   9
HETATM    9  C   UNL     1     -10.985   9.565  68.155  1.00  0.00    -0.089 C  
HETATM   10  O   UNL     1     -11.669  10.576  68.169  1.00  0.00    -0.431 OA 
BRANCH   9  11
HETATM   11  O   UNL     1     -10.572   8.894  67.055  1.00  0.00    -0.274 OA 
BRANCH  11  12
HETATM   12  C   UNL     1      -9.414   9.425  66.393  1.00  0.00    -0.201 C  
BRANCH  12  13
HETATM   13  C   UNL     1      -8.187   9.172  67.231  1.00  0.00    -0.114 A  
HETATM   14  C   UNL     1      -7.831   7.865  67.596  1.00  0.00    -0.122 A  
HETATM   15  C   UNL     1      -6.686   7.629  68.360  1.00  0.00    -0.061 A  
HETATM   16  C   UNL     1      -5.885   8.695  68.764  1.00  0.00    -0.044 A  
HETATM   17  C   UNL     1      -6.228   9.998  68.407  1.00  0.00    -0.049 A  
HETATM   18  C   UNL     1      -7.374  10.236  67.645  1.00  0.00    -0.088 A  
ENDBRANCH  12  13
ENDBRANCH  11  12
ENDBRANCH   9  11
ENDBRANCH   6   9
TORSDOF 4
ENDMDL
MODEL      231
REMARK 921   NORMALIZED FREE ENERGY PREDICTED BY IDOCK:   -2.77 KCAL/MOL
REMARK 922        TOTAL FREE ENERGY PREDICTED BY IDOCK:   -4.04 KCAL/MOL
REMARK 923 INTER-LIGAND FREE ENERGY PREDICTED BY IDOCK:   -2.98 KCAL/MOL
REMARK 924 INTRA-LIGAND FREE ENERGY PREDICTED BY IDOCK:   -1.06 KCAL/MOL
REMARK 927      BINDING AFFINITY PREDICTED BY RF-SCORE:    0.00 PKD
ROOT
HETATM    1  O   UNL     1     -11.320   5.322  65.683  1.00  0.00    -0.772 OA 
HETATM    2  C   UNL     1     -10.779   5.665  66.886  1.00  0.00    -0.272 A  
HETATM    3  H   UNL     1     -11.170   4.466  65.299  1.00  0.00     0.000 HD 
HETATM    4  C   UNL     1     -10.999   6.917  67.447  1.00  0.00    -0.374 A  
HETATM    5  C   UNL     1     -10.409   7.230  68.674  1.00  0.00    -0.208 A  
HETATM    6  C   UNL     1      -9.600   6.293  69.338  1.00  0.00    -0.157 A  
HETATM    7  C   UNL     1      -9.990   4.720  67.534  1.00  0.00    -0.194 A  
HETATM    8  C   UNL     1      -9.398   5.031  68.763  1.00  0.00    -0.175 A  
ENDROOT
BRANCH   6   9
HETATM    9  C   UNL     1      -8.977   6.702  70.627  1.00  0.00    -0.151 C  
HETATM   10  O   UNL     1      -9.621   7.170  71.553  1.00  0.00    -0.158 OA 
BRANCH   9  11
HETATM   11  O   UNL     1      -7.636   6.517  70.600  1.00  0.00    -0.097 OA 
BRANCH  11  12
HETATM   12  C   UNL     1      -6.854   7.650  70.189  1.00  0.00    -0.050 C  
BRANCH  12  13
HETATM   13  C   UNL     1      -6.806   7.716  68.683  1.00  0.00    -0.066 A  
HETATM   14  C   UNL     1      -7.265   8.855  68.005  1.00  0.00    -0.083 A  
HETATM   15  C   UNL     1      -7.206   8.923  66.612  1.00  0.00    -0.085 A  
HETATM   16  C   UNL     1      -6.686   7.855  65.883  1.00  0.00    -0.049 A  
HETATM   17  C   UNL     1      -6.226   6.718  66.545  1.00  0.00    -0.044 A  
HETATM   18  C   UNL     1      -6.286   6.648  67.938  1.00  0.00    -0.047 A  
ENDBRANCH  12  13
ENDBRANCH  11  12
ENDBRANCH   9  11
ENDBRANCH   6   9
TORSDOF 4
ENDMDL
MODEL      232
REMARK 921   NORMALIZED FREE ENERGY PREDICTED BY IDOCK:   -2.69 KCAL/MOL
REMARK 922        TOTAL FREE ENERGY PREDICTED BY IDOCK:   -3.94 KCAL/MOL
REMARK 923 INTER-LIGAND FREE ENERGY PREDICTED BY IDOCK:   -3.56 KCAL/MOL
REMARK 924 INTRA-LIGAND FREE ENERGY PREDICTED BY IDOCK:   -0.38 KCAL/MOL
REMARK 927      BINDING AFFINITY PREDICTED BY RF-SCORE:    0.00 PKD
ROOT
HETATM    1  O   UNL     1      -6.808   4.304  72.487  1.00  0.00    -0.050 OA 
HETATM    2  C   UNL     1      -7.682   5.228  71.996  1.00  0.00    -0.100 A  
HETATM    3  H   UNL     1      -5.870   4.451  72.464  1.00  0.00     0.000 HD 
HETATM    4  C   UNL     1      -9.055   5.013  72.029  1.00  0.00    -0.153 A  
HETATM    5  C   UNL     1      -9.911   5.981  71.499  1.00  0.00    -0.197 A  
HETATM    6  C   UNL     1      -9.395   7.161  70.937  1.00  0.00    -0.160 A  
HETATM    7  C   UNL     1      -7.154   6.395  71.454  1.00  0.00    -0.077 A  
HETATM    8  C   UNL     1      -8.010   7.366  70.923  1.00  0.00    -0.097 A  
ENDROOT
BRANCH   6   9
HETATM    9  C   UNL     1     -10.363   8.137  70.362  1.00  0.00    -0.206 C  
HETATM   10  O   UNL     1     -11.551   8.131  70.641  1.00  0.00    -0.272 OA 
BRANCH   9  11
HETATM   11  O   UNL     1      -9.751   8.971  69.489  1.00  0.00    -0.164 OA 
BRANCH  11  12
HETATM   12  C   UNL     1     -10.537  10.078  69.022  1.00  0.00    -0.214 C  
BRANCH  12  13
HETATM   13  C   UNL     1     -10.394  10.211  67.528  1.00  0.00    -0.279 A  
HETATM   14  C   UNL     1     -10.943  11.312  66.854  1.00  0.00    -0.348 A  
HETATM   15  C   UNL     1     -10.797  11.443  65.472  1.00  0.00    -0.282 A  
HETATM   16  C   UNL     1     -10.101  10.477  64.749  1.00  0.00    -0.406 A  
HETATM   17  C   UNL     1      -9.551   9.378  65.406  1.00  0.00    -0.296 A  
HETATM   18  C   UNL     1      -9.697   9.244  66.788  1.00  0.00    -0.260 A  
ENDBRANCH  12  13
ENDBRANCH  11  12
ENDBRANCH   9  11
ENDBRANCH   6   9
TORSDOF 4
ENDMDL
MODEL      233
REMARK 921   NORMALIZED FREE ENERGY PREDICTED BY IDOCK:   -2.60 KCAL/MOL
REMARK 922        TOTAL FREE ENERGY PREDICTED BY IDOCK:   -3.83 KCAL/MOL
REMARK 923 INTER-LIGAND FREE ENERGY PREDICTED BY IDOCK:   -3.14 KCAL/MOL
REMARK 924 INTRA-LIGAND FREE ENERGY PREDICTED BY IDOCK:   -0.69 KCAL/MOL
REMARK 927      BINDING AFFINITY PREDICTED BY RF-SCORE:    0.00 PKD
ROOT
HETATM    1  O   UNL     1      -8.827   4.635  72.929  1.00  0.00    -0.115 OA 
HETATM    2  C   UNL     1      -9.211   5.399  71.867  1.00  0.00    -0.138 A  
HETATM    3  H   UNL     1      -9.434   4.046  73.360  1.00  0.00     0.000 HD 
HETATM    4  C   UNL     1      -8.322   6.261  71.237  1.00  0.00    -0.123 A  
HETATM    5  C   UNL     1      -8.766   7.036  70.164  1.00  0.00    -0.141 A  
HETATM    6  C   UNL     1     -10.097   6.949  69.721  1.00  0.00    -0.196 A  
HETATM    7  C   UNL     1     -10.529   5.291  71.436  1.00  0.00    -0.273 A  
HETATM    8  C   UNL     1     -10.977   6.066  70.361  1.00  0.00    -0.399 A  
ENDROOT
BRANCH   6   9
HETATM    9  C   UNL     1     -10.512   7.826  68.591  1.00  0.00    -0.172 C  
HETATM   10  O   UNL     1     -10.701   9.025  68.721  1.00  0.00    -0.195 OA 
BRANCH   9  11
HETATM   11  O   UNL     1     -10.677   7.110  67.454  1.00  0.00    -0.265 OA 
BRANCH  11  12
HETATM   12  C   UNL     1      -9.495   6.903  66.666  1.00  0.00    -0.166 C  
BRANCH  12  13
HETATM   13  C   UNL     1      -9.304   5.429  66.411  1.00  0.00    -0.157 A  
HETATM   14  C   UNL     1      -9.359   4.510  67.469  1.00  0.00    -0.172 A  
HETATM   15  C   UNL     1      -9.197   3.144  67.230  1.00  0.00    -0.219 A  
HETATM   16  C   UNL     1      -8.979   2.683  65.934  1.00  0.00    -0.131 A  
HETATM   17  C   UNL     1      -8.922   3.586  64.874  1.00  0.00    -0.131 A  
HETATM   18  C   UNL     1      -9.082   4.953  65.111  1.00  0.00    -0.146 A  
ENDBRANCH  12  13
ENDBRANCH  11  12
ENDBRANCH   9  11
ENDBRANCH   6   9
TORSDOF 4
ENDMDL
MODEL      234
REMARK 921   NORMALIZED FREE ENERGY PREDICTED BY IDOCK:   -2.59 KCAL/MOL
REMARK 922        TOTAL FREE ENERGY PREDICTED BY IDOCK:   -3.81 KCAL/MOL
REMARK 923 INTER-LIGAND FREE ENERGY PREDICTED BY IDOCK:   -3.23 KCAL/MOL
REMARK 924 INTRA-LIGAND FREE ENERGY PREDICTED BY IDOCK:   -0.58 KCAL/MOL
REMARK 927      BINDING AFFINITY PREDICTED BY RF-SCORE:    0.00 PKD
ROOT
HETATM    1  O   UNL     1      -7.912  12.425  66.384  1.00  0.00    -0.377 OA 
HETATM    2  C   UNL     1      -8.458  11.179  66.470  1.00  0.00    -0.165 A  
HETATM    3  H   UNL     1      -7.101  12.577  65.914  1.00  0.00     0.000 HD 
HETATM    4  C   UNL     1      -9.645  10.956  67.157  1.00  0.00    -0.187 A  
HETATM    5  C   UNL     1     -10.157   9.659  67.233  1.00  0.00    -0.267 A  
HETATM    6  C   UNL     1      -9.484   8.587  66.623  1.00  0.00    -0.268 A  
HETATM    7  C   UNL     1      -7.783  10.132  65.850  1.00  0.00    -0.127 A  
HETATM    8  C   UNL     1      -8.295   8.832  65.925  1.00  0.00    -0.131 A  
ENDROOT
BRANCH   6   9
HETATM    9  C   UNL     1     -10.070   7.225  66.769  1.00  0.00    -0.221 C  
HETATM   10  O   UNL     1     -11.266   7.034  66.917  1.00  0.00    -0.302 OA 
BRANCH   9  11
HETATM   11  O   UNL     1      -9.105   6.276  66.749  1.00  0.00    -0.126 OA 
BRANCH  11  12
HETATM   12  C   UNL     1      -9.371   5.094  67.519  1.00  0.00    -0.121 C  
BRANCH  12  13
HETATM   13  C   UNL     1      -8.992   5.326  68.959  1.00  0.00    -0.126 A  
HETATM   14  C   UNL     1      -7.804   5.999  69.283  1.00  0.00    -0.103 A  
HETATM   15  C   UNL     1      -7.461   6.228  70.618  1.00  0.00    -0.087 A  
HETATM   16  C   UNL     1      -8.299   5.788  71.640  1.00  0.00    -0.124 A  
HETATM   17  C   UNL     1      -9.482   5.118  71.330  1.00  0.00    -0.200 A  
HETATM   18  C   UNL     1      -9.826   4.887  69.997  1.00  0.00    -0.304 A  
ENDBRANCH  12  13
ENDBRANCH  11  12
ENDBRANCH   9  11
ENDBRANCH   6   9
TORSDOF 4
ENDMDL
MODEL      235
REMARK 921   NORMALIZED FREE ENERGY PREDICTED BY IDOCK:   -2.53 KCAL/MOL
REMARK 922        TOTAL FREE ENERGY PREDICTED BY IDOCK:   -3.75 KCAL/MOL
REMARK 923 INTER-LIGAND FREE ENERGY PREDICTED BY IDOCK:   -3.39 KCAL/MOL
REMARK 924 INTRA-LIGAND FREE ENERGY PREDICTED BY IDOCK:   -0.35 KCAL/MOL
REMARK 927      BINDING AFFINITY PREDICTED BY RF-SCORE:    0.00 PKD
ROOT
HETATM    1  O   UNL     1     -11.947   7.254  72.649  1.00  0.00    -0.509 OA 
HETATM    2  C   UNL     1     -11.367   6.574  71.620  1.00  0.00    -0.285 A  
HETATM    3  H   UNL     1     -12.655   7.868  72.499  1.00  0.00     0.000 HD 
HETATM    4  C   UNL     1     -10.331   5.674  71.840  1.00  0.00    -0.266 A  
HETATM    5  C   UNL     1      -9.756   5.014  70.752  1.00  0.00    -0.263 A  
HETATM    6  C   UNL     1     -10.217   5.252  69.446  1.00  0.00    -0.321 A  
HETATM    7  C   UNL     1     -11.844   6.814  70.335  1.00  0.00    -0.395 A  
HETATM    8  C   UNL     1     -11.270   6.153  69.244  1.00  0.00    -0.438 A  
ENDROOT
BRANCH   6   9
HETATM    9  C   UNL     1      -9.539   4.537  68.328  1.00  0.00    -0.143 C  
HETATM   10  O   UNL     1      -9.265   3.349  68.375  1.00  0.00    -0.142 OA 
BRANCH   9  11
HETATM   11  O   UNL     1      -9.253   5.384  67.312  1.00  0.00    -0.111 OA 
BRANCH  11  12
HETATM   12  C   UNL     1      -7.958   6.001  67.354  1.00  0.00    -0.102 C  
BRANCH  12  13
HETATM   13  C   UNL     1      -7.591   6.512  65.983  1.00  0.00    -0.087 A  
HETATM   14  C   UNL     1      -7.568   7.889  65.719  1.00  0.00    -0.083 A  
HETATM   15  C   UNL     1      -7.214   8.363  64.454  1.00  0.00    -0.087 A  
HETATM   16  C   UNL     1      -6.879   7.466  63.442  1.00  0.00    -0.054 A  
HETATM   17  C   UNL     1      -6.898   6.095  63.692  1.00  0.00    -0.041 A  
HETATM   18  C   UNL     1      -7.254   5.620  64.956  1.00  0.00    -0.066 A  
ENDBRANCH  12  13
ENDBRANCH  11  12
ENDBRANCH   9  11
ENDBRANCH   6   9
TORSDOF 4
ENDMDL
MODEL      236
REMARK 921   NORMALIZED FREE ENERGY PREDICTED BY IDOCK:   -2.32 KCAL/MOL
REMARK 922        TOTAL FREE ENERGY PREDICTED BY IDOCK:   -3.49 KCAL/MOL
REMARK 923 INTER-LIGAND FREE ENERGY PREDICTED BY IDOCK:   -3.55 KCAL/MOL
REMARK 924 INTRA-LIGAND FREE ENERGY PREDICTED BY IDOCK:    0.06 KCAL/MOL
REMARK 927      BINDING AFFINITY PREDICTED BY RF-SCORE:    0.00 PKD
ROOT
HETATM    1  O   UNL     1     -10.451   4.524  64.403  1.00  0.00    -0.427 OA 
HETATM    2  C   UNL     1      -9.888   4.776  65.618  1.00  0.00    -0.176 A  
HETATM    3  H   UNL     1     -10.538   3.639  64.072  1.00  0.00     0.000 HD 
HETATM    4  C   UNL     1      -9.760   6.072  66.102  1.00  0.00    -0.060 A  
HETATM    5  C   UNL     1      -9.160   6.282  67.346  1.00  0.00    -0.111 A  
HETATM    6  C   UNL     1      -8.689   5.197  68.104  1.00  0.00    -0.103 A  
HETATM    7  C   UNL     1      -9.438   3.688  66.360  1.00  0.00    -0.184 A  
HETATM    8  C   UNL     1      -8.836   3.896  67.606  1.00  0.00    -0.133 A  
ENDROOT
BRANCH   6   9
HETATM    9  C   UNL     1      -8.032   5.494  69.408  1.00  0.00    -0.094 C  
HETATM   10  O   UNL     1      -7.330   6.477  69.585  1.00  0.00    -0.079 OA 
BRANCH   9  11
HETATM   11  O   UNL     1      -8.295   4.526  70.316  1.00  0.00    -0.072 OA 
BRANCH  11  12
HETATM   12  C   UNL     1      -9.676   4.160  70.463  1.00  0.00    -0.200 C  
BRANCH  12  13
HETATM   13  C   UNL     1     -10.450   5.315  71.047  1.00  0.00    -0.274 A  
HETATM   14  C   UNL     1     -10.365   5.610  72.416  1.00  0.00    -0.245 A  
HETATM   15  C   UNL     1     -11.070   6.688  72.953  1.00  0.00    -0.263 A  
HETATM   16  C   UNL     1     -11.865   7.483  72.130  1.00  0.00    -0.338 A  
HETATM   17  C   UNL     1     -11.956   7.201  70.768  1.00  0.00    -0.352 A  
HETATM   18  C   UNL     1     -11.254   6.121  70.229  1.00  0.00    -0.439 A  
ENDBRANCH  12  13
ENDBRANCH  11  12
ENDBRANCH   9  11
ENDBRANCH   6   9
TORSDOF 4
ENDMDL
MODEL      237
REMARK 921   NORMALIZED FREE ENERGY PREDICTED BY IDOCK:   -2.31 KCAL/MOL
REMARK 922        TOTAL FREE ENERGY PREDICTED BY IDOCK:   -3.47 KCAL/MOL
REMARK 923 INTER-LIGAND FREE ENERGY PREDICTED BY IDOCK:   -2.98 KCAL/MOL
REMARK 924 INTRA-LIGAND FREE ENERGY PREDICTED BY IDOCK:   -0.48 KCAL/MOL
REMARK 927      BINDING AFFINITY PREDICTED BY RF-SCORE:    0.00 PKD
ROOT
HETATM    1  O   UNL     1      -8.935   6.858  74.353  1.00  0.00    -0.178 OA 
HETATM    2  C   UNL     1      -9.373   7.605  73.301  1.00  0.00    -0.243 A  
HETATM    3  H   UNL     1      -8.012   6.681  74.484  1.00  0.00     0.000 HD 
HETATM    4  C   UNL     1     -10.725   7.864  73.111  1.00  0.00    -0.331 A  
HETATM    5  C   UNL     1     -11.128   8.620  72.007  1.00  0.00    -0.437 A  
HETATM    6  C   UNL     1     -10.180   9.117  71.097  1.00  0.00    -0.384 A  
HETATM    7  C   UNL     1      -8.419   8.099  72.416  1.00  0.00    -0.238 A  
HETATM    8  C   UNL     1      -8.820   8.857  71.311  1.00  0.00    -0.298 A  
ENDROOT
BRANCH   6   9
HETATM    9  C   UNL     1     -10.680   9.891  69.926  1.00  0.00    -0.280 C  
HETATM   10  O   UNL     1     -11.612   9.511  69.234  1.00  0.00     0.102 OA 
BRANCH   9  11
HETATM   11  O   UNL     1      -9.947  11.012  69.735  1.00  0.00     0.099 OA 
BRANCH  11  12
HETATM   12  C   UNL     1      -9.551  11.281  68.381  1.00  0.00    -0.195 C  
BRANCH  12  13
HETATM   13  C   UNL     1      -8.185  11.917  68.367  1.00  0.00    -0.160 A  
HETATM   14  C   UNL     1      -7.029  11.123  68.369  1.00  0.00    -0.072 A  
HETATM   15  C   UNL     1      -5.763  11.712  68.340  1.00  0.00    -0.045 A  
HETATM   16  C   UNL     1      -5.640  13.100  68.308  1.00  0.00    -0.085 A  
HETATM   17  C   UNL     1      -6.781  13.900  68.304  1.00  0.00    -0.109 A  
HETATM   18  C   UNL     1      -8.047  13.313  68.335  1.00  0.00    -0.134 A  
ENDBRANCH  12  13
ENDBRANCH  11  12
ENDBRANCH   9  11
ENDBRANCH   6   9
TORSDOF 4
ENDMDL
MODEL      238
REMARK 921   NORMALIZED FREE ENERGY PREDICTED BY IDOCK:   -2.11 KCAL/MOL
REMARK 922        TOTAL FREE ENERGY PREDICTED BY IDOCK:   -3.22 KCAL/MOL
REMARK 923 INTER-LIGAND FREE ENERGY PREDICTED BY IDOCK:   -2.81 KCAL/MOL
REMARK 924 INTRA-LIGAND FREE ENERGY PREDICTED BY IDOCK:   -0.41 KCAL/MOL
REMARK 927      BINDING AFFINITY PREDICTED BY RF-SCORE:    0.00 PKD
ROOT
HETATM    1  O   UNL     1      -7.726   9.161  63.059  1.00  0.00    -0.104 OA 
HETATM    2  C   UNL     1      -8.284   8.855  64.264  1.00  0.00    -0.169 A  
HETATM    3  H   UNL     1      -8.037   9.894  62.542  1.00  0.00     0.000 HD 
HETATM    4  C   UNL     1      -7.827   7.782  65.021  1.00  0.00    -0.125 A  
HETATM    5  C   UNL     1      -8.443   7.496  66.242  1.00  0.00    -0.141 A  
HETATM    6  C   UNL     1      -9.512   8.282  66.705  1.00  0.00    -0.256 A  
HETATM    7  C   UNL     1      -9.334   9.650  64.712  1.00  0.00    -0.286 A  
HETATM    8  C   UNL     1      -9.951   9.366  65.935  1.00  0.00    -0.327 A  
ENDROOT
BRANCH   6   9
HETATM    9  C   UNL     1     -10.142   7.903  68.001  1.00  0.00    -0.192 C  
HETATM   10  O   UNL     1     -11.276   7.458  68.078  1.00  0.00     0.080 OA 
BRANCH   9  11
HETATM   11  O   UNL     1      -9.309   8.154  69.038  1.00  0.00    -0.148 OA 
BRANCH  11  12
HETATM   12  C   UNL     1      -9.854   7.936  70.348  1.00  0.00    -0.183 C  
BRANCH  12  13
HETATM   13  C   UNL     1      -9.394   6.601  70.876  1.00  0.00    -0.159 A  
HETATM   14  C   UNL     1     -10.231   5.834  71.700  1.00  0.00    -0.253 A  
HETATM   15  C   UNL     1      -9.811   4.590  72.177  1.00  0.00    -0.237 A  
HETATM   16  C   UNL     1      -8.552   4.101  71.835  1.00  0.00    -0.117 A  
HETATM   17  C   UNL     1      -7.711   4.853  71.016  1.00  0.00    -0.082 A  
HETATM   18  C   UNL     1      -8.129   6.098  70.540  1.00  0.00    -0.113 A  
ENDBRANCH  12  13
ENDBRANCH  11  12
ENDBRANCH   9  11
ENDBRANCH   6   9
TORSDOF 4
ENDMDL
MODEL      239
REMARK 921   NORMALIZED FREE ENERGY PREDICTED BY IDOCK:   -1.90 KCAL/MOL
REMARK 922        TOTAL FREE ENERGY PREDICTED BY IDOCK:   -2.96 KCAL/MOL
REMARK 923 INTER-LIGAND FREE ENERGY PREDICTED BY IDOCK:   -2.95 KCAL/MOL
REMARK 924 INTRA-LIGAND FREE ENERGY PREDICTED BY IDOCK:   -0.01 KCAL/MOL
REMARK 927      BINDING AFFINITY PREDICTED BY RF-SCORE:    0.00 PKD
ROOT
HETATM    1  O   UNL     1      -6.932   8.350  73.985  1.00  0.00    -0.140 OA 
HETATM    2  C   UNL     1      -7.593   7.660  73.013  1.00  0.00    -0.098 A  
HETATM    3  H   UNL     1      -5.986   8.428  73.979  1.00  0.00     0.000 HD 
HETATM    4  C   UNL     1      -8.978   7.547  73.022  1.00  0.00    -0.207 A  
HETATM    5  C   UNL     1      -9.610   6.814  72.014  1.00  0.00    -0.151 A  
HETATM    6  C   UNL     1      -8.859   6.197  70.999  1.00  0.00    -0.139 A  
HETATM    7  C   UNL     1      -6.833   7.066  72.010  1.00  0.00    -0.057 A  
HETATM    8  C   UNL     1      -7.464   6.332  71.000  1.00  0.00    -0.085 A  
ENDROOT
BRANCH   6   9
HETATM    9  C   UNL     1      -9.594   5.406  69.973  1.00  0.00    -0.169 C  
HETATM   10  O   UNL     1      -9.938   4.249  70.154  1.00  0.00    -0.220 OA 
BRANCH   9  11
HETATM   11  O   UNL     1      -9.779   6.129  68.844  1.00  0.00    -0.127 OA 
BRANCH  11  12
HETATM   12  C   UNL     1      -8.858   7.210  68.631  1.00  0.00    -0.126 C  
BRANCH  12  13
HETATM   13  C   UNL     1      -9.618   8.501  68.462  1.00  0.00    -0.158 A  
HETATM   14  C   UNL     1      -9.725   9.409  69.526  1.00  0.00    -0.191 A  
HETATM   15  C   UNL     1     -10.415  10.612  69.365  1.00  0.00    -0.252 A  
HETATM   16  C   UNL     1     -11.004  10.920  68.141  1.00  0.00    -0.302 A  
HETATM   17  C   UNL     1     -10.904  10.026  67.076  1.00  0.00    -0.196 A  
HETATM   18  C   UNL     1     -10.216   8.822  67.236  1.00  0.00    -0.332 A  
ENDBRANCH  12  13
ENDBRANCH  11  12
ENDBRANCH   9  11
ENDBRANCH   6   9
TORSDOF 4
ENDMDL
MODEL      240
REMARK 921   NORMALIZED FREE ENERGY PREDICTED BY IDOCK:   -1.60 KCAL/MOL
REMARK 922        TOTAL FREE ENERGY PREDICTED BY IDOCK:   -2.60 KCAL/MOL
REMARK 923 INTER-LIGAND FREE ENERGY PREDICTED BY IDOCK:   -2.07 KCAL/MOL
REMARK 924 INTRA-LIGAND FREE ENERGY PREDICTED BY IDOCK:   -0.53 KCAL/MOL
REMARK 927      BINDING AFFINITY PREDICTED BY RF-SCORE:    0.00 PKD
ROOT
HETATM    1  O   UNL     1      -6.932   8.350  73.985  1.00  0.00    -0.140 OA 
HETATM    2  C   UNL     1      -7.593   7.660  73.013  1.00  0.00    -0.098 A  
HETATM    3  H   UNL     1      -5.986   8.428  73.979  1.00  0.00     0.000 HD 
HETATM    4  C   UNL     1      -8.978   7.547  73.022  1.00  0.00    -0.207 A  
HETATM    5  C   UNL     1      -9.610   6.814  72.014  1.00  0.00    -0.151 A  
HETATM    6  C   UNL     1      -8.859   6.197  70.999  1.00  0.00    -0.139 A  
HETATM    7  C   UNL     1      -6.833   7.066  72.010  1.00  0.00    -0.057 A  
HETATM    8  C   UNL     1      -7.464   6.332  71.000  1.00  0.00    -0.085 A  
ENDROOT
BRANCH   6   9
HETATM    9  C   UNL     1      -9.594   5.406  69.973  1.00  0.00    -0.169 C  
HETATM   10  O   UNL     1      -9.938   4.249  70.154  1.00  0.00    -0.220 OA 
BRANCH   9  11
HETATM   11  O   UNL     1      -9.779   6.129  68.844  1.00  0.00    -0.127 OA 
BRANCH  11  12
HETATM   12  C   UNL     1      -9.464   5.460  67.612  1.00  0.00    -0.122 C  
BRANCH  12  13
HETATM   13  C   UNL     1      -8.449   6.265  66.841  1.00  0.00    -0.109 A  
HETATM   14  C   UNL     1      -7.094   5.900  66.851  1.00  0.00    -0.070 A  
HETATM   15  C   UNL     1      -6.156   6.637  66.124  1.00  0.00    -0.033 A  
HETATM   16  C   UNL     1      -6.562   7.742  65.380  1.00  0.00    -0.044 A  
HETATM   17  C   UNL     1      -7.905   8.114  65.361  1.00  0.00    -0.115 A  
HETATM   18  C   UNL     1      -8.844   7.380  66.089  1.00  0.00    -0.185 A  
ENDBRANCH  12  13
ENDBRANCH  11  12
ENDBRANCH   9  11
ENDBRANCH   6   9
TORSDOF 4
ENDMDL
MODEL      241
REMARK 921   NORMALIZED FREE ENERGY PREDICTED BY IDOCK:   -1.55 KCAL/MOL
REMARK 922        TOTAL FREE ENERGY PREDICTED BY IDOCK:   -2.53 KCAL/MOL
REMARK 923 INTER-LIGAND FREE ENERGY PREDICTED BY IDOCK:   -2.19 KCAL/MOL
REMARK 924 INTRA-LIGAND FREE ENERGY PREDICTED BY IDOCK:   -0.34 KCAL/MOL
REMARK 927      BINDING AFFINITY PREDICTED BY RF-SCORE:    0.00 PKD
ROOT
HETATM    1  O   UNL     1      -8.168  15.207  68.772  1.00  0.00    -0.147 OA 
HETATM    2  C   UNL     1      -8.054  13.977  68.197  1.00  0.00    -0.151 A  
HETATM    3  H   UNL     1      -7.443  15.602  69.242  1.00  0.00     0.000 HD 
HETATM    4  C   UNL     1      -9.115  13.400  67.508  1.00  0.00    -0.215 A  
HETATM    5  C   UNL     1      -8.956  12.129  66.950  1.00  0.00    -0.201 A  
HETATM    6  C   UNL     1      -7.740  11.438  67.079  1.00  0.00    -0.154 A  
HETATM    7  C   UNL     1      -6.839  13.312  68.325  1.00  0.00    -0.105 A  
HETATM    8  C   UNL     1      -6.678  12.040  67.767  1.00  0.00    -0.096 A  
ENDROOT
BRANCH   6   9
HETATM    9  C   UNL     1      -7.650  10.074  66.486  1.00  0.00    -0.106 C  
HETATM   10  O   UNL     1      -7.132   9.859  65.402  1.00  0.00    -0.107 OA 
BRANCH   9  11
HETATM   11  O   UNL     1      -8.239   9.156  67.287  1.00  0.00    -0.112 OA 
BRANCH  11  12
HETATM   12  C   UNL     1      -9.219   8.313  66.660  1.00  0.00    -0.179 C  
BRANCH  12  13
HETATM   13  C   UNL     1      -8.763   6.877  66.710  1.00  0.00    -0.122 A  
HETATM   14  C   UNL     1      -9.432   5.945  67.517  1.00  0.00    -0.110 A  
HETATM   15  C   UNL     1      -9.020   4.611  67.551  1.00  0.00    -0.122 A  
HETATM   16  C   UNL     1      -7.936   4.196  66.780  1.00  0.00    -0.097 A  
HETATM   17  C   UNL     1      -7.263   5.113  65.974  1.00  0.00    -0.073 A  
HETATM   18  C   UNL     1      -7.673   6.447  65.940  1.00  0.00    -0.094 A  
ENDBRANCH  12  13
ENDBRANCH  11  12
ENDBRANCH   9  11
ENDBRANCH   6   9
TORSDOF 4
ENDMDL
MODEL      242
REMARK 921   NORMALIZED FREE ENERGY PREDICTED BY IDOCK:   -1.54 KCAL/MOL
REMARK 922        TOTAL FREE ENERGY PREDICTED BY IDOCK:   -2.52 KCAL/MOL
REMARK 923 INTER-LIGAND FREE ENERGY PREDICTED BY IDOCK:   -2.11 KCAL/MOL
REMARK 924 INTRA-LIGAND FREE ENERGY PREDICTED BY IDOCK:   -0.41 KCAL/MOL
REMARK 927      BINDING AFFINITY PREDICTED BY RF-SCORE:    0.00 PKD
ROOT
HETATM    1  O   UNL     1     -11.825   5.215  65.551  1.00  0.00    -0.290 OA 
HETATM    2  C   UNL     1     -10.845   5.371  66.485  1.00  0.00    -0.148 A  
HETATM    3  H   UNL     1     -11.977   4.378  65.130  1.00  0.00     0.000 HD 
HETATM    4  C   UNL     1     -10.622   6.597  67.101  1.00  0.00    -0.401 A  
HETATM    5  C   UNL     1      -9.595   6.714  68.040  1.00  0.00    -0.123 A  
HETATM    6  C   UNL     1      -8.792   5.607  68.363  1.00  0.00    -0.108 A  
HETATM    7  C   UNL     1     -10.067   4.262  66.800  1.00  0.00    -0.116 A  
HETATM    8  C   UNL     1      -9.038   4.376  67.740  1.00  0.00    -0.149 A  
ENDROOT
BRANCH   6   9
HETATM    9  C   UNL     1      -7.694   5.808  69.350  1.00  0.00    -0.092 C  
HETATM   10  O   UNL     1      -6.518   5.640  69.072  1.00  0.00    -0.038 OA 
BRANCH   9  11
HETATM   11  O   UNL     1      -8.188   6.155  70.562  1.00  0.00    -0.110 OA 
BRANCH  11  12
HETATM   12  C   UNL     1      -9.032   5.183  71.197  1.00  0.00    -0.138 C  
BRANCH  12  13
HETATM   13  C   UNL     1      -8.243   4.421  72.232  1.00  0.00    -0.108 A  
HETATM   14  C   UNL     1      -8.385   3.031  72.354  1.00  0.00    -0.074 A  
HETATM   15  C   UNL     1      -7.643   2.324  73.302  1.00  0.00    -0.042 A  
HETATM   16  C   UNL     1      -6.753   2.997  74.136  1.00  0.00    -0.034 A  
HETATM   17  C   UNL     1      -6.603   4.378  74.024  1.00  0.00    -0.054 A  
HETATM   18  C   UNL     1      -7.345   5.088  73.078  1.00  0.00    -0.087 A  
ENDBRANCH  12  13
ENDBRANCH  11  12
ENDBRANCH   9  11
ENDBRANCH   6   9
TORSDOF 4
ENDMDL
MODEL      243
REMARK 921   NORMALIZED FREE ENERGY PREDICTED BY IDOCK:   -1.51 KCAL/MOL
REMARK 922        TOTAL FREE ENERGY PREDICTED BY IDOCK:   -2.49 KCAL/MOL
REMARK 923 INTER-LIGAND FREE ENERGY PREDICTED BY IDOCK:   -2.69 KCAL/MOL
REMARK 924 INTRA-LIGAND FREE ENERGY PREDICTED BY IDOCK:    0.20 KCAL/MOL
REMARK 927      BINDING AFFINITY PREDICTED BY RF-SCORE:    0.00 PKD
ROOT
HETATM    1  O   UNL     1      -7.565   9.025  63.703  1.00  0.00    -0.108 OA 
HETATM    2  C   UNL     1      -8.311   9.127  64.839  1.00  0.00    -0.162 A  
HETATM    3  H   UNL     1      -7.726   9.585  62.953  1.00  0.00     0.000 HD 
HETATM    4  C   UNL     1      -8.075   8.307  65.936  1.00  0.00    -0.105 A  
HETATM    5  C   UNL     1      -8.878   8.437  67.072  1.00  0.00    -0.146 A  
HETATM    6  C   UNL     1      -9.914   9.385  67.110  1.00  0.00    -0.263 A  
HETATM    7  C   UNL     1      -9.326  10.079  64.863  1.00  0.00    -0.324 A  
HETATM    8  C   UNL     1     -10.131  10.211  65.999  1.00  0.00    -0.317 A  
ENDROOT
BRANCH   6   9
HETATM    9  C   UNL     1     -10.752   9.450  68.341  1.00  0.00    -0.168 C  
HETATM   10  O   UNL     1     -10.767  10.423  69.078  1.00  0.00    -0.200 OA 
BRANCH   9  11
HETATM   11  O   UNL     1     -11.435   8.296  68.525  1.00  0.00     0.684 OA 
BRANCH  11  12
HETATM   12  C   UNL     1     -10.646   7.149  68.875  1.00  0.00    -0.201 C  
BRANCH  12  13
HETATM   13  C   UNL     1     -10.242   7.230  70.325  1.00  0.00    -0.205 A  
HETATM   14  C   UNL     1      -8.940   6.892  70.722  1.00  0.00    -0.150 A  
HETATM   15  C   UNL     1      -8.562   6.982  72.063  1.00  0.00    -0.123 A  
HETATM   16  C   UNL     1      -9.480   7.409  73.020  1.00  0.00    -0.233 A  
HETATM   17  C   UNL     1     -10.777   7.748  72.638  1.00  0.00    -0.402 A  
HETATM   18  C   UNL     1     -11.157   7.657  71.298  1.00  0.00    -0.268 A  
ENDBRANCH  12  13
ENDBRANCH  11  12
ENDBRANCH   9  11
ENDBRANCH   6   9
TORSDOF 4
ENDMDL
MODEL      244
REMARK 921   NORMALIZED FREE ENERGY PREDICTED BY IDOCK:   -1.49 KCAL/MOL
REMARK 922        TOTAL FREE ENERGY PREDICTED BY IDOCK:   -2.46 KCAL/MOL
REMARK 923 INTER-LIGAND FREE ENERGY PREDICTED BY IDOCK:   -2.19 KCAL/MOL
REMARK 924 INTRA-LIGAND FREE ENERGY PREDICTED BY IDOCK:   -0.27 KCAL/MOL
REMARK 927      BINDING AFFINITY PREDICTED BY RF-SCORE:    0.00 PKD
ROOT
HETATM    1  O   UNL     1     -11.948  15.467  65.777  1.00  0.00     0.152 OA 
HETATM    2  C   UNL     1     -11.108  14.408  65.952  1.00  0.00    -0.319 A  
HETATM    3  H   UNL     1     -11.616  16.353  65.695  1.00  0.00     0.000 HD 
HETATM    4  C   UNL     1     -11.594  13.111  66.070  1.00  0.00    -0.393 A  
HETATM    5  C   UNL     1     -10.695  12.060  66.266  1.00  0.00    -0.302 A  
HETATM    6  C   UNL     1      -9.314  12.304  66.342  1.00  0.00    -0.219 A  
HETATM    7  C   UNL     1      -9.743  14.668  66.013  1.00  0.00    -0.340 A  
HETATM    8  C   UNL     1      -8.841  13.616  66.209  1.00  0.00     0.232 A  
ENDROOT
BRANCH   6   9
HETATM    9  C   UNL     1      -8.415  11.141  66.583  1.00  0.00    -0.164 C  
HETATM   10  O   UNL     1      -7.238  11.139  66.259  1.00  0.00    -0.122 OA 
BRANCH   9  11
HETATM   11  O   UNL     1      -9.087  10.117  67.158  1.00  0.00    -0.135 OA 
BRANCH  11  12
HETATM   12  C   UNL     1      -9.169  10.147  68.592  1.00  0.00    -0.157 C  
BRANCH  12  13
HETATM   13  C   UNL     1      -7.829   9.797  69.187  1.00  0.00    -0.095 A  
HETATM   14  C   UNL     1      -7.080  10.764  69.873  1.00  0.00    -0.099 A  
HETATM   15  C   UNL     1      -5.845  10.435  70.437  1.00  0.00    -0.094 A  
HETATM   16  C   UNL     1      -5.348   9.139  70.323  1.00  0.00    -0.027 A  
HETATM   17  C   UNL     1      -6.084   8.169  69.643  1.00  0.00    -0.029 A  
HETATM   18  C   UNL     1      -7.317   8.496  69.077  1.00  0.00    -0.081 A  
ENDBRANCH  12  13
ENDBRANCH  11  12
ENDBRANCH   9  11
ENDBRANCH   6   9
TORSDOF 4
ENDMDL
MODEL      245
REMARK 921   NORMALIZED FREE ENERGY PREDICTED BY IDOCK:   -1.45 KCAL/MOL
REMARK 922        TOTAL FREE ENERGY PREDICTED BY IDOCK:   -2.41 KCAL/MOL
REMARK 923 INTER-LIGAND FREE ENERGY PREDICTED BY IDOCK:   -2.57 KCAL/MOL
REMARK 924 INTRA-LIGAND FREE ENERGY PREDICTED BY IDOCK:    0.16 KCAL/MOL
REMARK 927      BINDING AFFINITY PREDICTED BY RF-SCORE:    0.00 PKD
ROOT
HETATM    1  O   UNL     1     -11.323   5.458  65.732  1.00  0.00    -0.743 OA 
HETATM    2  C   UNL     1     -10.604   5.438  66.890  1.00  0.00    -0.250 A  
HETATM    3  H   UNL     1     -11.458   4.669  65.220  1.00  0.00     0.000 HD 
HETATM    4  C   UNL     1     -10.408   6.592  67.639  1.00  0.00    -0.248 A  
HETATM    5  C   UNL     1      -9.649   6.526  68.810  1.00  0.00    -0.126 A  
HETATM    6  C   UNL     1      -9.089   5.309  69.232  1.00  0.00    -0.138 A  
HETATM    7  C   UNL     1     -10.068   4.221  67.298  1.00  0.00    -0.043 A  
HETATM    8  C   UNL     1      -9.308   4.153  68.471  1.00  0.00    -0.216 A  
ENDROOT
BRANCH   6   9
HETATM    9  C   UNL     1      -8.266   5.315  70.473  1.00  0.00    -0.108 C  
HETATM   10  O   UNL     1      -8.524   4.615  71.440  1.00  0.00    -0.103 OA 
BRANCH   9  11
HETATM   11  O   UNL     1      -7.253   6.208  70.381  1.00  0.00    -0.080 OA 
BRANCH  11  12
HETATM   12  C   UNL     1      -7.576   7.562  70.732  1.00  0.00    -0.081 C  
BRANCH  12  13
HETATM   13  C   UNL     1      -6.767   7.984  71.933  1.00  0.00    -0.067 A  
HETATM   14  C   UNL     1      -5.963   9.132  71.883  1.00  0.00    -0.054 A  
HETATM   15  C   UNL     1      -5.226   9.531  73.000  1.00  0.00    -0.060 A  
HETATM   16  C   UNL     1      -5.286   8.788  74.177  1.00  0.00    -0.107 A  
HETATM   17  C   UNL     1      -6.082   7.646  74.240  1.00  0.00    -0.081 A  
HETATM   18  C   UNL     1      -6.818   7.244  73.123  1.00  0.00    -0.065 A  
ENDBRANCH  12  13
ENDBRANCH  11  12
ENDBRANCH   9  11
ENDBRANCH   6   9
TORSDOF 4
ENDMDL
MODEL      246
REMARK 921   NORMALIZED FREE ENERGY PREDICTED BY IDOCK:   -1.34 KCAL/MOL
REMARK 922        TOTAL FREE ENERGY PREDICTED BY IDOCK:   -2.27 KCAL/MOL
REMARK 923 INTER-LIGAND FREE ENERGY PREDICTED BY IDOCK:   -2.28 KCAL/MOL
REMARK 924 INTRA-LIGAND FREE ENERGY PREDICTED BY IDOCK:    0.00 KCAL/MOL
REMARK 927      BINDING AFFINITY PREDICTED BY RF-SCORE:    0.00 PKD
ROOT
HETATM    1  O   UNL     1      -9.904   5.089  64.719  1.00  0.00    -0.361 OA 
HETATM    2  C   UNL     1      -9.616   5.201  66.047  1.00  0.00    -0.162 A  
HETATM    3  H   UNL     1      -9.896   4.247  64.281  1.00  0.00     0.000 HD 
HETATM    4  C   UNL     1      -9.629   6.434  66.688  1.00  0.00    -0.194 A  
HETATM    5  C   UNL     1      -9.310   6.500  68.047  1.00  0.00    -0.108 A  
HETATM    6  C   UNL     1      -8.981   5.337  68.762  1.00  0.00    -0.125 A  
HETATM    7  C   UNL     1      -9.304   4.036  66.742  1.00  0.00    -0.199 A  
HETATM    8  C   UNL     1      -8.985   4.101  68.102  1.00  0.00    -0.150 A  
ENDROOT
BRANCH   6   9
HETATM    9  C   UNL     1      -8.622   5.483  70.201  1.00  0.00    -0.121 C  
HETATM   10  O   UNL     1      -9.320   6.093  70.996  1.00  0.00    -0.162 OA 
BRANCH   9  11
HETATM   11  O   UNL     1      -7.434   4.892  70.468  1.00  0.00    -0.056 OA 
BRANCH  11  12
HETATM   12  C   UNL     1      -7.456   3.461  70.580  1.00  0.00    -0.040 C  
BRANCH  12  13
HETATM   13  C   UNL     1      -8.078   3.062  71.894  1.00  0.00    -0.058 A  
HETATM   14  C   UNL     1      -7.455   3.394  73.107  1.00  0.00    -0.056 A  
HETATM   15  C   UNL     1      -8.038   3.037  74.324  1.00  0.00    -0.069 A  
HETATM   16  C   UNL     1      -9.248   2.347  74.343  1.00  0.00    -0.091 A  
HETATM   17  C   UNL     1      -9.877   2.012  73.145  1.00  0.00    -0.148 A  
HETATM   18  C   UNL     1      -9.295   2.366  71.927  1.00  0.00    -0.174 A  
ENDBRANCH  12  13
ENDBRANCH  11  12
ENDBRANCH   9  11
ENDBRANCH   6   9
TORSDOF 4
ENDMDL
MODEL      247
REMARK 921   NORMALIZED FREE ENERGY PREDICTED BY IDOCK:   -1.32 KCAL/MOL
REMARK 922        TOTAL FREE ENERGY PREDICTED BY IDOCK:   -2.25 KCAL/MOL
REMARK 923 INTER-LIGAND FREE ENERGY PREDICTED BY IDOCK:   -3.34 KCAL/MOL
REMARK 924 INTRA-LIGAND FREE ENERGY PREDICTED BY IDOCK:    1.09 KCAL/MOL
REMARK 927      BINDING AFFINITY PREDICTED BY RF-SCORE:    0.00 PKD
ROOT
HETATM    1  O   UNL     1     -11.324   5.458  65.733  1.00  0.00    -0.743 OA 
HETATM    2  C   UNL     1     -10.639   5.525  66.909  1.00  0.00    -0.278 A  
HETATM    3  H   UNL     1     -11.394   4.646  65.247  1.00  0.00     0.000 HD 
HETATM    4  C   UNL     1     -10.538   6.715  67.620  1.00  0.00    -0.325 A  
HETATM    5  C   UNL     1      -9.810   6.739  68.812  1.00  0.00    -0.143 A  
HETATM    6  C   UNL     1      -9.187   5.575  69.293  1.00  0.00    -0.140 A  
HETATM    7  C   UNL     1     -10.038   4.361  67.375  1.00  0.00    -0.081 A  
HETATM    8  C   UNL     1      -9.309   4.382  68.569  1.00  0.00    -0.203 A  
ENDROOT
BRANCH   6   9
HETATM    9  C   UNL     1      -8.401   5.678  70.555  1.00  0.00    -0.117 C  
HETATM   10  O   UNL     1      -8.687   5.051  71.563  1.00  0.00    -0.127 OA 
BRANCH   9  11
HETATM   11  O   UNL     1      -7.388   6.565  70.425  1.00  0.00    -0.080 OA 
BRANCH  11  12
HETATM   12  C   UNL     1      -7.623   7.872  70.972  1.00  0.00    -0.082 C  
BRANCH  12  13
HETATM   13  C   UNL     1      -8.284   8.746  69.938  1.00  0.00    -0.118 A  
HETATM   14  C   UNL     1      -9.494   9.397  70.223  1.00  0.00    -0.294 A  
HETATM   15  C   UNL     1     -10.099  10.219  69.270  1.00  0.00    -0.244 A  
HETATM   16  C   UNL     1      -9.502  10.400  68.025  1.00  0.00    -0.152 A  
HETATM   17  C   UNL     1      -8.300   9.759  67.729  1.00  0.00    -0.114 A  
HETATM   18  C   UNL     1      -7.695   8.935  68.680  1.00  0.00    -0.097 A  
ENDBRANCH  12  13
ENDBRANCH  11  12
ENDBRANCH   9  11
ENDBRANCH   6   9
TORSDOF 4
ENDMDL
MODEL      248
REMARK 921   NORMALIZED FREE ENERGY PREDICTED BY IDOCK:   -1.17 KCAL/MOL
REMARK 922        TOTAL FREE ENERGY PREDICTED BY IDOCK:   -2.06 KCAL/MOL
REMARK 923 INTER-LIGAND FREE ENERGY PREDICTED BY IDOCK:   -1.71 KCAL/MOL
REMARK 924 INTRA-LIGAND FREE ENERGY PREDICTED BY IDOCK:   -0.35 KCAL/MOL
REMARK 927      BINDING AFFINITY PREDICTED BY RF-SCORE:    0.00 PKD
ROOT
HETATM    1  O   UNL     1      -7.800   7.041  73.772  1.00  0.00    -0.102 OA 
HETATM    2  C   UNL     1      -7.847   7.600  72.530  1.00  0.00    -0.101 A  
HETATM    3  H   UNL     1      -7.038   6.559  74.069  1.00  0.00     0.000 HD 
HETATM    4  C   UNL     1      -8.963   8.306  72.096  1.00  0.00    -0.274 A  
HETATM    5  C   UNL     1      -8.971   8.845  70.807  1.00  0.00    -0.254 A  
HETATM    6  C   UNL     1      -7.867   8.679  69.955  1.00  0.00    -0.093 A  
HETATM    7  C   UNL     1      -6.740   7.435  71.704  1.00  0.00    -0.050 A  
HETATM    8  C   UNL     1      -6.747   7.974  70.413  1.00  0.00    -0.037 A  
ENDROOT
BRANCH   6   9
HETATM    9  C   UNL     1      -7.955   9.254  68.583  1.00  0.00    -0.100 C  
HETATM   10  O   UNL     1      -8.522  10.309  68.345  1.00  0.00    -0.117 OA 
BRANCH   9  11
HETATM   11  O   UNL     1      -7.366   8.440  67.676  1.00  0.00    -0.089 OA 
BRANCH  11  12
HETATM   12  C   UNL     1      -6.576   9.091  66.670  1.00  0.00    -0.068 C  
BRANCH  12  13
HETATM   13  C   UNL     1      -6.705   8.350  65.363  1.00  0.00    -0.056 A  
HETATM   14  C   UNL     1      -7.380   7.122  65.304  1.00  0.00    -0.080 A  
HETATM   15  C   UNL     1      -7.513   6.444  64.090  1.00  0.00    -0.084 A  
HETATM   16  C   UNL     1      -6.975   6.986  62.925  1.00  0.00    -0.057 A  
HETATM   17  C   UNL     1      -6.302   8.206  62.971  1.00  0.00    -0.081 A  
HETATM   18  C   UNL     1      -6.166   8.884  64.183  1.00  0.00    -0.072 A  
ENDBRANCH  12  13
ENDBRANCH  11  12
ENDBRANCH   9  11
ENDBRANCH   6   9
TORSDOF 4
ENDMDL
MODEL      249
REMARK 921   NORMALIZED FREE ENERGY PREDICTED BY IDOCK:   -1.05 KCAL/MOL
REMARK 922        TOTAL FREE ENERGY PREDICTED BY IDOCK:   -1.92 KCAL/MOL
REMARK 923 INTER-LIGAND FREE ENERGY PREDICTED BY IDOCK:   -1.57 KCAL/MOL
REMARK 924 INTRA-LIGAND FREE ENERGY PREDICTED BY IDOCK:   -0.35 KCAL/MOL
REMARK 927      BINDING AFFINITY PREDICTED BY RF-SCORE:    0.00 PKD
ROOT
HETATM    1  O   UNL     1      -7.371  15.584  69.718  1.00  0.00    -0.185 OA 
HETATM    2  C   UNL     1      -7.230  14.409  69.043  1.00  0.00    -0.129 A  
HETATM    3  H   UNL     1      -6.661  15.946  70.234  1.00  0.00     0.000 HD 
HETATM    4  C   UNL     1      -8.269  13.880  68.287  1.00  0.00    -0.158 A  
HETATM    5  C   UNL     1      -8.083  12.663  67.626  1.00  0.00    -0.173 A  
HETATM    6  C   UNL     1      -6.860  11.977  67.721  1.00  0.00    -0.100 A  
HETATM    7  C   UNL     1      -6.008  13.750  69.139  1.00  0.00    -0.087 A  
HETATM    8  C   UNL     1      -5.820  12.531  68.478  1.00  0.00    -0.055 A  
ENDROOT
BRANCH   6   9
HETATM    9  C   UNL     1      -6.740  10.670  67.016  1.00  0.00    -0.086 C  
HETATM   10  O   UNL     1      -6.101   9.733  67.468  1.00  0.00    -0.057 OA 
BRANCH   9  11
HETATM   11  O   UNL     1      -7.391  10.696  65.830  1.00  0.00    -0.148 OA 
BRANCH  11  12
HETATM   12  C   UNL     1      -6.627  10.284  64.686  1.00  0.00    -0.092 C  
BRANCH  12  13
HETATM   13  C   UNL     1      -7.222   9.029  64.100  1.00  0.00    -0.095 A  
HETATM   14  C   UNL     1      -7.962   9.079  62.909  1.00  0.00    -0.147 A  
HETATM   15  C   UNL     1      -8.501   7.914  62.359  1.00  0.00    -0.035 A  
HETATM   16  C   UNL     1      -8.305   6.689  62.991  1.00  0.00     0.135 A  
HETATM   17  C   UNL     1      -7.572   6.625  64.175  1.00  0.00    -0.104 A  
HETATM   18  C   UNL     1      -7.034   7.789  64.728  1.00  0.00    -0.055 A  
ENDBRANCH  12  13
ENDBRANCH  11  12
ENDBRANCH   9  11
ENDBRANCH   6   9
TORSDOF 4
ENDMDL
MODEL      250
REMARK 921   NORMALIZED FREE ENERGY PREDICTED BY IDOCK:   -0.67 KCAL/MOL
REMARK 922        TOTAL FREE ENERGY PREDICTED BY IDOCK:   -1.44 KCAL/MOL
REMARK 923 INTER-LIGAND FREE ENERGY PREDICTED BY IDOCK:   -1.00 KCAL/MOL
REMARK 924 INTRA-LIGAND FREE ENERGY PREDICTED BY IDOCK:   -0.44 KCAL/MOL
REMARK 927      BINDING AFFINITY PREDICTED BY RF-SCORE:    0.00 PKD
ROOT
HETATM    1  O   UNL     1      -7.613   9.127  62.986  1.00  0.00    -0.103 OA 
HETATM    2  C   UNL     1      -7.495   8.656  64.260  1.00  0.00    -0.109 A  
HETATM    3  H   UNL     1      -8.246   9.800  62.765  1.00  0.00     0.000 HD 
HETATM    4  C   UNL     1      -6.568   7.671  64.583  1.00  0.00    -0.044 A  
HETATM    5  C   UNL     1      -6.496   7.207  65.898  1.00  0.00    -0.048 A  
HETATM    6  C   UNL     1      -7.347   7.726  66.888  1.00  0.00    -0.090 A  
HETATM    7  C   UNL     1      -8.339   9.189  65.228  1.00  0.00    -0.152 A  
HETATM    8  C   UNL     1      -8.267   8.726  66.546  1.00  0.00    -0.111 A  
ENDROOT
BRANCH   6   9
HETATM    9  C   UNL     1      -7.238   7.164  68.264  1.00  0.00    -0.091 C  
HETATM   10  O   UNL     1      -8.213   6.894  68.946  1.00  0.00    -0.119 OA 
BRANCH   9  11
HETATM   11  O   UNL     1      -5.943   7.040  68.636  1.00  0.00    -0.021 OA 
BRANCH  11  12
HETATM   12  C   UNL     1      -5.322   8.227  69.154  1.00  0.00    -0.031 C  
BRANCH  12  13
HETATM   13  C   UNL     1      -5.427   8.243  70.658  1.00  0.00    -0.028 A  
HETATM   14  C   UNL     1      -5.680   9.441  71.342  1.00  0.00    -0.073 A  
HETATM   15  C   UNL     1      -5.792   9.453  72.734  1.00  0.00     0.145 A  
HETATM   16  C   UNL     1      -5.653   8.269  73.455  1.00  0.00    -0.063 A  
HETATM   17  C   UNL     1      -5.402   7.072  72.787  1.00  0.00    -0.038 A  
HETATM   18  C   UNL     1      -5.288   7.059  71.396  1.00  0.00    -0.028 A  
ENDBRANCH  12  13
ENDBRANCH  11  12
ENDBRANCH   9  11
ENDBRANCH   6   9
TORSDOF 4
ENDMDL
MODEL      251
REMARK 921   NORMALIZED FREE ENERGY PREDICTED BY IDOCK:    0.72 KCAL/MOL
REMARK 922        TOTAL FREE ENERGY PREDICTED BY IDOCK:    0.27 KCAL/MOL
REMARK 923 INTER-LIGAND FREE ENERGY PREDICTED BY IDOCK:    0.57 KCAL/MOL
REMARK 924 INTRA-LIGAND FREE ENERGY PREDICTED BY IDOCK:   -0.30 KCAL/MOL
REMARK 927      BINDING AFFINITY PREDICTED BY RF-SCORE:    0.00 PKD
ROOT
HETATM    1  O   UNL     1     -13.206   9.473  70.381  1.00  0.00    -0.403 OA 
HETATM    2  C   UNL     1     -11.988   9.115  69.885  1.00  0.00     0.492 A  
HETATM    3  H   UNL     1     -13.961   9.571  69.814  1.00  0.00     0.000 HD 
HETATM    4  C   UNL     1     -10.883   8.972  70.716  1.00  0.00    -0.310 A  
HETATM    5  C   UNL     1      -9.651   8.620  70.159  1.00  0.00    -0.181 A  
HETATM    6  C   UNL     1      -9.525   8.410  68.776  1.00  0.00    -0.147 A  
HETATM    7  C   UNL     1     -11.885   8.900  68.514  1.00  0.00     1.937 A  
HETATM    8  C   UNL     1     -10.652   8.547  67.955  1.00  0.00    -0.197 A  
ENDROOT
BRANCH   6   9
HETATM    9  C   UNL     1      -8.176   8.067  68.245  1.00  0.00    -0.123 C  
HETATM   10  O   UNL     1      -7.373   8.913  67.885  1.00  0.00    -0.083 OA 
BRANCH   9  11
HETATM   11  O   UNL     1      -8.001   6.726  68.192  1.00  0.00    -0.111 OA 
BRANCH  11  12
HETATM   12  C   UNL     1      -7.011   6.257  67.264  1.00  0.00    -0.072 C  
BRANCH  12  13
HETATM   13  C   UNL     1      -6.767   4.785  67.477  1.00  0.00    -0.055 A  
HETATM   14  C   UNL     1      -5.477   4.250  67.341  1.00  0.00    -0.017 A  
HETATM   15  C   UNL     1      -5.249   2.889  67.554  1.00  0.00    -0.012 A  
HETATM   16  C   UNL     1      -6.304   2.050  67.906  1.00  0.00    -0.025 A  
HETATM   17  C   UNL     1      -7.590   2.571  68.045  1.00  0.00    -0.055 A  
HETATM   18  C   UNL     1      -7.821   3.930  67.831  1.00  0.00    -0.074 A  
ENDBRANCH  12  13
ENDBRANCH  11  12
ENDBRANCH   9  11
ENDBRANCH   6   9
TORSDOF 4
ENDMDL
MODEL      252
REMARK 921   NORMALIZED FREE ENERGY PREDICTED BY IDOCK:    1.33 KCAL/MOL
REMARK 922        TOTAL FREE ENERGY PREDICTED BY IDOCK:    1.02 KCAL/MOL
REMARK 923 INTER-LIGAND FREE ENERGY PREDICTED BY IDOCK:    0.72 KCAL/MOL
REMARK 924 INTRA-LIGAND FREE ENERGY PREDICTED BY IDOCK:    0.31 KCAL/MOL
REMARK 927      BINDING AFFINITY PREDICTED BY RF-SCORE:    0.00 PKD
ROOT
HETATM    1  O   UNL     1      -8.301   7.333  71.825  1.00  0.00    -0.104 OA 
HETATM    2  C   UNL     1      -8.887   8.151  70.906  1.00  0.00    -0.142 A  
HETATM    3  H   UNL     1      -7.367   7.158  71.807  1.00  0.00     0.000 HD 
HETATM    4  C   UNL     1     -10.252   8.408  70.933  1.00  0.00    -0.234 A  
HETATM    5  C   UNL     1     -10.811   9.239  69.959  1.00  0.00    -0.264 A  
HETATM    6  C   UNL     1     -10.006   9.813  68.962  1.00  0.00    -0.189 A  
HETATM    7  C   UNL     1      -8.072   8.720  69.932  1.00  0.00    -0.109 A  
HETATM    8  C   UNL     1      -8.629   9.553  68.956  1.00  0.00    -0.133 A  
ENDROOT
BRANCH   6   9
HETATM    9  C   UNL     1     -10.671  10.666  67.936  1.00  0.00    -0.248 C  
HETATM   10  O   UNL     1     -10.795  10.321  66.772  1.00  0.00    -0.187 OA 
BRANCH   9  11
HETATM   11  O   UNL     1     -11.065  11.846  68.468  1.00  0.00    -0.209 OA 
BRANCH  11  12
HETATM   12  C   UNL     1     -10.399  12.246  69.675  1.00  0.00     0.855 C  
BRANCH  12  13
HETATM   13  C   UNL     1      -9.212  13.113  69.339  1.00  0.00     1.151 A  
HETATM   14  C   UNL     1      -9.396  14.428  68.888  1.00  0.00    -0.096 A  
HETATM   15  C   UNL     1      -8.297  15.237  68.592  1.00  0.00    -0.162 A  
HETATM   16  C   UNL     1      -7.004  14.740  68.744  1.00  0.00    -0.103 A  
HETATM   17  C   UNL     1      -6.808  13.435  69.192  1.00  0.00    -0.076 A  
HETATM   18  C   UNL     1      -7.906  12.624  69.487  1.00  0.00     0.967 A  
ENDBRANCH  12  13
ENDBRANCH  11  12
ENDBRANCH   9  11
ENDBRANCH   6   9
TORSDOF 4
ENDMDL
