MODEL        1
REMARK 921   NORMALIZED FREE ENERGY PREDICTED BY IDOCK:   -4.65 KCAL/MOL
REMARK 922        TOTAL FREE ENERGY PREDICTED BY IDOCK:  -16.42 KCAL/MOL
REMARK 923 INTER-LIGAND FREE ENERGY PREDICTED BY IDOCK:  -13.62 KCAL/MOL
REMARK 924 INTRA-LIGAND FREE ENERGY PREDICTED BY IDOCK:   -2.80 KCAL/MOL
REMARK 927      BINDING AFFINITY PREDICTED BY RF-SCORE:    0.00 PKD
ROOT
HETATM    1  C   UNL     1     -10.372  10.824  64.407  1.00  0.00    -0.405 C  
HETATM    2  C   UNL     1     -10.729  11.835  63.334  1.00  0.00    -0.468 C  
ENDROOT
BRANCH   2   3
HETATM    3  C   UNL     1     -12.210  12.220  63.371  1.00  0.00    -0.630 C  
BRANCH   3   4
HETATM    4  C   UNL     1     -12.698  12.223  64.816  1.00  0.00    -0.106 C  
BRANCH   4   5
HETATM    5  N   UNL     1     -12.861  13.579  65.327  1.00  0.00    -0.704 NA 
HETATM    6  H   UNL     1     -13.786  13.994  65.438  1.00  0.00     0.000 HD 
BRANCH   5   7
HETATM    7  C   UNL     1     -11.700  14.296  65.663  1.00  0.00    -0.358 A  
HETATM    8  C   UNL     1     -11.299  15.460  64.994  1.00  0.00    -0.334 A  
HETATM    9  C   UNL     1     -10.101  16.103  65.303  1.00  0.00    -0.105 A  
HETATM   10  C   UNL     1      -9.246  15.579  66.275  1.00  0.00    -0.364 A  
HETATM   11  C   UNL     1     -10.826  13.767  66.625  1.00  0.00    -0.288 A  
HETATM   12  C   UNL     1      -9.612  14.401  66.936  1.00  0.00    -0.263 A  
BRANCH  10  13
HETATM   13  C   UNL     1      -7.973  16.303  66.523  1.00  0.00    -0.291 C  
HETATM   14  O   UNL     1      -7.182  15.984  67.399  1.00  0.00    -0.150 OA 
BRANCH  13  15
HETATM   15  O   UNL     1      -7.835  17.355  65.684  1.00  0.00    -0.465 OA 
BRANCH  15  16
HETATM   16  C   UNL     1      -6.552  18.005  65.744  1.00  0.00    -0.263 C  
BRANCH  16  17
HETATM   17  C   UNL     1      -6.672  19.420  66.311  1.00  0.00    -0.206 C  
BRANCH  17  18
HETATM   18  O   UNL     1      -6.757  19.351  67.738  1.00  0.00    -0.219 OA 
BRANCH  18  19
HETATM   19  C   UNL     1      -7.903  20.045  68.223  1.00  0.00    -0.199 C  
BRANCH  19  20
HETATM   20  C   UNL     1      -8.884  20.268  67.080  1.00  0.00    -0.326 C  
BRANCH  20  21
HETATM   21  O   UNL     1      -9.926  19.296  67.165  1.00  0.00    -0.326 OA 
BRANCH  21  22
HETATM   22  C   UNL     1     -10.159  18.900  68.515  1.00  0.00    -0.402 C  
BRANCH  22  23
HETATM   23  C   UNL     1     -10.879  17.558  68.524  1.00  0.00    -0.135 C  
BRANCH  23  24
HETATM   24  O   UNL     1     -10.461  16.811  69.665  1.00  0.00    -0.291 OA 
BRANCH  24  25
HETATM   25  C   UNL     1     -11.474  15.899  70.084  1.00  0.00    -0.361 C  
BRANCH  25  26
HETATM   26  C   UNL     1     -11.326  15.643  71.577  1.00  0.00    -0.381 C  
BRANCH  26  27
HETATM   27  O   UNL     1     -12.603  15.769  72.197  1.00  0.00    -0.394 OA 
BRANCH  27  28
HETATM   28  C   UNL     1     -12.878  14.653  73.040  1.00  0.00    -0.474 C  
BRANCH  28  29
HETATM   29  C   UNL     1     -13.847  13.721  72.328  1.00  0.00    -0.580 C  
BRANCH  29  30
HETATM   30  O   UNL     1     -13.364  12.385  72.435  1.00  0.00    -0.481 OA 
BRANCH  30  31
HETATM   31  C   UNL     1     -12.582  12.028  71.298  1.00  0.00    -0.252 C  
BRANCH  31  32
HETATM   32  C   UNL     1     -12.761  10.543  71.022  1.00  0.00    -0.408 C  
BRANCH  32  33
HETATM   33  O   UNL     1     -13.799  10.040  71.856  1.00  0.00    -0.199 OA 
BRANCH  33  34
HETATM   34  C   UNL     1     -13.831   8.615  71.834  1.00  0.00    -0.432 C  
BRANCH  34  35
HETATM   35  C   UNL     1     -12.488   8.100  71.338  1.00  0.00    -0.292 C  
BRANCH  35  36
HETATM   36  O   UNL     1     -11.940   7.218  72.315  1.00  0.00    -0.278 OA 
BRANCH  36  37
HETATM   37  C   UNL     1     -11.264   6.124  71.701  1.00  0.00    -0.286 C  
BRANCH  37  38
HETATM   38  C   UNL     1      -9.882   6.581  71.258  1.00  0.00    -0.181 C  
BRANCH  38  39
HETATM   39  O   UNL     1      -9.590   6.018  69.982  1.00  0.00    -0.159 OA 
BRANCH  39  40
HETATM   40  C   UNL     1     -10.743   6.020  69.141  1.00  0.00    -0.331 C  
BRANCH  40  41
HETATM   41  C   UNL     1     -10.547   7.045  68.032  1.00  0.00    -0.207 C  
BRANCH  41  42
HETATM   42  O   UNL     1     -11.115   6.547  66.822  1.00  0.00    -0.362 OA 
HETATM   43  C   UNL     1     -10.469   5.353  66.401  1.00  0.00    -0.267 C  
ENDBRANCH  41  42
ENDBRANCH  40  41
ENDBRANCH  39  40
ENDBRANCH  38  39
ENDBRANCH  37  38
ENDBRANCH  36  37
ENDBRANCH  35  36
ENDBRANCH  34  35
ENDBRANCH  33  34
ENDBRANCH  32  33
ENDBRANCH  31  32
ENDBRANCH  30  31
ENDBRANCH  29  30
ENDBRANCH  28  29
ENDBRANCH  27  28
ENDBRANCH  26  27
ENDBRANCH  25  26
ENDBRANCH  24  25
ENDBRANCH  23  24
ENDBRANCH  22  23
ENDBRANCH  21  22
ENDBRANCH  20  21
ENDBRANCH  19  20
ENDBRANCH  18  19
ENDBRANCH  17  18
ENDBRANCH  16  17
ENDBRANCH  15  16
ENDBRANCH  13  15
ENDBRANCH  10  13
ENDBRANCH   5   7
ENDBRANCH   4   5
ENDBRANCH   3   4
ENDBRANCH   2   3
TORSDOF 33
ENDMDL
MODEL        2
REMARK 921   NORMALIZED FREE ENERGY PREDICTED BY IDOCK:   -4.64 KCAL/MOL
REMARK 922        TOTAL FREE ENERGY PREDICTED BY IDOCK:  -16.39 KCAL/MOL
REMARK 923 INTER-LIGAND FREE ENERGY PREDICTED BY IDOCK:  -13.03 KCAL/MOL
REMARK 924 INTRA-LIGAND FREE ENERGY PREDICTED BY IDOCK:   -3.36 KCAL/MOL
REMARK 927      BINDING AFFINITY PREDICTED BY RF-SCORE:    0.00 PKD
ROOT
HETATM    1  C   UNL     1     -12.300  12.449  63.519  1.00  0.00    -0.648 C  
HETATM    2  C   UNL     1     -10.947  11.812  63.267  1.00  0.00    -0.387 C  
ENDROOT
BRANCH   2   3
HETATM    3  C   UNL     1     -10.484  10.952  64.446  1.00  0.00    -0.403 C  
BRANCH   3   4
HETATM    4  C   UNL     1     -10.917  11.607  65.753  1.00  0.00    -0.274 C  
BRANCH   4   5
HETATM    5  N   UNL     1      -9.772  11.977  66.576  1.00  0.00    -0.211 NA 
HETATM    6  H   UNL     1      -9.323  11.298  67.191  1.00  0.00     0.000 HD 
BRANCH   5   7
HETATM    7  C   UNL     1      -9.306  13.300  66.494  1.00  0.00    -0.213 A  
HETATM    8  C   UNL     1      -8.244  13.787  67.266  1.00  0.00    -0.173 A  
HETATM    9  C   UNL     1      -7.857  15.126  67.215  1.00  0.00    -0.241 A  
HETATM   10  C   UNL     1      -8.549  16.032  66.408  1.00  0.00    -0.369 A  
HETATM   11  C   UNL     1     -10.006  14.221  65.700  1.00  0.00    -0.346 A  
HETATM   12  C   UNL     1      -9.632  15.575  65.649  1.00  0.00    -0.328 A  
BRANCH  10  13
HETATM   13  C   UNL     1      -8.098  17.447  66.433  1.00  0.00    -0.280 C  
HETATM   14  O   UNL     1      -7.604  18.009  65.466  1.00  0.00    -0.530 OA 
BRANCH  13  15
HETATM   15  O   UNL     1      -8.280  17.998  67.655  1.00  0.00    -0.235 OA 
BRANCH  15  16
HETATM   16  C   UNL     1      -9.361  18.945  67.731  1.00  0.00    -0.293 C  
BRANCH  16  17
HETATM   17  C   UNL     1     -10.710  18.238  67.868  1.00  0.00    -0.311 C  
BRANCH  17  18
HETATM   18  O   UNL     1     -10.650  17.316  68.962  1.00  0.00    -0.323 OA 
BRANCH  18  19
HETATM   19  C   UNL     1     -11.520  16.207  68.752  1.00  0.00    -0.340 C  
BRANCH  19  20
HETATM   20  C   UNL     1     -11.981  15.660  70.097  1.00  0.00    -0.367 C  
BRANCH  20  21
HETATM   21  O   UNL     1     -11.471  16.494  71.136  1.00  0.00    -0.331 OA 
BRANCH  21  22
HETATM   22  C   UNL     1     -11.899  16.046  72.420  1.00  0.00    -0.535 C  
BRANCH  22  23
HETATM   23  C   UNL     1     -13.356  15.610  72.336  1.00  0.00    -0.488 C  
BRANCH  23  24
HETATM   24  O   UNL     1     -13.531  14.416  73.097  1.00  0.00    -0.625 OA 
BRANCH  24  25
HETATM   25  C   UNL     1     -14.142  13.392  72.316  1.00  0.00    -0.417 C  
BRANCH  25  26
HETATM   26  C   UNL     1     -13.058  12.496  71.734  1.00  0.00    -0.347 C  
BRANCH  26  27
HETATM   27  O   UNL     1     -13.326  11.145  72.101  1.00  0.00    -0.452 OA 
BRANCH  27  28
HETATM   28  C   UNL     1     -13.097  10.259  71.008  1.00  0.00    -0.373 C  
BRANCH  28  29
HETATM   29  C   UNL     1     -11.851  10.707  70.259  1.00  0.00    -0.342 C  
BRANCH  29  30
HETATM   30  O   UNL     1     -10.793   9.793  70.534  1.00  0.00    -0.276 OA 
BRANCH  30  31
HETATM   31  C   UNL     1      -9.794   9.841  69.519  1.00  0.00    -0.214 C  
BRANCH  31  32
HETATM   32  C   UNL     1     -10.265   9.029  68.322  1.00  0.00    -0.204 C  
BRANCH  32  33
HETATM   33  O   UNL     1      -9.272   9.091  67.303  1.00  0.00    -0.132 OA 
BRANCH  33  34
HETATM   34  C   UNL     1      -9.257   7.895  66.528  1.00  0.00    -0.191 C  
BRANCH  34  35
HETATM   35  C   UNL     1      -9.361   6.700  67.463  1.00  0.00    -0.123 C  
BRANCH  35  36
HETATM   36  O   UNL     1      -8.070   6.414  67.995  1.00  0.00    -0.113 OA 
BRANCH  36  37
HETATM   37  C   UNL     1      -8.165   5.776  69.266  1.00  0.00    -0.105 C  
BRANCH  37  38
HETATM   38  C   UNL     1      -9.334   4.802  69.245  1.00  0.00    -0.135 C  
BRANCH  38  39
HETATM   39  O   UNL     1      -9.905   4.728  70.549  1.00  0.00    -0.195 OA 
BRANCH  39  40
HETATM   40  C   UNL     1     -10.194   6.029  71.060  1.00  0.00    -0.201 C  
BRANCH  40  41
HETATM   41  C   UNL     1     -11.620   6.407  70.680  1.00  0.00    -0.347 C  
BRANCH  41  42
HETATM   42  O   UNL     1     -12.301   6.900  71.832  1.00  0.00    -0.331 OA 
HETATM   43  C   UNL     1     -11.385   7.331  72.830  1.00  0.00    -0.274 C  
ENDBRANCH  41  42
ENDBRANCH  40  41
ENDBRANCH  39  40
ENDBRANCH  38  39
ENDBRANCH  37  38
ENDBRANCH  36  37
ENDBRANCH  35  36
ENDBRANCH  34  35
ENDBRANCH  33  34
ENDBRANCH  32  33
ENDBRANCH  31  32
ENDBRANCH  30  31
ENDBRANCH  29  30
ENDBRANCH  28  29
ENDBRANCH  27  28
ENDBRANCH  26  27
ENDBRANCH  25  26
ENDBRANCH  24  25
ENDBRANCH  23  24
ENDBRANCH  22  23
ENDBRANCH  21  22
ENDBRANCH  20  21
ENDBRANCH  19  20
ENDBRANCH  18  19
ENDBRANCH  17  18
ENDBRANCH  16  17
ENDBRANCH  15  16
ENDBRANCH  13  15
ENDBRANCH  10  13
ENDBRANCH   5   7
ENDBRANCH   4   5
ENDBRANCH   3   4
ENDBRANCH   2   3
TORSDOF 33
ENDMDL
MODEL        3
REMARK 921   NORMALIZED FREE ENERGY PREDICTED BY IDOCK:   -4.61 KCAL/MOL
REMARK 922        TOTAL FREE ENERGY PREDICTED BY IDOCK:  -16.32 KCAL/MOL
REMARK 923 INTER-LIGAND FREE ENERGY PREDICTED BY IDOCK:  -13.38 KCAL/MOL
REMARK 924 INTRA-LIGAND FREE ENERGY PREDICTED BY IDOCK:   -2.94 KCAL/MOL
REMARK 927      BINDING AFFINITY PREDICTED BY RF-SCORE:    0.00 PKD
ROOT
HETATM    1  C   UNL     1     -12.492  15.394  73.487  1.00  0.00    -0.666 C  
HETATM    2  C   UNL     1     -13.330  15.433  72.223  1.00  0.00    -0.548 C  
ENDROOT
BRANCH   2   3
HETATM    3  C   UNL     1     -14.128  14.142  72.020  1.00  0.00    -0.619 C  
BRANCH   3   4
HETATM    4  C   UNL     1     -13.166  12.971  71.849  1.00  0.00    -0.430 C  
BRANCH   4   5
HETATM    5  N   UNL     1     -13.705  11.743  72.421  1.00  0.00    -0.367 NA 
HETATM    6  H   UNL     1     -14.431  11.769  73.138  1.00  0.00     0.000 HD 
BRANCH   5   7
HETATM    7  C   UNL     1     -13.193  10.522  71.952  1.00  0.00    -0.420 A  
HETATM    8  C   UNL     1     -13.802   9.287  72.210  1.00  0.00    -0.492 A  
HETATM    9  C   UNL     1     -13.225   8.087  71.794  1.00  0.00    -0.367 A  
HETATM   10  C   UNL     1     -11.996   8.085  71.132  1.00  0.00    -0.297 A  
HETATM   11  C   UNL     1     -11.950  10.508  71.303  1.00  0.00    -0.386 A  
HETATM   12  C   UNL     1     -11.354   9.305  70.889  1.00  0.00    -0.373 A  
BRANCH  10  13
HETATM   13  C   UNL     1     -11.431   6.765  70.751  1.00  0.00    -0.342 C  
HETATM   14  O   UNL     1     -10.722   6.102  71.494  1.00  0.00    -0.234 OA 
BRANCH  13  15
HETATM   15  O   UNL     1     -11.778   6.428  69.489  1.00  0.00    -0.366 OA 
BRANCH  15  16
HETATM   16  C   UNL     1     -10.670   6.270  68.584  1.00  0.00    -0.298 C  
BRANCH  16  17
HETATM   17  C   UNL     1     -10.629   7.398  67.553  1.00  0.00    -0.269 C  
BRANCH  17  18
HETATM   18  O   UNL     1      -9.528   8.264  67.845  1.00  0.00    -0.143 OA 
BRANCH  18  19
HETATM   19  C   UNL     1      -8.564   7.616  68.672  1.00  0.00    -0.129 C  
BRANCH  19  20
HETATM   20  C   UNL     1      -7.259   8.399  68.642  1.00  0.00    -0.080 C  
BRANCH  20  21
HETATM   21  O   UNL     1      -6.294   7.666  67.890  1.00  0.00    -0.046 OA 
BRANCH  21  22
HETATM   22  C   UNL     1      -5.914   8.365  66.707  1.00  0.00    -0.053 C  
BRANCH  22  23
HETATM   23  C   UNL     1      -6.561   7.694  65.501  1.00  0.00    -0.045 C  
BRANCH  23  24
HETATM   24  O   UNL     1      -7.702   8.451  65.102  1.00  0.00    -0.087 OA 
BRANCH  24  25
HETATM   25  C   UNL     1      -7.457   9.851  65.213  1.00  0.00    -0.131 C  
BRANCH  25  26
HETATM   26  C   UNL     1      -8.757  10.556  65.572  1.00  0.00    -0.185 C  
BRANCH  26  27
HETATM   27  O   UNL     1      -9.791  10.089  64.710  1.00  0.00    -0.322 OA 
BRANCH  27  28
HETATM   28  C   UNL     1      -9.719  10.716  63.431  1.00  0.00    -0.339 C  
BRANCH  28  29
HETATM   29  C   UNL     1     -10.810  11.771  63.334  1.00  0.00    -0.388 C  
BRANCH  29  30
HETATM   30  O   UNL     1     -10.322  12.991  63.885  1.00  0.00    -0.382 OA 
BRANCH  30  31
HETATM   31  C   UNL     1     -11.330  13.652  64.645  1.00  0.00    -0.366 C  
BRANCH  31  32
HETATM   32  C   UNL     1     -12.412  12.647  65.012  1.00  0.00    -0.487 C  
BRANCH  32  33
HETATM   33  O   UNL     1     -12.366  12.413  66.416  1.00  0.00    -0.539 OA 
BRANCH  33  34
HETATM   34  C   UNL     1     -12.181  13.630  67.134  1.00  0.00    -0.297 C  
BRANCH  34  35
HETATM   35  C   UNL     1     -11.177  13.394  68.253  1.00  0.00    -0.279 C  
BRANCH  35  36
HETATM   36  O   UNL     1     -11.394  14.358  69.280  1.00  0.00    -0.257 OA 
BRANCH  36  37
HETATM   37  C   UNL     1     -11.667  15.645  68.731  1.00  0.00    -0.370 C  
BRANCH  37  38
HETATM   38  C   UNL     1     -10.350  16.327  68.390  1.00  0.00    -0.271 C  
BRANCH  38  39
HETATM   39  O   UNL     1     -10.507  17.737  68.521  1.00  0.00    -0.366 OA 
BRANCH  39  40
HETATM   40  C   UNL     1     -10.177  18.409  67.306  1.00  0.00    -0.374 C  
BRANCH  40  41
HETATM   41  C   UNL     1      -9.599  17.402  66.322  1.00  0.00    -0.242 C  
BRANCH  41  42
HETATM   42  O   UNL     1      -8.357  17.891  65.819  1.00  0.00    -0.521 OA 
HETATM   43  C   UNL     1      -7.375  17.959  66.844  1.00  0.00    -0.201 C  
ENDBRANCH  41  42
ENDBRANCH  40  41
ENDBRANCH  39  40
ENDBRANCH  38  39
ENDBRANCH  37  38
ENDBRANCH  36  37
ENDBRANCH  35  36
ENDBRANCH  34  35
ENDBRANCH  33  34
ENDBRANCH  32  33
ENDBRANCH  31  32
ENDBRANCH  30  31
ENDBRANCH  29  30
ENDBRANCH  28  29
ENDBRANCH  27  28
ENDBRANCH  26  27
ENDBRANCH  25  26
ENDBRANCH  24  25
ENDBRANCH  23  24
ENDBRANCH  22  23
ENDBRANCH  21  22
ENDBRANCH  20  21
ENDBRANCH  19  20
ENDBRANCH  18  19
ENDBRANCH  17  18
ENDBRANCH  16  17
ENDBRANCH  15  16
ENDBRANCH  13  15
ENDBRANCH  10  13
ENDBRANCH   5   7
ENDBRANCH   4   5
ENDBRANCH   3   4
ENDBRANCH   2   3
TORSDOF 33
ENDMDL
MODEL        4
REMARK 921   NORMALIZED FREE ENERGY PREDICTED BY IDOCK:   -4.61 KCAL/MOL
REMARK 922        TOTAL FREE ENERGY PREDICTED BY IDOCK:  -16.29 KCAL/MOL
REMARK 923 INTER-LIGAND FREE ENERGY PREDICTED BY IDOCK:  -13.69 KCAL/MOL
REMARK 924 INTRA-LIGAND FREE ENERGY PREDICTED BY IDOCK:   -2.61 KCAL/MOL
REMARK 927      BINDING AFFINITY PREDICTED BY RF-SCORE:    0.00 PKD
ROOT
HETATM    1  C   UNL     1     -11.254   2.130  73.131  1.00  0.00    -0.198 C  
HETATM    2  C   UNL     1     -10.483   3.431  73.012  1.00  0.00    -0.253 C  
ENDROOT
BRANCH   2   3
HETATM    3  C   UNL     1     -11.280   4.625  73.545  1.00  0.00    -0.400 C  
BRANCH   3   4
HETATM    4  C   UNL     1     -11.303   5.731  72.495  1.00  0.00    -0.307 C  
BRANCH   4   5
HETATM    5  N   UNL     1     -11.446   7.049  73.104  1.00  0.00    -0.533 NA 
HETATM    6  H   UNL     1     -11.443   7.165  74.117  1.00  0.00     0.000 HD 
BRANCH   5   7
HETATM    7  C   UNL     1     -11.589   8.153  72.247  1.00  0.00    -0.374 A  
HETATM    8  C   UNL     1     -10.544   8.646  71.454  1.00  0.00    -0.334 A  
HETATM    9  C   UNL     1     -10.698   9.791  70.673  1.00  0.00    -0.394 A  
HETATM   10  C   UNL     1     -11.900  10.502  70.688  1.00  0.00    -0.458 A  
HETATM   11  C   UNL     1     -12.786   8.884  72.270  1.00  0.00    -0.464 A  
HETATM   12  C   UNL     1     -12.948  10.045  71.496  1.00  0.00    -0.535 A  
BRANCH  10  13
HETATM   13  C   UNL     1     -11.975  11.729  69.856  1.00  0.00    -0.332 C  
HETATM   14  O   UNL     1     -12.031  12.856  70.328  1.00  0.00    -0.341 OA 
BRANCH  13  15
HETATM   15  O   UNL     1     -12.002  11.428  68.538  1.00  0.00    -0.498 OA 
BRANCH  15  16
HETATM   16  C   UNL     1     -11.617  12.508  67.667  1.00  0.00    -0.355 C  
BRANCH  16  17
HETATM   17  C   UNL     1     -11.476  12.032  66.221  1.00  0.00    -0.345 C  
BRANCH  17  18
HETATM   18  O   UNL     1     -12.581  12.521  65.454  1.00  0.00    -0.656 OA 
BRANCH  18  19
HETATM   19  C   UNL     1     -12.662  13.944  65.511  1.00  0.00    -0.499 C  
BRANCH  19  20
HETATM   20  C   UNL     1     -12.075  14.537  64.237  1.00  0.00    -0.425 C  
BRANCH  20  21
HETATM   21  O   UNL     1     -11.508  15.812  64.536  1.00  0.00    -0.417 OA 
BRANCH  21  22
HETATM   22  C   UNL     1     -10.484  15.707  65.522  1.00  0.00    -0.404 C  
BRANCH  22  23
HETATM   23  C   UNL     1     -10.378  17.028  66.274  1.00  0.00    -0.306 C  
BRANCH  23  24
HETATM   24  O   UNL     1     -10.653  18.101  65.376  1.00  0.00    -0.636 OA 
BRANCH  24  25
HETATM   25  C   UNL     1     -10.875  19.320  66.080  1.00  0.00    -0.263 C  
BRANCH  25  26
HETATM   26  C   UNL     1      -9.802  19.481  67.147  1.00  0.00    -0.355 C  
BRANCH  26  27
HETATM   27  O   UNL     1      -8.641  20.056  66.554  1.00  0.00    -0.321 OA 
BRANCH  27  28
HETATM   28  C   UNL     1      -7.464  19.705  67.279  1.00  0.00    -0.246 C  
BRANCH  28  29
HETATM   29  C   UNL     1      -7.864  19.192  68.654  1.00  0.00    -0.354 C  
BRANCH  29  30
HETATM   30  O   UNL     1      -7.043  18.075  68.985  1.00  0.00    -0.270 OA 
BRANCH  30  31
HETATM   31  C   UNL     1      -7.587  16.865  68.464  1.00  0.00    -0.221 C  
BRANCH  31  32
HETATM   32  C   UNL     1      -6.451  15.997  67.943  1.00  0.00    -0.143 C  
BRANCH  32  33
HETATM   33  O   UNL     1      -6.971  14.717  67.595  1.00  0.00    -0.158 OA 
BRANCH  33  34
HETATM   34  C   UNL     1      -8.032  14.339  68.468  1.00  0.00    -0.145 C  
BRANCH  34  35
HETATM   35  C   UNL     1      -8.204  12.828  68.409  1.00  0.00    -0.128 C  
BRANCH  35  36
HETATM   36  O   UNL     1      -7.937  12.383  67.081  1.00  0.00    -0.174 OA 
BRANCH  36  37
HETATM   37  C   UNL     1      -7.469  11.037  67.073  1.00  0.00    -0.127 C  
BRANCH  37  38
HETATM   38  C   UNL     1      -8.607  10.114  67.487  1.00  0.00    -0.118 C  
BRANCH  38  39
HETATM   39  O   UNL     1      -8.231   8.765  67.227  1.00  0.00    -0.104 OA 
BRANCH  39  40
HETATM   40  C   UNL     1      -9.264   8.064  66.536  1.00  0.00    -0.188 C  
BRANCH  40  41
HETATM   41  C   UNL     1     -10.205   7.434  67.554  1.00  0.00    -0.224 C  
BRANCH  41  42
HETATM   42  O   UNL     1     -11.136   6.591  66.879  1.00  0.00    -0.399 OA 
HETATM   43  C   UNL     1     -10.557   5.333  66.559  1.00  0.00    -0.285 C  
ENDBRANCH  41  42
ENDBRANCH  40  41
ENDBRANCH  39  40
ENDBRANCH  38  39
ENDBRANCH  37  38
ENDBRANCH  36  37
ENDBRANCH  35  36
ENDBRANCH  34  35
ENDBRANCH  33  34
ENDBRANCH  32  33
ENDBRANCH  31  32
ENDBRANCH  30  31
ENDBRANCH  29  30
ENDBRANCH  28  29
ENDBRANCH  27  28
ENDBRANCH  26  27
ENDBRANCH  25  26
ENDBRANCH  24  25
ENDBRANCH  23  24
ENDBRANCH  22  23
ENDBRANCH  21  22
ENDBRANCH  20  21
ENDBRANCH  19  20
ENDBRANCH  18  19
ENDBRANCH  17  18
ENDBRANCH  16  17
ENDBRANCH  15  16
ENDBRANCH  13  15
ENDBRANCH  10  13
ENDBRANCH   5   7
ENDBRANCH   4   5
ENDBRANCH   3   4
ENDBRANCH   2   3
TORSDOF 33
ENDMDL
MODEL        5
REMARK 921   NORMALIZED FREE ENERGY PREDICTED BY IDOCK:   -4.60 KCAL/MOL
REMARK 922        TOTAL FREE ENERGY PREDICTED BY IDOCK:  -16.27 KCAL/MOL
REMARK 923 INTER-LIGAND FREE ENERGY PREDICTED BY IDOCK:  -13.25 KCAL/MOL
REMARK 924 INTRA-LIGAND FREE ENERGY PREDICTED BY IDOCK:   -3.02 KCAL/MOL
REMARK 927      BINDING AFFINITY PREDICTED BY RF-SCORE:    0.00 PKD
ROOT
HETATM    1  C   UNL     1     -10.458  10.956  64.412  1.00  0.00    -0.403 C  
HETATM    2  C   UNL     1     -10.829  11.740  63.168  1.00  0.00    -0.299 C  
ENDROOT
BRANCH   2   3
HETATM    3  C   UNL     1     -12.088  12.586  63.372  1.00  0.00    -0.621 C  
BRANCH   3   4
HETATM    4  C   UNL     1     -12.536  12.490  64.827  1.00  0.00    -0.457 C  
BRANCH   4   5
HETATM    5  N   UNL     1     -12.475  13.784  65.497  1.00  0.00    -0.486 NA 
HETATM    6  H   UNL     1     -13.305  14.370  65.588  1.00  0.00     0.000 HD 
BRANCH   5   7
HETATM    7  C   UNL     1     -11.236  14.197  66.013  1.00  0.00    -0.319 A  
HETATM    8  C   UNL     1     -10.439  15.174  65.401  1.00  0.00    -0.416 A  
HETATM    9  C   UNL     1      -9.179  15.506  65.898  1.00  0.00    -0.305 A  
HETATM   10  C   UNL     1      -8.660  14.841  67.010  1.00  0.00    -0.260 A  
HETATM   11  C   UNL     1     -10.698  13.523  67.119  1.00  0.00    -0.282 A  
HETATM   12  C   UNL     1      -9.425  13.841  67.621  1.00  0.00    -0.217 A  
BRANCH  10  13
HETATM   13  C   UNL     1      -7.298  15.227  67.459  1.00  0.00    -0.196 C  
HETATM   14  O   UNL     1      -6.305  14.547  67.242  1.00  0.00    -0.301 OA 
BRANCH  13  15
HETATM   15  O   UNL     1      -7.319  16.390  68.148  1.00  0.00    -0.141 OA 
BRANCH  15  16
HETATM   16  C   UNL     1      -6.079  16.724  68.800  1.00  0.00    -0.147 C  
BRANCH  16  17
HETATM   17  C   UNL     1      -5.920  18.237  68.950  1.00  0.00    -0.212 C  
BRANCH  17  18
HETATM   18  O   UNL     1      -7.188  18.867  68.739  1.00  0.00    -0.297 OA 
BRANCH  18  19
HETATM   19  C   UNL     1      -7.034  20.152  68.140  1.00  0.00    -0.291 C  
BRANCH  19  20
HETATM   20  C   UNL     1      -7.292  20.049  66.643  1.00  0.00    -0.257 C  
BRANCH  20  21
HETATM   21  O   UNL     1      -8.547  19.406  66.431  1.00  0.00    -0.328 OA 
BRANCH  21  22
HETATM   22  C   UNL     1      -9.636  20.273  66.738  1.00  0.00    -0.411 C  
BRANCH  22  23
HETATM   23  C   UNL     1     -10.817  19.441  67.219  1.00  0.00    -0.448 C  
BRANCH  23  24
HETATM   24  O   UNL     1     -10.427  18.699  68.373  1.00  0.00    -0.337 OA 
BRANCH  24  25
HETATM   25  C   UNL     1     -10.871  17.347  68.291  1.00  0.00    -0.256 C  
BRANCH  25  26
HETATM   26  C   UNL     1     -10.675  16.677  69.644  1.00  0.00    -0.286 C  
BRANCH  26  27
HETATM   27  O   UNL     1     -11.736  15.750  69.860  1.00  0.00    -0.331 OA 
BRANCH  27  28
HETATM   28  C   UNL     1     -12.128  15.725  71.231  1.00  0.00    -0.437 C  
BRANCH  28  29
HETATM   29  C   UNL     1     -13.623  15.457  71.313  1.00  0.00    -0.505 C  
BRANCH  29  30
HETATM   30  O   UNL     1     -13.858  14.074  71.063  1.00  0.00    -0.141 OA 
BRANCH  30  31
HETATM   31  C   UNL     1     -14.004  13.349  72.281  1.00  0.00    -0.507 C  
BRANCH  31  32
HETATM   32  C   UNL     1     -13.323  11.997  72.137  1.00  0.00    -0.290 C  
BRANCH  32  33
HETATM   33  O   UNL     1     -12.542  11.998  70.946  1.00  0.00    -0.336 OA 
BRANCH  33  34
HETATM   34  C   UNL     1     -11.924  10.732  70.736  1.00  0.00    -0.362 C  
BRANCH  34  35
HETATM   35  C   UNL     1     -12.900   9.635  71.135  1.00  0.00    -0.316 C  
BRANCH  35  36
HETATM   36  O   UNL     1     -12.176   8.574  71.754  1.00  0.00    -0.297 OA 
BRANCH  36  37
HETATM   37  C   UNL     1     -12.645   7.303  71.312  1.00  0.00    -0.366 C  
BRANCH  37  38
HETATM   38  C   UNL     1     -11.453   6.376  71.117  1.00  0.00    -0.323 C  
BRANCH  38  39
HETATM   39  O   UNL     1     -11.395   5.972  69.752  1.00  0.00    -0.409 OA 
BRANCH  39  40
HETATM   40  C   UNL     1     -10.853   7.006  68.930  1.00  0.00    -0.167 C  
BRANCH  40  41
HETATM   41  C   UNL     1      -9.347   7.069  69.139  1.00  0.00    -0.140 C  
BRANCH  41  42
HETATM   42  O   UNL     1      -8.949   8.429  69.302  1.00  0.00    -0.147 OA 
HETATM   43  C   UNL     1      -9.076   8.846  70.654  1.00  0.00    -0.207 C  
ENDBRANCH  41  42
ENDBRANCH  40  41
ENDBRANCH  39  40
ENDBRANCH  38  39
ENDBRANCH  37  38
ENDBRANCH  36  37
ENDBRANCH  35  36
ENDBRANCH  34  35
ENDBRANCH  33  34
ENDBRANCH  32  33
ENDBRANCH  31  32
ENDBRANCH  30  31
ENDBRANCH  29  30
ENDBRANCH  28  29
ENDBRANCH  27  28
ENDBRANCH  26  27
ENDBRANCH  25  26
ENDBRANCH  24  25
ENDBRANCH  23  24
ENDBRANCH  22  23
ENDBRANCH  21  22
ENDBRANCH  20  21
ENDBRANCH  19  20
ENDBRANCH  18  19
ENDBRANCH  17  18
ENDBRANCH  16  17
ENDBRANCH  15  16
ENDBRANCH  13  15
ENDBRANCH  10  13
ENDBRANCH   5   7
ENDBRANCH   4   5
ENDBRANCH   3   4
ENDBRANCH   2   3
TORSDOF 33
ENDMDL
MODEL        6
REMARK 921   NORMALIZED FREE ENERGY PREDICTED BY IDOCK:   -4.59 KCAL/MOL
REMARK 922        TOTAL FREE ENERGY PREDICTED BY IDOCK:  -16.25 KCAL/MOL
REMARK 923 INTER-LIGAND FREE ENERGY PREDICTED BY IDOCK:  -13.32 KCAL/MOL
REMARK 924 INTRA-LIGAND FREE ENERGY PREDICTED BY IDOCK:   -2.93 KCAL/MOL
REMARK 927      BINDING AFFINITY PREDICTED BY RF-SCORE:    0.00 PKD
ROOT
HETATM    1  C   UNL     1      -7.423   5.880  72.467  1.00  0.00    -0.096 C  
HETATM    2  C   UNL     1      -8.470   4.894  72.950  1.00  0.00    -0.108 C  
ENDROOT
BRANCH   2   3
HETATM    3  C   UNL     1      -9.213   4.225  71.791  1.00  0.00    -0.178 C  
BRANCH   3   4
HETATM    4  C   UNL     1      -8.350   4.279  70.535  1.00  0.00    -0.070 C  
BRANCH   4   5
HETATM    5  N   UNL     1      -9.160   4.245  69.323  1.00  0.00    -0.110 NA 
HETATM    6  H   UNL     1      -9.510   3.363  68.948  1.00  0.00     0.000 HD 
BRANCH   5   7
HETATM    7  C   UNL     1      -9.444   5.466  68.690  1.00  0.00    -0.123 A  
HETATM    8  C   UNL     1      -8.635   6.603  68.824  1.00  0.00    -0.122 A  
HETATM    9  C   UNL     1      -8.987   7.821  68.243  1.00  0.00    -0.131 A  
HETATM   10  C   UNL     1     -10.183   7.948  67.534  1.00  0.00    -0.308 A  
HETATM   11  C   UNL     1     -10.651   5.608  67.991  1.00  0.00    -0.260 A  
HETATM   12  C   UNL     1     -11.020   6.834  67.411  1.00  0.00    -0.407 A  
BRANCH  10  13
HETATM   13  C   UNL     1     -10.503   9.286  66.974  1.00  0.00    -0.233 C  
HETATM   14  O   UNL     1     -11.089  10.153  67.606  1.00  0.00    -0.301 OA 
BRANCH  13  15
HETATM   15  O   UNL     1     -10.091   9.393  65.690  1.00  0.00    -0.261 OA 
BRANCH  15  16
HETATM   16  C   UNL     1      -9.270  10.543  65.417  1.00  0.00    -0.192 C  
BRANCH  16  17
HETATM   17  C   UNL     1      -9.033  10.712  63.916  1.00  0.00    -0.192 C  
BRANCH  17  18
HETATM   18  O   UNL     1     -10.292  10.861  63.253  1.00  0.00    -0.325 OA 
BRANCH  18  19
HETATM   19  C   UNL     1     -10.847  12.155  63.479  1.00  0.00    -0.458 C  
BRANCH  19  20
HETATM   20  C   UNL     1     -12.362  12.090  63.337  1.00  0.00    -0.523 C  
BRANCH  20  21
HETATM   21  O   UNL     1     -12.959  12.894  64.353  1.00  0.00    -0.705 OA 
BRANCH  21  22
HETATM   22  C   UNL     1     -12.285  12.742  65.601  1.00  0.00    -0.444 C  
BRANCH  22  23
HETATM   23  C   UNL     1     -12.291  14.075  66.337  1.00  0.00    -0.431 C  
BRANCH  23  24
HETATM   24  O   UNL     1     -10.963  14.382  66.757  1.00  0.00    -0.303 OA 
BRANCH  24  25
HETATM   25  C   UNL     1     -10.180  14.877  65.673  1.00  0.00    -0.358 C  
BRANCH  25  26
HETATM   26  C   UNL     1     -10.541  16.334  65.424  1.00  0.00    -0.352 C  
BRANCH  26  27
HETATM   27  O   UNL     1      -9.680  17.164  66.200  1.00  0.00    -0.352 OA 
BRANCH  27  28
HETATM   28  C   UNL     1     -10.410  17.870  67.202  1.00  0.00    -0.367 C  
BRANCH  28  29
HETATM   29  C   UNL     1     -10.061  17.295  68.566  1.00  0.00    -0.341 C  
BRANCH  29  30
HETATM   30  O   UNL     1     -11.235  16.727  69.141  1.00  0.00    -0.216 OA 
BRANCH  30  31
HETATM   31  C   UNL     1     -10.914  15.900  70.256  1.00  0.00    -0.362 C  
BRANCH  31  32
HETATM   32  C   UNL     1     -12.090  15.891  71.220  1.00  0.00    -0.438 C  
BRANCH  32  33
HETATM   33  O   UNL     1     -13.284  15.632  70.490  1.00  0.00    -0.434 OA 
BRANCH  33  34
HETATM   34  C   UNL     1     -14.291  15.077  71.332  1.00  0.00    -0.497 C  
BRANCH  34  35
HETATM   35  C   UNL     1     -13.652  14.638  72.641  1.00  0.00    -0.471 C  
BRANCH  35  36
HETATM   36  O   UNL     1     -13.786  13.224  72.770  1.00  0.00    -0.690 OA 
BRANCH  36  37
HETATM   37  C   UNL     1     -12.946  12.539  71.846  1.00  0.00    -0.301 C  
BRANCH  37  38
HETATM   38  C   UNL     1     -13.381  11.083  71.766  1.00  0.00    -0.296 C  
BRANCH  38  39
HETATM   39  O   UNL     1     -12.417  10.349  71.016  1.00  0.00    -0.320 OA 
BRANCH  39  40
HETATM   40  C   UNL     1     -11.812   9.329  71.811  1.00  0.00    -0.384 C  
BRANCH  40  41
HETATM   41  C   UNL     1     -11.592   8.092  70.950  1.00  0.00    -0.267 C  
BRANCH  41  42
HETATM   42  O   UNL     1     -11.099   7.031  71.764  1.00  0.00    -0.232 OA 
HETATM   43  C   UNL     1     -10.977   7.434  73.121  1.00  0.00    -0.359 C  
ENDBRANCH  41  42
ENDBRANCH  40  41
ENDBRANCH  39  40
ENDBRANCH  38  39
ENDBRANCH  37  38
ENDBRANCH  36  37
ENDBRANCH  35  36
ENDBRANCH  34  35
ENDBRANCH  33  34
ENDBRANCH  32  33
ENDBRANCH  31  32
ENDBRANCH  30  31
ENDBRANCH  29  30
ENDBRANCH  28  29
ENDBRANCH  27  28
ENDBRANCH  26  27
ENDBRANCH  25  26
ENDBRANCH  24  25
ENDBRANCH  23  24
ENDBRANCH  22  23
ENDBRANCH  21  22
ENDBRANCH  20  21
ENDBRANCH  19  20
ENDBRANCH  18  19
ENDBRANCH  17  18
ENDBRANCH  16  17
ENDBRANCH  15  16
ENDBRANCH  13  15
ENDBRANCH  10  13
ENDBRANCH   5   7
ENDBRANCH   4   5
ENDBRANCH   3   4
ENDBRANCH   2   3
TORSDOF 33
ENDMDL
MODEL        7
REMARK 921   NORMALIZED FREE ENERGY PREDICTED BY IDOCK:   -4.58 KCAL/MOL
REMARK 922        TOTAL FREE ENERGY PREDICTED BY IDOCK:  -16.21 KCAL/MOL
REMARK 923 INTER-LIGAND FREE ENERGY PREDICTED BY IDOCK:  -12.74 KCAL/MOL
REMARK 924 INTRA-LIGAND FREE ENERGY PREDICTED BY IDOCK:   -3.47 KCAL/MOL
REMARK 927      BINDING AFFINITY PREDICTED BY RF-SCORE:    0.00 PKD
ROOT
HETATM    1  C   UNL     1      -6.583  17.863  69.156  1.00  0.00    -0.240 C  
HETATM    2  C   UNL     1      -5.844  18.915  68.350  1.00  0.00    -0.217 C  
ENDROOT
BRANCH   2   3
HETATM    3  C   UNL     1      -6.512  20.289  68.444  1.00  0.00    -0.344 C  
BRANCH   3   4
HETATM    4  C   UNL     1      -7.121  20.651  67.093  1.00  0.00    -0.331 C  
BRANCH   4   5
HETATM    5  N   UNL     1      -8.577  20.698  67.153  1.00  0.00    -0.537 NA 
HETATM    6  H   UNL     1      -9.080  21.581  67.063  1.00  0.00     0.000 HD 
BRANCH   5   7
HETATM    7  C   UNL     1      -9.265  19.488  67.340  1.00  0.00    -0.315 A  
HETATM    8  C   UNL     1      -9.991  19.191  68.501  1.00  0.00    -0.496 A  
HETATM    9  C   UNL     1     -10.598  17.950  68.685  1.00  0.00    -0.158 A  
HETATM   10  C   UNL     1     -10.468  16.948  67.721  1.00  0.00    -0.340 A  
HETATM   11  C   UNL     1      -9.124  18.469  66.386  1.00  0.00    -0.276 A  
HETATM   12  C   UNL     1      -9.722  17.211  66.566  1.00  0.00    -0.299 A  
BRANCH  10  13
HETATM   13  C   UNL     1     -11.115  15.642  68.005  1.00  0.00    -0.335 C  
HETATM   14  O   UNL     1     -11.654  15.380  69.071  1.00  0.00    -0.306 OA 
BRANCH  13  15
HETATM   15  O   UNL     1     -10.997  14.797  66.956  1.00  0.00    -0.308 OA 
BRANCH  15  16
HETATM   16  C   UNL     1     -12.237  14.219  66.509  1.00  0.00    -0.391 C  
BRANCH  16  17
HETATM   17  C   UNL     1     -12.267  14.077  64.987  1.00  0.00    -0.433 C  
BRANCH  17  18
HETATM   18  O   UNL     1     -13.068  12.944  64.635  1.00  0.00    -0.742 OA 
BRANCH  18  19
HETATM   19  C   UNL     1     -12.528  12.259  63.507  1.00  0.00    -0.534 C  
BRANCH  19  20
HETATM   20  C   UNL     1     -11.008  12.354  63.534  1.00  0.00    -0.450 C  
BRANCH  20  21
HETATM   21  O   UNL     1     -10.457  11.065  63.268  1.00  0.00    -0.337 OA 
BRANCH  21  22
HETATM   22  C   UNL     1      -9.151  11.163  62.704  1.00  0.00    -0.330 C  
BRANCH  22  23
HETATM   23  C   UNL     1      -8.200  10.269  63.490  1.00  0.00    -0.159 C  
BRANCH  23  24
HETATM   24  O   UNL     1      -8.867   9.053  63.820  1.00  0.00    -0.143 OA 
BRANCH  24  25
HETATM   25  C   UNL     1      -8.467   8.576  65.103  1.00  0.00    -0.175 C  
BRANCH  25  26
HETATM   26  C   UNL     1      -8.957   9.545  66.169  1.00  0.00    -0.158 C  
BRANCH  26  27
HETATM   27  O   UNL     1     -10.382   9.573  66.150  1.00  0.00    -0.233 OA 
BRANCH  27  28
HETATM   28  C   UNL     1     -10.886  10.678  66.897  1.00  0.00    -0.205 C  
BRANCH  28  29
HETATM   29  C   UNL     1      -9.772  11.236  67.769  1.00  0.00    -0.173 C  
BRANCH  29  30
HETATM   30  O   UNL     1     -10.352  11.951  68.857  1.00  0.00    -0.191 OA 
BRANCH  30  31
HETATM   31  C   UNL     1     -11.749  11.689  68.958  1.00  0.00    -0.324 C  
BRANCH  31  32
HETATM   32  C   UNL     1     -12.157  11.736  70.423  1.00  0.00    -0.352 C  
BRANCH  32  33
HETATM   33  O   UNL     1     -13.106  10.704  70.671  1.00  0.00    -0.318 OA 
BRANCH  33  34
HETATM   34  C   UNL     1     -12.812  10.017  71.884  1.00  0.00    -0.426 C  
BRANCH  34  35
HETATM   35  C   UNL     1     -11.868   8.863  71.581  1.00  0.00    -0.345 C  
BRANCH  35  36
HETATM   36  O   UNL     1     -10.527   9.286  71.819  1.00  0.00    -0.337 OA 
BRANCH  36  37
HETATM   37  C   UNL     1      -9.679   8.953  70.723  1.00  0.00    -0.227 C  
BRANCH  37  38
HETATM   38  C   UNL     1     -10.519   8.322  69.622  1.00  0.00    -0.221 C  
BRANCH  38  39
HETATM   39  O   UNL     1      -9.694   7.462  68.841  1.00  0.00    -0.148 OA 
BRANCH  39  40
HETATM   40  C   UNL     1     -10.242   6.146  68.768  1.00  0.00    -0.184 C  
BRANCH  40  41
HETATM   41  C   UNL     1     -10.947   5.827  70.080  1.00  0.00    -0.311 C  
BRANCH  41  42
HETATM   42  O   UNL     1     -10.025   5.202  70.971  1.00  0.00    -0.184 OA 
HETATM   43  C   UNL     1     -10.598   5.015  72.259  1.00  0.00    -0.206 C  
ENDBRANCH  41  42
ENDBRANCH  40  41
ENDBRANCH  39  40
ENDBRANCH  38  39
ENDBRANCH  37  38
ENDBRANCH  36  37
ENDBRANCH  35  36
ENDBRANCH  34  35
ENDBRANCH  33  34
ENDBRANCH  32  33
ENDBRANCH  31  32
ENDBRANCH  30  31
ENDBRANCH  29  30
ENDBRANCH  28  29
ENDBRANCH  27  28
ENDBRANCH  26  27
ENDBRANCH  25  26
ENDBRANCH  24  25
ENDBRANCH  23  24
ENDBRANCH  22  23
ENDBRANCH  21  22
ENDBRANCH  20  21
ENDBRANCH  19  20
ENDBRANCH  18  19
ENDBRANCH  17  18
ENDBRANCH  16  17
ENDBRANCH  15  16
ENDBRANCH  13  15
ENDBRANCH  10  13
ENDBRANCH   5   7
ENDBRANCH   4   5
ENDBRANCH   3   4
ENDBRANCH   2   3
TORSDOF 33
ENDMDL
MODEL        8
REMARK 921   NORMALIZED FREE ENERGY PREDICTED BY IDOCK:   -4.56 KCAL/MOL
REMARK 922        TOTAL FREE ENERGY PREDICTED BY IDOCK:  -16.14 KCAL/MOL
REMARK 923 INTER-LIGAND FREE ENERGY PREDICTED BY IDOCK:  -13.07 KCAL/MOL
REMARK 924 INTRA-LIGAND FREE ENERGY PREDICTED BY IDOCK:   -3.07 KCAL/MOL
REMARK 927      BINDING AFFINITY PREDICTED BY RF-SCORE:    0.00 PKD
ROOT
HETATM    1  C   UNL     1      -9.654   3.649  70.458  1.00  0.00    -0.256 C  
HETATM    2  C   UNL     1      -9.098   4.538  71.555  1.00  0.00    -0.174 C  
ENDROOT
BRANCH   2   3
HETATM    3  C   UNL     1     -10.097   4.736  72.699  1.00  0.00    -0.227 C  
BRANCH   3   4
HETATM    4  C   UNL     1      -9.864   6.097  73.347  1.00  0.00    -0.167 C  
BRANCH   4   5
HETATM    5  N   UNL     1     -11.101   6.860  73.458  1.00  0.00    -0.517 NA 
HETATM    6  H   UNL     1     -11.785   6.652  74.185  1.00  0.00     0.000 HD 
BRANCH   5   7
HETATM    7  C   UNL     1     -11.320   7.892  72.530  1.00  0.00    -0.390 A  
HETATM    8  C   UNL     1     -10.282   8.539  71.847  1.00  0.00    -0.369 A  
HETATM    9  C   UNL     1     -10.528   9.611  70.990  1.00  0.00    -0.327 A  
HETATM   10  C   UNL     1     -11.827  10.092  70.814  1.00  0.00    -0.443 A  
HETATM   11  C   UNL     1     -12.618   8.394  72.361  1.00  0.00    -0.372 A  
HETATM   12  C   UNL     1     -12.877   9.480  71.508  1.00  0.00    -0.464 A  
BRANCH  10  13
HETATM   13  C   UNL     1     -12.005  11.258  69.911  1.00  0.00    -0.365 C  
HETATM   14  O   UNL     1     -12.062  12.412  70.312  1.00  0.00    -0.348 OA 
BRANCH  13  15
HETATM   15  O   UNL     1     -12.122  10.867  68.622  1.00  0.00    -0.527 OA 
BRANCH  15  16
HETATM   16  C   UNL     1     -10.942  11.074  67.823  1.00  0.00    -0.269 C  
BRANCH  16  17
HETATM   17  C   UNL     1     -10.621   9.841  66.977  1.00  0.00    -0.199 C  
BRANCH  17  18
HETATM   18  O   UNL     1     -10.656   8.677  67.809  1.00  0.00    -0.236 OA 
BRANCH  18  19
HETATM   19  C   UNL     1     -10.368   7.498  67.061  1.00  0.00    -0.324 C  
BRANCH  19  20
HETATM   20  C   UNL     1      -9.400   6.622  67.846  1.00  0.00    -0.109 C  
BRANCH  20  21
HETATM   21  O   UNL     1      -8.642   7.445  68.732  1.00  0.00    -0.129 OA 
BRANCH  21  22
HETATM   22  C   UNL     1      -7.285   7.551  68.311  1.00  0.00    -0.093 C  
BRANCH  22  23
HETATM   23  C   UNL     1      -6.950   9.018  68.070  1.00  0.00    -0.077 C  
BRANCH  23  24
HETATM   24  O   UNL     1      -7.304   9.364  66.732  1.00  0.00    -0.085 OA 
BRANCH  24  25
HETATM   25  C   UNL     1      -6.719   8.463  65.794  1.00  0.00    -0.053 C  
BRANCH  25  26
HETATM   26  C   UNL     1      -7.392   8.649  64.442  1.00  0.00    -0.103 C  
BRANCH  26  27
HETATM   27  O   UNL     1      -7.722  10.024  64.272  1.00  0.00    -0.136 OA 
BRANCH  27  28
HETATM   28  C   UNL     1      -7.971  10.330  62.902  1.00  0.00    -0.149 C  
BRANCH  28  29
HETATM   29  C   UNL     1      -9.450  10.130  62.611  1.00  0.00    -0.242 C  
BRANCH  29  30
HETATM   30  O   UNL     1     -10.211  10.724  63.659  1.00  0.00    -0.333 OA 
BRANCH  30  31
HETATM   31  C   UNL     1     -10.538  12.077  63.353  1.00  0.00    -0.428 C  
BRANCH  31  32
HETATM   32  C   UNL     1     -12.012  12.309  63.652  1.00  0.00    -0.543 C  
BRANCH  32  33
HETATM   33  O   UNL     1     -12.254  13.711  63.717  1.00  0.00    -0.606 OA 
BRANCH  33  34
HETATM   34  C   UNL     1     -12.762  14.086  64.994  1.00  0.00    -0.328 C  
BRANCH  34  35
HETATM   35  C   UNL     1     -11.607  14.159  65.982  1.00  0.00    -0.361 C  
BRANCH  35  36
HETATM   36  O   UNL     1     -12.125  14.438  67.280  1.00  0.00    -0.406 OA 
BRANCH  36  37
HETATM   37  C   UNL     1     -11.126  15.007  68.123  1.00  0.00    -0.291 C  
BRANCH  37  38
HETATM   38  C   UNL     1     -11.800  15.892  69.162  1.00  0.00    -0.330 C  
BRANCH  38  39
HETATM   39  O   UNL     1     -11.156  15.709  70.419  1.00  0.00    -0.296 OA 
BRANCH  39  40
HETATM   40  C   UNL     1     -11.993  16.132  71.495  1.00  0.00    -0.430 C  
BRANCH  40  41
HETATM   41  C   UNL     1     -13.335  15.419  71.392  1.00  0.00    -0.519 C  
BRANCH  41  42
HETATM   42  O   UNL     1     -13.995  15.469  72.655  1.00  0.00    -0.545 OA 
HETATM   43  C   UNL     1     -13.129  15.955  73.672  1.00  0.00    -0.505 C  
ENDBRANCH  41  42
ENDBRANCH  40  41
ENDBRANCH  39  40
ENDBRANCH  38  39
ENDBRANCH  37  38
ENDBRANCH  36  37
ENDBRANCH  35  36
ENDBRANCH  34  35
ENDBRANCH  33  34
ENDBRANCH  32  33
ENDBRANCH  31  32
ENDBRANCH  30  31
ENDBRANCH  29  30
ENDBRANCH  28  29
ENDBRANCH  27  28
ENDBRANCH  26  27
ENDBRANCH  25  26
ENDBRANCH  24  25
ENDBRANCH  23  24
ENDBRANCH  22  23
ENDBRANCH  21  22
ENDBRANCH  20  21
ENDBRANCH  19  20
ENDBRANCH  18  19
ENDBRANCH  17  18
ENDBRANCH  16  17
ENDBRANCH  15  16
ENDBRANCH  13  15
ENDBRANCH  10  13
ENDBRANCH   5   7
ENDBRANCH   4   5
ENDBRANCH   3   4
ENDBRANCH   2   3
TORSDOF 33
ENDMDL
MODEL        9
REMARK 921   NORMALIZED FREE ENERGY PREDICTED BY IDOCK:   -4.52 KCAL/MOL
REMARK 922        TOTAL FREE ENERGY PREDICTED BY IDOCK:  -16.03 KCAL/MOL
REMARK 923 INTER-LIGAND FREE ENERGY PREDICTED BY IDOCK:  -13.64 KCAL/MOL
REMARK 924 INTRA-LIGAND FREE ENERGY PREDICTED BY IDOCK:   -2.40 KCAL/MOL
REMARK 927      BINDING AFFINITY PREDICTED BY RF-SCORE:    0.00 PKD
ROOT
HETATM    1  C   UNL     1     -10.984   2.390  73.373  1.00  0.00    -0.297 C  
HETATM    2  C   UNL     1     -10.292   3.729  73.204  1.00  0.00    -0.241 C  
ENDROOT
BRANCH   2   3
HETATM    3  C   UNL     1     -11.210   4.902  73.555  1.00  0.00    -0.375 C  
BRANCH   3   4
HETATM    4  C   UNL     1     -10.847   6.108  72.695  1.00  0.00    -0.245 C  
BRANCH   4   5
HETATM    5  N   UNL     1     -11.469   7.331  73.190  1.00  0.00    -0.580 NA 
HETATM    6  H   UNL     1     -11.789   7.405  74.156  1.00  0.00     0.000 HD 
BRANCH   5   7
HETATM    7  C   UNL     1     -11.613   8.402  72.293  1.00  0.00    -0.383 A  
HETATM    8  C   UNL     1     -10.547   8.925  71.550  1.00  0.00    -0.399 A  
HETATM    9  C   UNL     1     -10.709  10.039  70.726  1.00  0.00    -0.272 A  
HETATM   10  C   UNL     1     -11.943  10.687  70.646  1.00  0.00    -0.466 A  
HETATM   11  C   UNL     1     -12.844   9.071  72.220  1.00  0.00    -0.474 A  
HETATM   12  C   UNL     1     -13.015  10.199  71.402  1.00  0.00    -0.528 A  
BRANCH  10  13
HETATM   13  C   UNL     1     -12.027  11.885  69.773  1.00  0.00    -0.307 C  
HETATM   14  O   UNL     1     -12.069  13.028  70.207  1.00  0.00    -0.348 OA 
BRANCH  13  15
HETATM   15  O   UNL     1     -12.079  11.539  68.467  1.00  0.00    -0.522 OA 
BRANCH  15  16
HETATM   16  C   UNL     1     -11.861  12.626  67.548  1.00  0.00    -0.334 C  
BRANCH  16  17
HETATM   17  C   UNL     1     -11.579  12.112  66.137  1.00  0.00    -0.354 C  
BRANCH  17  18
HETATM   18  O   UNL     1     -12.567  12.629  65.240  1.00  0.00    -0.630 OA 
BRANCH  18  19
HETATM   19  C   UNL     1     -12.706  14.041  65.380  1.00  0.00    -0.471 C  
BRANCH  19  20
HETATM   20  C   UNL     1     -12.180  14.731  64.129  1.00  0.00    -0.295 C  
BRANCH  20  21
HETATM   21  O   UNL     1     -11.386  15.852  64.516  1.00  0.00    -0.444 OA 
BRANCH  21  22
HETATM   22  C   UNL     1     -10.587  15.555  65.658  1.00  0.00    -0.373 C  
BRANCH  22  23
HETATM   23  C   UNL     1     -10.241  16.853  66.376  1.00  0.00    -0.321 C  
BRANCH  23  24
HETATM   24  O   UNL     1     -10.624  17.957  65.558  1.00  0.00    -0.638 OA 
BRANCH  24  25
HETATM   25  C   UNL     1     -10.332  19.198  66.196  1.00  0.00    -0.484 C  
BRANCH  25  26
HETATM   26  C   UNL     1      -8.874  19.203  66.632  1.00  0.00    -0.324 C  
BRANCH  26  27
HETATM   27  O   UNL     1      -8.046  19.345  65.482  1.00  0.00    -0.344 OA 
BRANCH  27  28
HETATM   28  C   UNL     1      -7.002  20.288  65.712  1.00  0.00    -0.264 C  
BRANCH  28  29
HETATM   29  C   UNL     1      -7.081  20.774  67.151  1.00  0.00    -0.346 C  
BRANCH  29  30
HETATM   30  O   UNL     1      -5.812  21.299  67.531  1.00  0.00    -0.299 OA 
BRANCH  30  31
HETATM   31  C   UNL     1      -5.198  20.489  68.530  1.00  0.00    -0.241 C  
BRANCH  31  32
HETATM   32  C   UNL     1      -6.284  19.828  69.366  1.00  0.00    -0.320 C  
BRANCH  32  33
HETATM   33  O   UNL     1      -5.954  18.455  69.548  1.00  0.00    -0.236 OA 
BRANCH  33  34
HETATM   34  C   UNL     1      -6.809  17.615  68.778  1.00  0.00    -0.235 C  
BRANCH  34  35
HETATM   35  C   UNL     1      -5.996  16.974  67.663  1.00  0.00    -0.131 C  
BRANCH  35  36
HETATM   36  O   UNL     1      -6.342  15.594  67.573  1.00  0.00    -0.152 OA 
BRANCH  36  37
HETATM   37  C   UNL     1      -7.546  15.316  68.283  1.00  0.00    -0.112 C  
BRANCH  37  38
HETATM   38  C   UNL     1      -7.488  13.892  68.817  1.00  0.00    -0.114 C  
BRANCH  38  39
HETATM   39  O   UNL     1      -8.731  13.245  68.555  1.00  0.00    -0.151 OA 
BRANCH  39  40
HETATM   40  C   UNL     1      -8.549  11.846  68.337  1.00  0.00    -0.152 C  
BRANCH  40  41
HETATM   41  C   UNL     1      -7.588  11.644  67.173  1.00  0.00    -0.152 C  
BRANCH  41  42
HETATM   42  O   UNL     1      -8.291  11.071  66.073  1.00  0.00    -0.168 OA 
HETATM   43  C   UNL     1      -8.506   9.679  66.265  1.00  0.00    -0.119 C  
ENDBRANCH  41  42
ENDBRANCH  40  41
ENDBRANCH  39  40
ENDBRANCH  38  39
ENDBRANCH  37  38
ENDBRANCH  36  37
ENDBRANCH  35  36
ENDBRANCH  34  35
ENDBRANCH  33  34
ENDBRANCH  32  33
ENDBRANCH  31  32
ENDBRANCH  30  31
ENDBRANCH  29  30
ENDBRANCH  28  29
ENDBRANCH  27  28
ENDBRANCH  26  27
ENDBRANCH  25  26
ENDBRANCH  24  25
ENDBRANCH  23  24
ENDBRANCH  22  23
ENDBRANCH  21  22
ENDBRANCH  20  21
ENDBRANCH  19  20
ENDBRANCH  18  19
ENDBRANCH  17  18
ENDBRANCH  16  17
ENDBRANCH  15  16
ENDBRANCH  13  15
ENDBRANCH  10  13
ENDBRANCH   5   7
ENDBRANCH   4   5
ENDBRANCH   3   4
ENDBRANCH   2   3
TORSDOF 33
ENDMDL
MODEL       10
REMARK 921   NORMALIZED FREE ENERGY PREDICTED BY IDOCK:   -4.46 KCAL/MOL
REMARK 922        TOTAL FREE ENERGY PREDICTED BY IDOCK:  -15.86 KCAL/MOL
REMARK 923 INTER-LIGAND FREE ENERGY PREDICTED BY IDOCK:  -12.83 KCAL/MOL
REMARK 924 INTRA-LIGAND FREE ENERGY PREDICTED BY IDOCK:   -3.03 KCAL/MOL
REMARK 927      BINDING AFFINITY PREDICTED BY RF-SCORE:    0.00 PKD
ROOT
HETATM    1  C   UNL     1     -10.414   3.025  63.625  1.00  0.00    -0.220 C  
HETATM    2  C   UNL     1     -10.650   4.106  64.662  1.00  0.00    -0.176 C  
ENDROOT
BRANCH   2   3
HETATM    3  C   UNL     1      -9.661   4.015  65.827  1.00  0.00    -0.191 C  
BRANCH   3   4
HETATM    4  C   UNL     1      -9.728   5.295  66.654  1.00  0.00    -0.164 C  
BRANCH   4   5
HETATM    5  N   UNL     1      -9.151   6.429  65.941  1.00  0.00    -0.311 NA 
HETATM    6  H   UNL     1      -8.496   6.289  65.171  1.00  0.00     0.000 HD 
BRANCH   5   7
HETATM    7  C   UNL     1      -9.527   7.719  66.348  1.00  0.00    -0.180 A  
HETATM    8  C   UNL     1     -10.422   7.959  67.399  1.00  0.00    -0.360 A  
HETATM    9  C   UNL     1     -10.834   9.250  67.728  1.00  0.00    -0.192 A  
HETATM   10  C   UNL     1     -10.385  10.346  66.987  1.00  0.00    -0.295 A  
HETATM   11  C   UNL     1      -9.096   8.824  65.599  1.00  0.00    -0.247 A  
HETATM   12  C   UNL     1      -9.513  10.128  65.914  1.00  0.00    -0.249 A  
BRANCH  10  13
HETATM   13  C   UNL     1     -10.894  11.685  67.378  1.00  0.00    -0.250 C  
HETATM   14  O   UNL     1     -10.268  12.457  68.090  1.00  0.00    -0.212 OA 
BRANCH  13  15
HETATM   15  O   UNL     1     -12.128  11.908  66.872  1.00  0.00    -0.599 OA 
BRANCH  15  16
HETATM   16  C   UNL     1     -12.141  12.524  65.571  1.00  0.00    -0.419 C  
BRANCH  16  17
HETATM   17  C   UNL     1     -12.723  13.936  65.631  1.00  0.00    -0.495 C  
BRANCH  17  18
HETATM   18  O   UNL     1     -11.728  14.836  66.130  1.00  0.00    -0.342 OA 
BRANCH  18  19
HETATM   19  C   UNL     1     -10.803  15.203  65.109  1.00  0.00    -0.422 C  
BRANCH  19  20
HETATM   20  C   UNL     1      -9.914  16.333  65.610  1.00  0.00    -0.274 C  
BRANCH  20  21
HETATM   21  O   UNL     1     -10.618  17.568  65.490  1.00  0.00    -0.612 OA 
BRANCH  21  22
HETATM   22  C   UNL     1     -10.405  18.401  66.627  1.00  0.00    -0.396 C  
BRANCH  22  23
HETATM   23  C   UNL     1      -9.757  17.580  67.734  1.00  0.00    -0.274 C  
BRANCH  23  24
HETATM   24  O   UNL     1     -10.763  17.155  68.650  1.00  0.00    -0.343 OA 
BRANCH  24  25
HETATM   25  C   UNL     1     -10.244  16.213  69.587  1.00  0.00    -0.243 C  
BRANCH  25  26
HETATM   26  C   UNL     1     -11.385  15.353  70.112  1.00  0.00    -0.303 C  
BRANCH  26  27
HETATM   27  O   UNL     1     -12.007  16.024  71.204  1.00  0.00    -0.411 OA 
BRANCH  27  28
HETATM   28  C   UNL     1     -13.357  15.599  71.369  1.00  0.00    -0.433 C  
BRANCH  28  29
HETATM   29  C   UNL     1     -13.434  14.637  72.545  1.00  0.00    -0.468 C  
BRANCH  29  30
HETATM   30  O   UNL     1     -14.066  13.434  72.116  1.00  0.00    -0.466 OA 
BRANCH  30  31
HETATM   31  C   UNL     1     -13.169  12.329  72.181  1.00  0.00    -0.361 C  
BRANCH  31  32
HETATM   32  C   UNL     1     -12.636  12.042  70.786  1.00  0.00    -0.222 C  
BRANCH  32  33
HETATM   33  O   UNL     1     -12.732  10.644  70.534  1.00  0.00    -0.340 OA 
BRANCH  33  34
HETATM   34  C   UNL     1     -12.969   9.921  71.738  1.00  0.00    -0.449 C  
BRANCH  34  35
HETATM   35  C   UNL     1     -12.020   8.733  71.796  1.00  0.00    -0.349 C  
BRANCH  35  36
HETATM   36  O   UNL     1     -10.716   9.198  72.137  1.00  0.00    -0.288 OA 
BRANCH  36  37
HETATM   37  C   UNL     1      -9.750   8.773  71.180  1.00  0.00    -0.247 C  
BRANCH  37  38
HETATM   38  C   UNL     1      -8.481   8.355  71.910  1.00  0.00    -0.177 C  
BRANCH  38  39
HETATM   39  O   UNL     1      -7.981   7.155  71.327  1.00  0.00    -0.100 OA 
BRANCH  39  40
HETATM   40  C   UNL     1      -8.975   6.516  70.527  1.00  0.00    -0.152 C  
BRANCH  40  41
HETATM   41  C   UNL     1      -9.403   5.222  71.205  1.00  0.00    -0.151 C  
BRANCH  41  42
HETATM   42  O   UNL     1     -10.631   5.435  71.898  1.00  0.00    -0.221 OA 
HETATM   43  C   UNL     1     -10.437   5.434  73.306  1.00  0.00    -0.226 C  
ENDBRANCH  41  42
ENDBRANCH  40  41
ENDBRANCH  39  40
ENDBRANCH  38  39
ENDBRANCH  37  38
ENDBRANCH  36  37
ENDBRANCH  35  36
ENDBRANCH  34  35
ENDBRANCH  33  34
ENDBRANCH  32  33
ENDBRANCH  31  32
ENDBRANCH  30  31
ENDBRANCH  29  30
ENDBRANCH  28  29
ENDBRANCH  27  28
ENDBRANCH  26  27
ENDBRANCH  25  26
ENDBRANCH  24  25
ENDBRANCH  23  24
ENDBRANCH  22  23
ENDBRANCH  21  22
ENDBRANCH  20  21
ENDBRANCH  19  20
ENDBRANCH  18  19
ENDBRANCH  17  18
ENDBRANCH  16  17
ENDBRANCH  15  16
ENDBRANCH  13  15
ENDBRANCH  10  13
ENDBRANCH   5   7
ENDBRANCH   4   5
ENDBRANCH   3   4
ENDBRANCH   2   3
TORSDOF 33
ENDMDL
MODEL       11
REMARK 921   NORMALIZED FREE ENERGY PREDICTED BY IDOCK:   -4.43 KCAL/MOL
REMARK 922        TOTAL FREE ENERGY PREDICTED BY IDOCK:  -15.77 KCAL/MOL
REMARK 923 INTER-LIGAND FREE ENERGY PREDICTED BY IDOCK:  -11.94 KCAL/MOL
REMARK 924 INTRA-LIGAND FREE ENERGY PREDICTED BY IDOCK:   -3.82 KCAL/MOL
REMARK 927      BINDING AFFINITY PREDICTED BY RF-SCORE:    0.00 PKD
ROOT
HETATM    1  C   UNL     1     -12.802  14.976  73.433  1.00  0.00    -0.652 C  
HETATM    2  C   UNL     1     -13.474  13.905  72.595  1.00  0.00    -0.652 C  
ENDROOT
BRANCH   2   3
HETATM    3  C   UNL     1     -13.567  14.302  71.119  1.00  0.00    -0.300 C  
BRANCH   3   4
HETATM    4  C   UNL     1     -12.988  15.699  70.929  1.00  0.00    -0.414 C  
BRANCH   4   5
HETATM    5  N   UNL     1     -12.767  16.005  69.521  1.00  0.00    -0.467 NA 
HETATM    6  H   UNL     1     -13.543  16.253  68.907  1.00  0.00     0.000 HD 
BRANCH   5   7
HETATM    7  C   UNL     1     -11.449  15.947  69.037  1.00  0.00    -0.380 A  
HETATM    8  C   UNL     1     -10.378  15.455  69.794  1.00  0.00    -0.296 A  
HETATM    9  C   UNL     1      -9.069  15.483  69.312  1.00  0.00    -0.266 A  
HETATM   10  C   UNL     1      -8.788  16.039  68.062  1.00  0.00    -0.175 A  
HETATM   11  C   UNL     1     -11.154  16.520  67.792  1.00  0.00    -0.179 A  
HETATM   12  C   UNL     1      -9.838  16.563  67.300  1.00  0.00    -0.254 A  
BRANCH  10  13
HETATM   13  C   UNL     1      -7.366  16.062  67.633  1.00  0.00    -0.151 C  
HETATM   14  O   UNL     1      -6.619  17.007  67.846  1.00  0.00    -0.135 OA 
BRANCH  13  15
HETATM   15  O   UNL     1      -7.036  14.934  66.965  1.00  0.00    -0.180 OA 
BRANCH  15  16
HETATM   16  C   UNL     1      -6.221  14.012  67.712  1.00  0.00    -0.140 C  
BRANCH  16  17
HETATM   17  C   UNL     1      -6.789  12.594  67.653  1.00  0.00    -0.144 C  
BRANCH  17  18
HETATM   18  O   UNL     1      -7.239  12.211  68.956  1.00  0.00    -0.103 OA 
BRANCH  18  19
HETATM   19  C   UNL     1      -7.697  10.861  68.971  1.00  0.00    -0.135 C  
BRANCH  19  20
HETATM   20  C   UNL     1      -6.773  10.020  69.841  1.00  0.00    -0.099 C  
BRANCH  20  21
HETATM   21  O   UNL     1      -7.462   9.658  71.036  1.00  0.00    -0.327 OA 
BRANCH  21  22
HETATM   22  C   UNL     1      -7.344   8.263  71.304  1.00  0.00    -0.078 C  
BRANCH  22  23
HETATM   23  C   UNL     1      -8.386   7.863  72.340  1.00  0.00    -0.138 C  
BRANCH  23  24
HETATM   24  O   UNL     1      -9.453   8.809  72.319  1.00  0.00    -0.293 OA 
BRANCH  24  25
HETATM   25  C   UNL     1     -10.688   8.202  72.693  1.00  0.00    -0.351 C  
BRANCH  25  26
HETATM   26  C   UNL     1     -11.835   8.983  72.068  1.00  0.00    -0.356 C  
BRANCH  26  27
HETATM   27  O   UNL     1     -11.299   9.996  71.221  1.00  0.00    -0.357 OA 
BRANCH  27  28
HETATM   28  C   UNL     1     -12.329  10.645  70.478  1.00  0.00    -0.359 C  
BRANCH  28  29
HETATM   29  C   UNL     1     -11.696  11.651  69.529  1.00  0.00    -0.344 C  
BRANCH  29  30
HETATM   30  O   UNL     1     -12.237  11.457  68.225  1.00  0.00    -0.588 OA 
BRANCH  30  31
HETATM   31  C   UNL     1     -11.983  12.584  67.390  1.00  0.00    -0.213 C  
BRANCH  31  32
HETATM   32  C   UNL     1     -10.479  12.781  67.270  1.00  0.00    -0.232 C  
BRANCH  32  33
HETATM   33  O   UNL     1     -10.203  13.516  66.082  1.00  0.00    -0.288 OA 
BRANCH  33  34
HETATM   34  C   UNL     1     -11.393  13.748  65.334  1.00  0.00    -0.308 C  
BRANCH  34  35
HETATM   35  C   UNL     1     -11.306  12.988  64.020  1.00  0.00    -0.410 C  
BRANCH  35  36
HETATM   36  O   UNL     1     -10.018  12.385  63.917  1.00  0.00    -0.337 OA 
BRANCH  36  37
HETATM   37  C   UNL     1     -10.105  11.072  63.371  1.00  0.00    -0.370 C  
BRANCH  37  38
HETATM   38  C   UNL     1      -9.364  10.106  64.285  1.00  0.00    -0.295 C  
BRANCH  38  39
HETATM   39  O   UNL     1     -10.151   9.868  65.448  1.00  0.00    -0.313 OA 
BRANCH  39  40
HETATM   40  C   UNL     1      -9.360   9.327  66.506  1.00  0.00    -0.178 C  
BRANCH  40  41
HETATM   41  C   UNL     1     -10.054   8.092  67.065  1.00  0.00    -0.280 C  
BRANCH  41  42
HETATM   42  O   UNL     1     -10.317   8.286  68.453  1.00  0.00    -0.206 OA 
HETATM   43  C   UNL     1     -10.323   7.050  69.155  1.00  0.00    -0.201 C  
ENDBRANCH  41  42
ENDBRANCH  40  41
ENDBRANCH  39  40
ENDBRANCH  38  39
ENDBRANCH  37  38
ENDBRANCH  36  37
ENDBRANCH  35  36
ENDBRANCH  34  35
ENDBRANCH  33  34
ENDBRANCH  32  33
ENDBRANCH  31  32
ENDBRANCH  30  31
ENDBRANCH  29  30
ENDBRANCH  28  29
ENDBRANCH  27  28
ENDBRANCH  26  27
ENDBRANCH  25  26
ENDBRANCH  24  25
ENDBRANCH  23  24
ENDBRANCH  22  23
ENDBRANCH  21  22
ENDBRANCH  20  21
ENDBRANCH  19  20
ENDBRANCH  18  19
ENDBRANCH  17  18
ENDBRANCH  16  17
ENDBRANCH  15  16
ENDBRANCH  13  15
ENDBRANCH  10  13
ENDBRANCH   5   7
ENDBRANCH   4   5
ENDBRANCH   3   4
ENDBRANCH   2   3
TORSDOF 33
ENDMDL
MODEL       12
REMARK 921   NORMALIZED FREE ENERGY PREDICTED BY IDOCK:   -4.42 KCAL/MOL
REMARK 922        TOTAL FREE ENERGY PREDICTED BY IDOCK:  -15.76 KCAL/MOL
REMARK 923 INTER-LIGAND FREE ENERGY PREDICTED BY IDOCK:  -12.40 KCAL/MOL
REMARK 924 INTRA-LIGAND FREE ENERGY PREDICTED BY IDOCK:   -3.36 KCAL/MOL
REMARK 927      BINDING AFFINITY PREDICTED BY RF-SCORE:    0.00 PKD
ROOT
HETATM    1  C   UNL     1     -12.689  15.139  73.501  1.00  0.00    -0.678 C  
HETATM    2  C   UNL     1     -13.491  14.228  72.591  1.00  0.00    -0.623 C  
ENDROOT
BRANCH   2   3
HETATM    3  C   UNL     1     -13.753  14.863  71.223  1.00  0.00    -0.505 C  
BRANCH   3   4
HETATM    4  C   UNL     1     -12.466  15.490  70.697  1.00  0.00    -0.435 C  
BRANCH   4   5
HETATM    5  N   UNL     1     -12.337  15.325  69.254  1.00  0.00    -0.595 NA 
HETATM    6  H   UNL     1     -12.918  14.659  68.746  1.00  0.00     0.000 HD 
BRANCH   5   7
HETATM    7  C   UNL     1     -11.385  16.115  68.588  1.00  0.00    -0.365 A  
HETATM    8  C   UNL     1     -10.615  17.091  69.232  1.00  0.00    -0.276 A  
HETATM    9  C   UNL     1      -9.734  17.910  68.526  1.00  0.00    -0.352 A  
HETATM   10  C   UNL     1      -9.622  17.798  67.139  1.00  0.00    -0.276 A  
HETATM   11  C   UNL     1     -11.279  16.023  67.192  1.00  0.00    -0.002 A  
HETATM   12  C   UNL     1     -10.403  16.850  66.469  1.00  0.00    -0.299 A  
BRANCH  10  13
HETATM   13  C   UNL     1      -8.688  18.729  66.455  1.00  0.00    -0.286 C  
HETATM   14  O   UNL     1      -8.897  19.929  66.348  1.00  0.00    -0.350 OA 
BRANCH  13  15
HETATM   15  O   UNL     1      -7.618  18.070  65.954  1.00  0.00    -0.480 OA 
BRANCH  15  16
HETATM   16  C   UNL     1      -6.515  17.935  66.869  1.00  0.00    -0.176 C  
BRANCH  16  17
HETATM   17  C   UNL     1      -6.113  16.470  67.042  1.00  0.00    -0.138 C  
BRANCH  17  18
HETATM   18  O   UNL     1      -7.067  15.815  67.883  1.00  0.00    -0.114 OA 
BRANCH  18  19
HETATM   19  C   UNL     1      -7.368  14.506  67.403  1.00  0.00    -0.157 C  
BRANCH  19  20
HETATM   20  C   UNL     1      -8.502  13.911  68.227  1.00  0.00    -0.169 C  
BRANCH  20  21
HETATM   21  O   UNL     1      -9.340  13.134  67.372  1.00  0.00    -0.198 OA 
BRANCH  21  22
HETATM   22  C   UNL     1     -10.392  12.509  68.103  1.00  0.00    -0.232 C  
BRANCH  22  23
HETATM   23  C   UNL     1     -11.601  12.340  67.191  1.00  0.00    -0.353 C  
BRANCH  23  24
HETATM   24  O   UNL     1     -11.333  12.969  65.939  1.00  0.00    -0.297 OA 
BRANCH  24  25
HETATM   25  C   UNL     1     -12.303  12.603  64.960  1.00  0.00    -0.497 C  
BRANCH  25  26
HETATM   26  C   UNL     1     -11.649  12.611  63.586  1.00  0.00    -0.503 C  
BRANCH  26  27
HETATM   27  O   UNL     1     -10.267  12.292  63.727  1.00  0.00    -0.387 OA 
BRANCH  27  28
HETATM   28  C   UNL     1      -9.933  11.115  62.995  1.00  0.00    -0.311 C  
BRANCH  28  29
HETATM   29  C   UNL     1      -9.066  10.219  63.867  1.00  0.00    -0.254 C  
BRANCH  29  30
HETATM   30  O   UNL     1      -9.351  10.492  65.236  1.00  0.00    -0.185 OA 
BRANCH  30  31
HETATM   31  C   UNL     1      -8.432   9.825  66.096  1.00  0.00    -0.124 C  
BRANCH  31  32
HETATM   32  C   UNL     1      -7.069  10.489  65.974  1.00  0.00    -0.137 C  
BRANCH  32  33
HETATM   33  O   UNL     1      -6.384  10.371  67.217  1.00  0.00    -0.060 OA 
BRANCH  33  34
HETATM   34  C   UNL     1      -7.303  10.277  68.302  1.00  0.00    -0.085 C  
BRANCH  34  35
HETATM   35  C   UNL     1      -6.537   9.918  69.567  1.00  0.00    -0.051 C  
BRANCH  35  36
HETATM   36  O   UNL     1      -7.426   9.981  70.680  1.00  0.00    -0.302 OA 
BRANCH  36  37
HETATM   37  C   UNL     1      -8.095   8.739  70.876  1.00  0.00    -0.150 C  
BRANCH  37  38
HETATM   38  C   UNL     1      -9.592   8.995  70.985  1.00  0.00    -0.279 C  
BRANCH  38  39
HETATM   39  O   UNL     1      -9.995   8.836  72.343  1.00  0.00    -0.282 OA 
BRANCH  39  40
HETATM   40  C   UNL     1     -11.176   8.041  72.441  1.00  0.00    -0.369 C  
BRANCH  40  41
HETATM   41  C   UNL     1     -11.970   8.167  71.149  1.00  0.00    -0.273 C  
BRANCH  41  42
HETATM   42  O   UNL     1     -12.925   9.219  71.281  1.00  0.00    -0.323 OA 
HETATM   43  C   UNL     1     -13.788   8.997  72.387  1.00  0.00    -0.475 C  
ENDBRANCH  41  42
ENDBRANCH  40  41
ENDBRANCH  39  40
ENDBRANCH  38  39
ENDBRANCH  37  38
ENDBRANCH  36  37
ENDBRANCH  35  36
ENDBRANCH  34  35
ENDBRANCH  33  34
ENDBRANCH  32  33
ENDBRANCH  31  32
ENDBRANCH  30  31
ENDBRANCH  29  30
ENDBRANCH  28  29
ENDBRANCH  27  28
ENDBRANCH  26  27
ENDBRANCH  25  26
ENDBRANCH  24  25
ENDBRANCH  23  24
ENDBRANCH  22  23
ENDBRANCH  21  22
ENDBRANCH  20  21
ENDBRANCH  19  20
ENDBRANCH  18  19
ENDBRANCH  17  18
ENDBRANCH  16  17
ENDBRANCH  15  16
ENDBRANCH  13  15
ENDBRANCH  10  13
ENDBRANCH   5   7
ENDBRANCH   4   5
ENDBRANCH   3   4
ENDBRANCH   2   3
TORSDOF 33
ENDMDL
MODEL       13
REMARK 921   NORMALIZED FREE ENERGY PREDICTED BY IDOCK:   -4.41 KCAL/MOL
REMARK 922        TOTAL FREE ENERGY PREDICTED BY IDOCK:  -15.73 KCAL/MOL
REMARK 923 INTER-LIGAND FREE ENERGY PREDICTED BY IDOCK:  -12.29 KCAL/MOL
REMARK 924 INTRA-LIGAND FREE ENERGY PREDICTED BY IDOCK:   -3.44 KCAL/MOL
REMARK 927      BINDING AFFINITY PREDICTED BY RF-SCORE:    0.00 PKD
ROOT
HETATM    1  C   UNL     1     -12.081  15.198  73.736  1.00  0.00    -0.614 C  
HETATM    2  C   UNL     1     -13.372  15.760  73.172  1.00  0.00    -0.685 C  
ENDROOT
BRANCH   2   3
HETATM    3  C   UNL     1     -13.656  15.247  71.758  1.00  0.00    -0.581 C  
BRANCH   3   4
HETATM    4  C   UNL     1     -13.753  13.725  71.778  1.00  0.00    -0.353 C  
BRANCH   4   5
HETATM    5  N   UNL     1     -12.772  13.109  70.892  1.00  0.00    -0.277 NA 
HETATM    6  H   UNL     1     -12.303  13.652  70.168  1.00  0.00     0.000 HD 
BRANCH   5   7
HETATM    7  C   UNL     1     -12.494  11.744  71.071  1.00  0.00    -0.309 A  
HETATM    8  C   UNL     1     -11.508  11.063  70.345  1.00  0.00    -0.316 A  
HETATM    9  C   UNL     1     -11.310   9.691  70.492  1.00  0.00    -0.360 A  
HETATM   10  C   UNL     1     -12.121   8.947  71.352  1.00  0.00    -0.381 A  
HETATM   11  C   UNL     1     -13.315  10.986  71.918  1.00  0.00    -0.423 A  
HETATM   12  C   UNL     1     -13.132   9.601  72.066  1.00  0.00    -0.537 A  
BRANCH  10  13
HETATM   13  C   UNL     1     -11.870   7.485  71.429  1.00  0.00    -0.294 C  
HETATM   14  O   UNL     1     -12.676   6.692  71.893  1.00  0.00    -0.345 OA 
BRANCH  13  15
HETATM   15  O   UNL     1     -10.643   7.172  70.954  1.00  0.00    -0.217 OA 
BRANCH  15  16
HETATM   16  C   UNL     1     -10.074   5.971  71.508  1.00  0.00    -0.192 C  
BRANCH  16  17
HETATM   17  C   UNL     1      -8.944   5.435  70.630  1.00  0.00    -0.143 C  
BRANCH  17  18
HETATM   18  O   UNL     1      -8.539   6.453  69.708  1.00  0.00    -0.135 OA 
BRANCH  18  19
HETATM   19  C   UNL     1      -7.459   6.011  68.890  1.00  0.00    -0.086 C  
BRANCH  19  20
HETATM   20  C   UNL     1      -7.687   4.561  68.487  1.00  0.00    -0.075 C  
BRANCH  20  21
HETATM   21  O   UNL     1      -8.163   4.521  67.142  1.00  0.00    -0.101 OA 
BRANCH  21  22
HETATM   22  C   UNL     1      -9.490   4.003  67.075  1.00  0.00    -0.199 C  
BRANCH  22  23
HETATM   23  C   UNL     1     -10.358   4.958  66.265  1.00  0.00    -0.298 C  
BRANCH  23  24
HETATM   24  O   UNL     1      -9.876   6.289  66.440  1.00  0.00    -0.151 OA 
BRANCH  24  25
HETATM   25  C   UNL     1     -10.785   7.070  67.213  1.00  0.00    -0.342 C  
BRANCH  25  26
HETATM   26  C   UNL     1     -10.325   8.520  67.206  1.00  0.00    -0.302 C  
BRANCH  26  27
HETATM   27  O   UNL     1      -8.901   8.555  67.186  1.00  0.00    -0.127 OA 
BRANCH  27  28
HETATM   28  C   UNL     1      -8.423   9.700  66.484  1.00  0.00    -0.123 C  
BRANCH  28  29
HETATM   29  C   UNL     1      -9.504  10.769  66.485  1.00  0.00    -0.169 C  
BRANCH  29  30
HETATM   30  O   UNL     1      -8.888  12.049  66.373  1.00  0.00    -0.192 OA 
BRANCH  30  31
HETATM   31  C   UNL     1      -8.115  12.350  67.532  1.00  0.00    -0.173 C  
BRANCH  31  32
HETATM   32  C   UNL     1      -7.654  13.798  67.456  1.00  0.00    -0.173 C  
BRANCH  32  33
HETATM   33  O   UNL     1      -8.592  14.541  66.684  1.00  0.00    -0.188 OA 
BRANCH  33  34
HETATM   34  C   UNL     1      -8.155  15.884  66.499  1.00  0.00    -0.235 C  
BRANCH  34  35
HETATM   35  C   UNL     1      -9.256  16.829  66.957  1.00  0.00    -0.225 C  
BRANCH  35  36
HETATM   36  O   UNL     1      -9.446  16.674  68.361  1.00  0.00    -0.217 OA 
BRANCH  36  37
HETATM   37  C   UNL     1     -10.823  16.488  68.678  1.00  0.00    -0.345 C  
BRANCH  37  38
HETATM   38  C   UNL     1     -11.037  15.051  69.130  1.00  0.00    -0.270 C  
BRANCH  38  39
HETATM   39  O   UNL     1     -12.160  14.508  68.442  1.00  0.00    -0.302 OA 
BRANCH  39  40
HETATM   40  C   UNL     1     -11.754  13.554  67.461  1.00  0.00    -0.367 C  
BRANCH  40  41
HETATM   41  C   UNL     1     -11.955  14.149  66.075  1.00  0.00    -0.413 C  
BRANCH  41  42
HETATM   42  O   UNL     1     -13.015  13.461  65.414  1.00  0.00    -0.625 OA 
HETATM   43  C   UNL     1     -12.516  12.442  64.558  1.00  0.00    -0.435 C  
ENDBRANCH  41  42
ENDBRANCH  40  41
ENDBRANCH  39  40
ENDBRANCH  38  39
ENDBRANCH  37  38
ENDBRANCH  36  37
ENDBRANCH  35  36
ENDBRANCH  34  35
ENDBRANCH  33  34
ENDBRANCH  32  33
ENDBRANCH  31  32
ENDBRANCH  30  31
ENDBRANCH  29  30
ENDBRANCH  28  29
ENDBRANCH  27  28
ENDBRANCH  26  27
ENDBRANCH  25  26
ENDBRANCH  24  25
ENDBRANCH  23  24
ENDBRANCH  22  23
ENDBRANCH  21  22
ENDBRANCH  20  21
ENDBRANCH  19  20
ENDBRANCH  18  19
ENDBRANCH  17  18
ENDBRANCH  16  17
ENDBRANCH  15  16
ENDBRANCH  13  15
ENDBRANCH  10  13
ENDBRANCH   5   7
ENDBRANCH   4   5
ENDBRANCH   3   4
ENDBRANCH   2   3
TORSDOF 33
ENDMDL
MODEL       14
REMARK 921   NORMALIZED FREE ENERGY PREDICTED BY IDOCK:   -4.41 KCAL/MOL
REMARK 922        TOTAL FREE ENERGY PREDICTED BY IDOCK:  -15.73 KCAL/MOL
REMARK 923 INTER-LIGAND FREE ENERGY PREDICTED BY IDOCK:  -12.63 KCAL/MOL
REMARK 924 INTRA-LIGAND FREE ENERGY PREDICTED BY IDOCK:   -3.10 KCAL/MOL
REMARK 927      BINDING AFFINITY PREDICTED BY RF-SCORE:    0.00 PKD
ROOT
HETATM    1  C   UNL     1      -9.835   4.228  70.911  1.00  0.00    -0.259 C  
HETATM    2  C   UNL     1      -9.338   4.507  72.317  1.00  0.00    -0.165 C  
ENDROOT
BRANCH   2   3
HETATM    3  C   UNL     1     -10.486   4.623  73.323  1.00  0.00    -0.260 C  
BRANCH   3   4
HETATM    4  C   UNL     1     -11.545   5.576  72.780  1.00  0.00    -0.235 C  
BRANCH   4   5
HETATM    5  N   UNL     1     -11.407   6.914  73.343  1.00  0.00    -0.470 NA 
HETATM    6  H   UNL     1     -11.180   7.050  74.328  1.00  0.00     0.000 HD 
BRANCH   5   7
HETATM    7  C   UNL     1     -11.596   8.009  72.485  1.00  0.00    -0.403 A  
HETATM    8  C   UNL     1     -10.545   8.637  71.803  1.00  0.00    -0.395 A  
HETATM    9  C   UNL     1     -10.757   9.770  71.018  1.00  0.00    -0.342 A  
HETATM   10  C   UNL     1     -12.031  10.332  70.917  1.00  0.00    -0.473 A  
HETATM   11  C   UNL     1     -12.868   8.592  72.392  1.00  0.00    -0.413 A  
HETATM   12  C   UNL     1     -13.091   9.739  71.612  1.00  0.00    -0.516 A  
BRANCH  10  13
HETATM   13  C   UNL     1     -12.170  11.557  70.090  1.00  0.00    -0.308 C  
HETATM   14  O   UNL     1     -12.272  12.679  70.566  1.00  0.00    -0.365 OA 
BRANCH  13  15
HETATM   15  O   UNL     1     -12.199  11.259  68.771  1.00  0.00    -0.532 OA 
BRANCH  15  16
HETATM   16  C   UNL     1     -11.106  11.805  68.009  1.00  0.00    -0.242 C  
BRANCH  16  17
HETATM   17  C   UNL     1     -10.445  10.735  67.140  1.00  0.00    -0.237 C  
BRANCH  17  18
HETATM   18  O   UNL     1     -10.876   9.441  67.576  1.00  0.00    -0.269 OA 
BRANCH  18  19
HETATM   19  C   UNL     1     -10.404   8.417  66.704  1.00  0.00    -0.228 C  
BRANCH  19  20
HETATM   20  C   UNL     1     -10.814   7.056  67.249  1.00  0.00    -0.333 C  
BRANCH  20  21
HETATM   21  O   UNL     1     -10.261   6.892  68.554  1.00  0.00    -0.162 OA 
BRANCH  21  22
HETATM   22  C   UNL     1      -8.859   6.640  68.498  1.00  0.00    -0.122 C  
BRANCH  22  23
HETATM   23  C   UNL     1      -8.132   7.669  69.354  1.00  0.00    -0.127 C  
BRANCH  23  24
HETATM   24  O   UNL     1      -7.421   8.566  68.504  1.00  0.00    -0.090 OA 
BRANCH  24  25
HETATM   25  C   UNL     1      -6.498   7.866  67.672  1.00  0.00    -0.056 C  
BRANCH  25  26
HETATM   26  C   UNL     1      -6.133   8.745  66.484  1.00  0.00    -0.057 C  
BRANCH  26  27
HETATM   27  O   UNL     1      -7.236   9.595  66.181  1.00  0.00    -0.094 OA 
BRANCH  27  28
HETATM   28  C   UNL     1      -7.035  10.280  64.946  1.00  0.00    -0.101 C  
BRANCH  28  29
HETATM   29  C   UNL     1      -7.821   9.571  63.854  1.00  0.00    -0.133 C  
BRANCH  29  30
HETATM   30  O   UNL     1      -9.193   9.941  63.959  1.00  0.00    -0.250 OA 
BRANCH  30  31
HETATM   31  C   UNL     1      -9.536  10.928  62.990  1.00  0.00    -0.358 C  
BRANCH  31  32
HETATM   32  C   UNL     1     -10.392  11.997  63.653  1.00  0.00    -0.450 C  
BRANCH  32  33
HETATM   33  O   UNL     1     -11.740  11.843  63.221  1.00  0.00    -0.400 OA 
BRANCH  33  34
HETATM   34  C   UNL     1     -12.653  12.214  64.249  1.00  0.00    -0.331 C  
BRANCH  34  35
HETATM   35  C   UNL     1     -12.109  13.435  64.976  1.00  0.00    -0.401 C  
BRANCH  35  36
HETATM   36  O   UNL     1     -12.800  14.594  64.515  1.00  0.00    -0.579 OA 
BRANCH  36  37
HETATM   37  C   UNL     1     -11.905  15.688  64.330  1.00  0.00    -0.182 C  
BRANCH  37  38
HETATM   38  C   UNL     1     -10.550  15.324  64.922  1.00  0.00    -0.351 C  
BRANCH  38  39
HETATM   39  O   UNL     1     -10.003  16.468  65.572  1.00  0.00    -0.541 OA 
BRANCH  39  40
HETATM   40  C   UNL     1      -9.992  16.301  66.989  1.00  0.00    -0.255 C  
BRANCH  40  41
HETATM   41  C   UNL     1     -10.483  17.584  67.645  1.00  0.00    -0.370 C  
BRANCH  41  42
HETATM   42  O   UNL     1     -10.524  18.627  66.673  1.00  0.00    -0.389 OA 
HETATM   43  C   UNL     1     -10.637  19.903  67.288  1.00  0.00    -0.386 C  
ENDBRANCH  41  42
ENDBRANCH  40  41
ENDBRANCH  39  40
ENDBRANCH  38  39
ENDBRANCH  37  38
ENDBRANCH  36  37
ENDBRANCH  35  36
ENDBRANCH  34  35
ENDBRANCH  33  34
ENDBRANCH  32  33
ENDBRANCH  31  32
ENDBRANCH  30  31
ENDBRANCH  29  30
ENDBRANCH  28  29
ENDBRANCH  27  28
ENDBRANCH  26  27
ENDBRANCH  25  26
ENDBRANCH  24  25
ENDBRANCH  23  24
ENDBRANCH  22  23
ENDBRANCH  21  22
ENDBRANCH  20  21
ENDBRANCH  19  20
ENDBRANCH  18  19
ENDBRANCH  17  18
ENDBRANCH  16  17
ENDBRANCH  15  16
ENDBRANCH  13  15
ENDBRANCH  10  13
ENDBRANCH   5   7
ENDBRANCH   4   5
ENDBRANCH   3   4
ENDBRANCH   2   3
TORSDOF 33
ENDMDL
MODEL       15
REMARK 921   NORMALIZED FREE ENERGY PREDICTED BY IDOCK:   -4.38 KCAL/MOL
REMARK 922        TOTAL FREE ENERGY PREDICTED BY IDOCK:  -15.63 KCAL/MOL
REMARK 923 INTER-LIGAND FREE ENERGY PREDICTED BY IDOCK:  -11.71 KCAL/MOL
REMARK 924 INTRA-LIGAND FREE ENERGY PREDICTED BY IDOCK:   -3.91 KCAL/MOL
REMARK 927      BINDING AFFINITY PREDICTED BY RF-SCORE:    0.00 PKD
ROOT
HETATM    1  C   UNL     1     -10.674  11.283  64.162  1.00  0.00    -0.436 C  
HETATM    2  C   UNL     1     -11.441  12.539  63.796  1.00  0.00    -0.542 C  
ENDROOT
BRANCH   2   3
HETATM    3  C   UNL     1     -12.545  12.857  64.809  1.00  0.00    -0.493 C  
BRANCH   3   4
HETATM    4  C   UNL     1     -12.120  14.044  65.667  1.00  0.00    -0.417 C  
BRANCH   4   5
HETATM    5  N   UNL     1     -12.078  13.698  67.083  1.00  0.00    -0.384 NA 
HETATM    6  H   UNL     1     -12.662  14.186  67.763  1.00  0.00     0.000 HD 
BRANCH   5   7
HETATM    7  C   UNL     1     -11.208  12.670  67.480  1.00  0.00    -0.288 A  
HETATM    8  C   UNL     1     -11.649  11.388  67.836  1.00  0.00    -0.337 A  
HETATM    9  C   UNL     1     -10.765  10.414  68.298  1.00  0.00    -0.275 A  
HETATM   10  C   UNL     1      -9.409  10.705  68.453  1.00  0.00    -0.163 A  
HETATM   11  C   UNL     1      -9.846  12.958  67.656  1.00  0.00    -0.211 A  
HETATM   12  C   UNL     1      -8.949  11.987  68.132  1.00  0.00    -0.190 A  
BRANCH  10  13
HETATM   13  C   UNL     1      -8.537   9.625  68.983  1.00  0.00    -0.133 C  
HETATM   14  O   UNL     1      -7.919   8.851  68.266  1.00  0.00    -0.103 OA 
BRANCH  13  15
HETATM   15  O   UNL     1      -8.551   9.602  70.335  1.00  0.00    -0.207 OA 
BRANCH  15  16
HETATM   16  C   UNL     1      -7.358   9.069  70.938  1.00  0.00    -0.111 C  
BRANCH  16  17
HETATM   17  C   UNL     1      -7.610   7.687  71.542  1.00  0.00    -0.081 C  
BRANCH  17  18
HETATM   18  O   UNL     1      -6.976   6.695  70.728  1.00  0.00    -0.064 OA 
BRANCH  18  19
HETATM   19  C   UNL     1      -7.935   5.928  70.005  1.00  0.00    -0.105 C  
BRANCH  19  20
HETATM   20  C   UNL     1      -9.298   6.058  70.671  1.00  0.00    -0.160 C  
BRANCH  20  21
HETATM   21  O   UNL     1     -10.237   6.550  69.717  1.00  0.00    -0.177 OA 
BRANCH  21  22
HETATM   22  C   UNL     1     -11.347   7.179  70.354  1.00  0.00    -0.289 C  
BRANCH  22  23
HETATM   23  C   UNL     1     -11.162   7.107  71.864  1.00  0.00    -0.249 C  
BRANCH  23  24
HETATM   24  O   UNL     1     -11.943   8.128  72.480  1.00  0.00    -0.376 OA 
BRANCH  24  25
HETATM   25  C   UNL     1     -12.200   9.199  71.573  1.00  0.00    -0.349 C  
BRANCH  25  26
HETATM   26  C   UNL     1     -13.535   9.839  71.925  1.00  0.00    -0.395 C  
BRANCH  26  27
HETATM   27  O   UNL     1     -13.327  11.219  72.213  1.00  0.00    -0.394 OA 
BRANCH  27  28
HETATM   28  C   UNL     1     -12.792  11.906  71.085  1.00  0.00    -0.249 C  
BRANCH  28  29
HETATM   29  C   UNL     1     -12.819  13.402  71.358  1.00  0.00    -0.333 C  
BRANCH  29  30
HETATM   30  O   UNL     1     -12.047  14.067  70.361  1.00  0.00    -0.313 OA 
BRANCH  30  31
HETATM   31  C   UNL     1     -12.095  15.481  70.531  1.00  0.00    -0.386 C  
BRANCH  31  32
HETATM   32  C   UNL     1     -10.911  16.107  69.810  1.00  0.00    -0.349 C  
BRANCH  32  33
HETATM   33  O   UNL     1     -11.270  16.342  68.452  1.00  0.00    -0.362 OA 
BRANCH  33  34
HETATM   34  C   UNL     1     -10.651  17.526  67.956  1.00  0.00    -0.384 C  
BRANCH  34  35
HETATM   35  C   UNL     1     -10.423  17.374  66.459  1.00  0.00    -0.264 C  
BRANCH  35  36
HETATM   36  O   UNL     1      -9.120  17.853  66.138  1.00  0.00    -0.462 OA 
BRANCH  36  37
HETATM   37  C   UNL     1      -8.175  16.788  66.091  1.00  0.00    -0.264 C  
BRANCH  37  38
HETATM   38  C   UNL     1      -6.772  17.365  66.204  1.00  0.00    -0.227 C  
BRANCH  38  39
HETATM   39  O   UNL     1      -6.071  16.689  67.244  1.00  0.00    -0.133 OA 
BRANCH  39  40
HETATM   40  C   UNL     1      -6.776  16.774  68.482  1.00  0.00    -0.161 C  
BRANCH  40  41
HETATM   41  C   UNL     1      -6.132  17.848  69.349  1.00  0.00    -0.243 C  
BRANCH  41  42
HETATM   42  O   UNL     1      -6.879  19.057  69.235  1.00  0.00    -0.305 OA 
HETATM   43  C   UNL     1      -6.276  20.108  69.978  1.00  0.00    -0.349 C  
ENDBRANCH  41  42
ENDBRANCH  40  41
ENDBRANCH  39  40
ENDBRANCH  38  39
ENDBRANCH  37  38
ENDBRANCH  36  37
ENDBRANCH  35  36
ENDBRANCH  34  35
ENDBRANCH  33  34
ENDBRANCH  32  33
ENDBRANCH  31  32
ENDBRANCH  30  31
ENDBRANCH  29  30
ENDBRANCH  28  29
ENDBRANCH  27  28
ENDBRANCH  26  27
ENDBRANCH  25  26
ENDBRANCH  24  25
ENDBRANCH  23  24
ENDBRANCH  22  23
ENDBRANCH  21  22
ENDBRANCH  20  21
ENDBRANCH  19  20
ENDBRANCH  18  19
ENDBRANCH  17  18
ENDBRANCH  16  17
ENDBRANCH  15  16
ENDBRANCH  13  15
ENDBRANCH  10  13
ENDBRANCH   5   7
ENDBRANCH   4   5
ENDBRANCH   3   4
ENDBRANCH   2   3
TORSDOF 33
ENDMDL
MODEL       16
REMARK 921   NORMALIZED FREE ENERGY PREDICTED BY IDOCK:   -4.37 KCAL/MOL
REMARK 922        TOTAL FREE ENERGY PREDICTED BY IDOCK:  -15.59 KCAL/MOL
REMARK 923 INTER-LIGAND FREE ENERGY PREDICTED BY IDOCK:  -12.65 KCAL/MOL
REMARK 924 INTRA-LIGAND FREE ENERGY PREDICTED BY IDOCK:   -2.94 KCAL/MOL
REMARK 927      BINDING AFFINITY PREDICTED BY RF-SCORE:    0.00 PKD
ROOT
HETATM    1  C   UNL     1     -12.201  12.198  63.447  1.00  0.00    -0.635 C  
HETATM    2  C   UNL     1     -10.792  11.641  63.364  1.00  0.00    -0.453 C  
ENDROOT
BRANCH   2   3
HETATM    3  C   UNL     1     -10.407  10.854  64.620  1.00  0.00    -0.407 C  
BRANCH   3   4
HETATM    4  C   UNL     1     -10.868  11.615  65.858  1.00  0.00    -0.287 C  
BRANCH   4   5
HETATM    5  N   UNL     1      -9.746  11.988  66.711  1.00  0.00    -0.203 NA 
HETATM    6  H   UNL     1      -9.334  11.321  67.364  1.00  0.00     0.000 HD 
BRANCH   5   7
HETATM    7  C   UNL     1      -9.249  13.298  66.604  1.00  0.00    -0.215 A  
HETATM    8  C   UNL     1      -8.229  13.799  67.423  1.00  0.00    -0.194 A  
HETATM    9  C   UNL     1      -7.812  15.127  67.341  1.00  0.00    -0.224 A  
HETATM   10  C   UNL     1      -8.431  16.009  66.454  1.00  0.00    -0.363 A  
HETATM   11  C   UNL     1      -9.877  14.196  65.729  1.00  0.00    -0.297 A  
HETATM   12  C   UNL     1      -9.472  15.539  65.645  1.00  0.00    -0.271 A  
BRANCH  10  13
HETATM   13  C   UNL     1      -7.954  17.416  66.449  1.00  0.00    -0.290 C  
HETATM   14  O   UNL     1      -7.475  17.957  65.463  1.00  0.00    -0.524 OA 
BRANCH  13  15
HETATM   15  O   UNL     1      -8.093  17.985  67.668  1.00  0.00    -0.228 OA 
BRANCH  15  16
HETATM   16  C   UNL     1      -9.178  18.925  67.771  1.00  0.00    -0.293 C  
BRANCH  16  17
HETATM   17  C   UNL     1     -10.521  18.210  67.918  1.00  0.00    -0.392 C  
BRANCH  17  18
HETATM   18  O   UNL     1     -10.467  17.334  69.049  1.00  0.00    -0.337 OA 
BRANCH  18  19
HETATM   19  C   UNL     1     -11.296  16.190  68.859  1.00  0.00    -0.350 C  
BRANCH  19  20
HETATM   20  C   UNL     1     -12.099  15.927  70.125  1.00  0.00    -0.255 C  
BRANCH  20  21
HETATM   21  O   UNL     1     -11.304  16.268  71.259  1.00  0.00    -0.371 OA 
BRANCH  21  22
HETATM   22  C   UNL     1     -12.059  16.193  72.466  1.00  0.00    -0.550 C  
BRANCH  22  23
HETATM   23  C   UNL     1     -13.360  15.448  72.196  1.00  0.00    -0.444 C  
BRANCH  23  24
HETATM   24  O   UNL     1     -13.405  14.276  73.007  1.00  0.00    -0.618 OA 
BRANCH  24  25
HETATM   25  C   UNL     1     -13.776  13.132  72.241  1.00  0.00    -0.551 C  
BRANCH  25  26
HETATM   26  C   UNL     1     -12.808  12.978  71.077  1.00  0.00    -0.198 C  
BRANCH  26  27
HETATM   27  O   UNL     1     -12.533  11.593  70.883  1.00  0.00    -0.376 OA 
BRANCH  27  28
HETATM   28  C   UNL     1     -11.566  11.399  69.854  1.00  0.00    -0.323 C  
BRANCH  28  29
HETATM   29  C   UNL     1     -10.871  10.063  70.074  1.00  0.00    -0.302 C  
BRANCH  29  30
HETATM   30  O   UNL     1     -11.203   9.578  71.372  1.00  0.00    -0.351 OA 
BRANCH  30  31
HETATM   31  C   UNL     1     -10.913   8.188  71.491  1.00  0.00    -0.243 C  
BRANCH  31  32
HETATM   32  C   UNL     1     -10.056   7.966  72.728  1.00  0.00    -0.300 C  
BRANCH  32  33
HETATM   33  O   UNL     1      -8.879   8.761  72.623  1.00  0.00    -0.394 OA 
BRANCH  33  34
HETATM   34  C   UNL     1      -7.803   8.013  72.066  1.00  0.00    -0.105 C  
BRANCH  34  35
HETATM   35  C   UNL     1      -7.378   8.659  70.756  1.00  0.00    -0.070 C  
BRANCH  35  36
HETATM   36  O   UNL     1      -6.582   7.735  70.019  1.00  0.00    -0.037 OA 
BRANCH  36  37
HETATM   37  C   UNL     1      -6.932   7.739  68.637  1.00  0.00    -0.067 C  
BRANCH  37  38
HETATM   38  C   UNL     1      -7.391   9.136  68.247  1.00  0.00    -0.079 C  
BRANCH  38  39
HETATM   39  O   UNL     1      -8.612   9.040  67.519  1.00  0.00    -0.119 OA 
BRANCH  39  40
HETATM   40  C   UNL     1      -9.242   7.777  67.730  1.00  0.00    -0.136 C  
BRANCH  40  41
HETATM   41  C   UNL     1     -10.700   7.871  67.304  1.00  0.00    -0.229 C  
BRANCH  41  42
HETATM   42  O   UNL     1     -11.284   6.570  67.325  1.00  0.00    -0.376 OA 
HETATM   43  C   UNL     1     -10.645   5.702  66.398  1.00  0.00    -0.191 C  
ENDBRANCH  41  42
ENDBRANCH  40  41
ENDBRANCH  39  40
ENDBRANCH  38  39
ENDBRANCH  37  38
ENDBRANCH  36  37
ENDBRANCH  35  36
ENDBRANCH  34  35
ENDBRANCH  33  34
ENDBRANCH  32  33
ENDBRANCH  31  32
ENDBRANCH  30  31
ENDBRANCH  29  30
ENDBRANCH  28  29
ENDBRANCH  27  28
ENDBRANCH  26  27
ENDBRANCH  25  26
ENDBRANCH  24  25
ENDBRANCH  23  24
ENDBRANCH  22  23
ENDBRANCH  21  22
ENDBRANCH  20  21
ENDBRANCH  19  20
ENDBRANCH  18  19
ENDBRANCH  17  18
ENDBRANCH  16  17
ENDBRANCH  15  16
ENDBRANCH  13  15
ENDBRANCH  10  13
ENDBRANCH   5   7
ENDBRANCH   4   5
ENDBRANCH   3   4
ENDBRANCH   2   3
TORSDOF 33
ENDMDL
MODEL       17
REMARK 921   NORMALIZED FREE ENERGY PREDICTED BY IDOCK:   -4.36 KCAL/MOL
REMARK 922        TOTAL FREE ENERGY PREDICTED BY IDOCK:  -15.57 KCAL/MOL
REMARK 923 INTER-LIGAND FREE ENERGY PREDICTED BY IDOCK:  -12.01 KCAL/MOL
REMARK 924 INTRA-LIGAND FREE ENERGY PREDICTED BY IDOCK:   -3.56 KCAL/MOL
REMARK 927      BINDING AFFINITY PREDICTED BY RF-SCORE:    0.00 PKD
ROOT
HETATM    1  C   UNL     1     -11.275   6.525  68.530  1.00  0.00    -0.287 C  
HETATM    2  C   UNL     1     -10.739   6.509  67.111  1.00  0.00    -0.438 C  
ENDROOT
BRANCH   2   3
HETATM    3  C   UNL     1     -10.292   5.111  66.678  1.00  0.00    -0.325 C  
BRANCH   3   4
HETATM    4  C   UNL     1      -8.777   4.997  66.808  1.00  0.00    -0.108 C  
BRANCH   4   5
HETATM    5  N   UNL     1      -8.394   3.995  67.795  1.00  0.00    -0.093 NA 
HETATM    6  H   UNL     1      -7.984   3.105  67.512  1.00  0.00     0.000 HD 
BRANCH   5   7
HETATM    7  C   UNL     1      -8.607   4.296  69.151  1.00  0.00    -0.082 A  
HETATM    8  C   UNL     1      -9.507   3.589  69.959  1.00  0.00    -0.253 A  
HETATM    9  C   UNL     1      -9.751   3.962  71.280  1.00  0.00    -0.247 A  
HETATM   10  C   UNL     1      -9.123   5.084  71.826  1.00  0.00    -0.160 A  
HETATM   11  C   UNL     1      -7.996   5.432  69.702  1.00  0.00    -0.095 A  
HETATM   12  C   UNL     1      -8.243   5.824  71.028  1.00  0.00    -0.122 A  
BRANCH  10  13
HETATM   13  C   UNL     1      -9.461   5.438  73.228  1.00  0.00    -0.142 C  
HETATM   14  O   UNL     1      -8.703   5.244  74.168  1.00  0.00    -0.117 OA 
BRANCH  13  15
HETATM   15  O   UNL     1     -10.705   5.961  73.317  1.00  0.00    -0.238 OA 
BRANCH  15  16
HETATM   16  C   UNL     1     -10.748   7.399  73.366  1.00  0.00    -0.357 C  
BRANCH  16  17
HETATM   17  C   UNL     1     -11.574   7.970  72.214  1.00  0.00    -0.366 C  
BRANCH  17  18
HETATM   18  O   UNL     1     -10.852   9.044  71.602  1.00  0.00    -0.317 OA 
BRANCH  18  19
HETATM   19  C   UNL     1     -11.737   9.996  71.018  1.00  0.00    -0.392 C  
BRANCH  19  20
HETATM   20  C   UNL     1     -13.018  10.069  71.836  1.00  0.00    -0.447 C  
BRANCH  20  21
HETATM   21  O   UNL     1     -13.481  11.419  71.856  1.00  0.00    -0.360 OA 
BRANCH  21  22
HETATM   22  C   UNL     1     -12.588  12.286  71.160  1.00  0.00    -0.253 C  
BRANCH  22  23
HETATM   23  C   UNL     1     -13.038  13.728  71.357  1.00  0.00    -0.337 C  
BRANCH  23  24
HETATM   24  O   UNL     1     -12.546  14.521  70.279  1.00  0.00    -0.344 OA 
BRANCH  24  25
HETATM   25  C   UNL     1     -11.940  15.721  70.755  1.00  0.00    -0.407 C  
BRANCH  25  26
HETATM   26  C   UNL     1     -11.035  16.286  69.671  1.00  0.00    -0.346 C  
BRANCH  26  27
HETATM   27  O   UNL     1     -11.541  15.899  68.396  1.00  0.00    -0.371 OA 
BRANCH  27  28
HETATM   28  C   UNL     1     -10.488  15.755  67.445  1.00  0.00    -0.297 C  
BRANCH  28  29
HETATM   29  C   UNL     1     -10.830  14.615  66.497  1.00  0.00    -0.315 C  
BRANCH  29  30
HETATM   30  O   UNL     1     -12.122  14.112  66.827  1.00  0.00    -0.429 OA 
BRANCH  30  31
HETATM   31  C   UNL     1     -12.926  13.956  65.662  1.00  0.00    -0.315 C  
BRANCH  31  32
HETATM   32  C   UNL     1     -12.184  14.536  64.467  1.00  0.00    -0.465 C  
BRANCH  32  33
HETATM   33  O   UNL     1     -12.363  13.673  63.349  1.00  0.00    -0.719 OA 
BRANCH  33  34
HETATM   34  C   UNL     1     -12.406  12.308  63.756  1.00  0.00    -0.538 C  
BRANCH  34  35
HETATM   35  C   UNL     1     -11.044  11.676  63.509  1.00  0.00    -0.393 C  
BRANCH  35  36
HETATM   36  O   UNL     1     -10.338  11.599  64.746  1.00  0.00    -0.254 OA 
BRANCH  36  37
HETATM   37  C   UNL     1      -9.912  10.265  65.013  1.00  0.00    -0.323 C  
BRANCH  37  38
HETATM   38  C   UNL     1      -9.262  10.220  66.389  1.00  0.00    -0.158 C  
BRANCH  38  39
HETATM   39  O   UNL     1      -9.836  11.234  67.209  1.00  0.00    -0.180 OA 
BRANCH  39  40
HETATM   40  C   UNL     1      -9.175  11.313  68.472  1.00  0.00    -0.181 C  
BRANCH  40  41
HETATM   41  C   UNL     1      -8.751   9.915  68.900  1.00  0.00    -0.140 C  
BRANCH  41  42
HETATM   42  O   UNL     1      -7.798  10.013  69.957  1.00  0.00    -0.166 OA 
HETATM   43  C   UNL     1      -6.713  10.857  69.599  1.00  0.00    -0.131 C  
ENDBRANCH  41  42
ENDBRANCH  40  41
ENDBRANCH  39  40
ENDBRANCH  38  39
ENDBRANCH  37  38
ENDBRANCH  36  37
ENDBRANCH  35  36
ENDBRANCH  34  35
ENDBRANCH  33  34
ENDBRANCH  32  33
ENDBRANCH  31  32
ENDBRANCH  30  31
ENDBRANCH  29  30
ENDBRANCH  28  29
ENDBRANCH  27  28
ENDBRANCH  26  27
ENDBRANCH  25  26
ENDBRANCH  24  25
ENDBRANCH  23  24
ENDBRANCH  22  23
ENDBRANCH  21  22
ENDBRANCH  20  21
ENDBRANCH  19  20
ENDBRANCH  18  19
ENDBRANCH  17  18
ENDBRANCH  16  17
ENDBRANCH  15  16
ENDBRANCH  13  15
ENDBRANCH  10  13
ENDBRANCH   5   7
ENDBRANCH   4   5
ENDBRANCH   3   4
ENDBRANCH   2   3
TORSDOF 33
ENDMDL
MODEL       18
REMARK 921   NORMALIZED FREE ENERGY PREDICTED BY IDOCK:   -4.35 KCAL/MOL
REMARK 922        TOTAL FREE ENERGY PREDICTED BY IDOCK:  -15.54 KCAL/MOL
REMARK 923 INTER-LIGAND FREE ENERGY PREDICTED BY IDOCK:  -12.52 KCAL/MOL
REMARK 924 INTRA-LIGAND FREE ENERGY PREDICTED BY IDOCK:   -3.02 KCAL/MOL
REMARK 927      BINDING AFFINITY PREDICTED BY RF-SCORE:    0.00 PKD
ROOT
HETATM    1  C   UNL     1      -6.480   2.379  67.627  1.00  0.00    -0.032 C  
HETATM    2  C   UNL     1      -7.605   2.958  68.464  1.00  0.00    -0.048 C  
ENDROOT
BRANCH   2   3
HETATM    3  C   UNL     1      -8.984   2.577  67.921  1.00  0.00    -0.194 C  
BRANCH   3   4
HETATM    4  C   UNL     1      -8.920   2.464  66.402  1.00  0.00    -0.115 C  
BRANCH   4   5
HETATM    5  N   UNL     1      -9.877   3.354  65.754  1.00  0.00    -0.402 NA 
HETATM    6  H   UNL     1     -10.566   2.995  65.093  1.00  0.00     0.000 HD 
BRANCH   5   7
HETATM    7  C   UNL     1      -9.818   4.721  66.071  1.00  0.00    -0.216 A  
HETATM    8  C   UNL     1     -10.876   5.412  66.676  1.00  0.00    -0.220 A  
HETATM    9  C   UNL     1     -10.813   6.786  66.907  1.00  0.00    -0.402 A  
HETATM   10  C   UNL     1      -9.696   7.520  66.507  1.00  0.00    -0.238 A  
HETATM   11  C   UNL     1      -8.708   5.470  65.656  1.00  0.00    -0.153 A  
HETATM   12  C   UNL     1      -8.638   6.857  65.874  1.00  0.00    -0.152 A  
BRANCH  10  13
HETATM   13  C   UNL     1      -9.718   8.984  66.757  1.00  0.00    -0.216 C  
HETATM   14  O   UNL     1     -10.619   9.545  67.365  1.00  0.00    -0.268 OA 
BRANCH  13  15
HETATM   15  O   UNL     1      -8.645   9.594  66.205  1.00  0.00    -0.124 OA 
BRANCH  15  16
HETATM   16  C   UNL     1      -8.965  10.650  65.280  1.00  0.00    -0.190 C  
BRANCH  16  17
HETATM   17  C   UNL     1      -9.254  10.097  63.884  1.00  0.00    -0.280 C  
BRANCH  17  18
HETATM   18  O   UNL     1     -10.288  10.876  63.273  1.00  0.00    -0.325 OA 
BRANCH  18  19
HETATM   19  C   UNL     1     -10.964  11.684  64.234  1.00  0.00    -0.355 C  
BRANCH  19  20
HETATM   20  C   UNL     1     -12.345  12.051  63.708  1.00  0.00    -0.496 C  
BRANCH  20  21
HETATM   21  O   UNL     1     -13.078  12.703  64.744  1.00  0.00    -0.852 OA 
BRANCH  21  22
HETATM   22  C   UNL     1     -12.510  13.970  65.066  1.00  0.00    -0.425 C  
BRANCH  22  23
HETATM   23  C   UNL     1     -12.281  14.046  66.571  1.00  0.00    -0.451 C  
BRANCH  23  24
HETATM   24  O   UNL     1     -10.882  14.151  66.825  1.00  0.00    -0.291 OA 
BRANCH  24  25
HETATM   25  C   UNL     1     -10.574  15.351  67.532  1.00  0.00    -0.283 C  
BRANCH  25  26
HETATM   26  C   UNL     1     -11.551  15.512  68.687  1.00  0.00    -0.368 C  
BRANCH  26  27
HETATM   27  O   UNL     1     -10.925  16.263  69.723  1.00  0.00    -0.322 OA 
BRANCH  27  28
HETATM   28  C   UNL     1     -11.521  15.992  70.990  1.00  0.00    -0.417 C  
BRANCH  28  29
HETATM   29  C   UNL     1     -12.336  14.712  70.889  1.00  0.00    -0.336 C  
BRANCH  29  30
HETATM   30  O   UNL     1     -13.416  14.779  71.817  1.00  0.00    -0.330 OA 
BRANCH  30  31
HETATM   31  C   UNL     1     -13.820  13.477  72.232  1.00  0.00    -0.581 C  
BRANCH  31  32
HETATM   32  C   UNL     1     -12.946  12.444  71.538  1.00  0.00    -0.285 C  
BRANCH  32  33
HETATM   33  O   UNL     1     -13.263  11.153  72.049  1.00  0.00    -0.493 OA 
BRANCH  33  34
HETATM   34  C   UNL     1     -12.477  10.145  71.420  1.00  0.00    -0.423 C  
BRANCH  34  35
HETATM   35  C   UNL     1     -13.141   8.793  71.640  1.00  0.00    -0.352 C  
BRANCH  35  36
HETATM   36  O   UNL     1     -12.221   7.927  72.300  1.00  0.00    -0.316 OA 
BRANCH  36  37
HETATM   37  C   UNL     1     -12.314   6.597  71.797  1.00  0.00    -0.337 C  
BRANCH  37  38
HETATM   38  C   UNL     1     -10.916   6.093  71.468  1.00  0.00    -0.273 C  
BRANCH  38  39
HETATM   39  O   UNL     1     -10.501   6.649  70.223  1.00  0.00    -0.197 OA 
BRANCH  39  40
HETATM   40  C   UNL     1      -9.159   7.132  70.295  1.00  0.00    -0.156 C  
BRANCH  40  41
HETATM   41  C   UNL     1      -9.184   8.643  70.481  1.00  0.00    -0.175 C  
BRANCH  41  42
HETATM   42  O   UNL     1      -8.138   9.026  71.373  1.00  0.00    -0.266 OA 
HETATM   43  C   UNL     1      -8.209   8.303  72.594  1.00  0.00    -0.162 C  
ENDBRANCH  41  42
ENDBRANCH  40  41
ENDBRANCH  39  40
ENDBRANCH  38  39
ENDBRANCH  37  38
ENDBRANCH  36  37
ENDBRANCH  35  36
ENDBRANCH  34  35
ENDBRANCH  33  34
ENDBRANCH  32  33
ENDBRANCH  31  32
ENDBRANCH  30  31
ENDBRANCH  29  30
ENDBRANCH  28  29
ENDBRANCH  27  28
ENDBRANCH  26  27
ENDBRANCH  25  26
ENDBRANCH  24  25
ENDBRANCH  23  24
ENDBRANCH  22  23
ENDBRANCH  21  22
ENDBRANCH  20  21
ENDBRANCH  19  20
ENDBRANCH  18  19
ENDBRANCH  17  18
ENDBRANCH  16  17
ENDBRANCH  15  16
ENDBRANCH  13  15
ENDBRANCH  10  13
ENDBRANCH   5   7
ENDBRANCH   4   5
ENDBRANCH   3   4
ENDBRANCH   2   3
TORSDOF 33
ENDMDL
MODEL       19
REMARK 921   NORMALIZED FREE ENERGY PREDICTED BY IDOCK:   -4.33 KCAL/MOL
REMARK 922        TOTAL FREE ENERGY PREDICTED BY IDOCK:  -15.48 KCAL/MOL
REMARK 923 INTER-LIGAND FREE ENERGY PREDICTED BY IDOCK:  -12.03 KCAL/MOL
REMARK 924 INTRA-LIGAND FREE ENERGY PREDICTED BY IDOCK:   -3.45 KCAL/MOL
REMARK 927      BINDING AFFINITY PREDICTED BY RF-SCORE:    0.00 PKD
ROOT
HETATM    1  C   UNL     1     -11.153   6.379  68.527  1.00  0.00    -0.385 C  
HETATM    2  C   UNL     1     -10.898   6.804  67.093  1.00  0.00    -0.462 C  
ENDROOT
BRANCH   2   3
HETATM    3  C   UNL     1      -9.604   6.206  66.534  1.00  0.00    -0.183 C  
BRANCH   3   4
HETATM    4  C   UNL     1      -8.576   7.314  66.334  1.00  0.00    -0.138 C  
BRANCH   4   5
HETATM    5  N   UNL     1      -7.424   7.146  67.212  1.00  0.00    -0.097 NA 
HETATM    6  H   UNL     1      -6.499   6.940  66.834  1.00  0.00     0.000 HD 
BRANCH   5   7
HETATM    7  C   UNL     1      -7.629   7.277  68.595  1.00  0.00    -0.114 A  
HETATM    8  C   UNL     1      -7.509   6.207  69.492  1.00  0.00    -0.092 A  
HETATM    9  C   UNL     1      -7.795   6.355  70.848  1.00  0.00    -0.107 A  
HETATM   10  C   UNL     1      -8.245   7.579  71.347  1.00  0.00    -0.106 A  
HETATM   11  C   UNL     1      -8.100   8.497  69.102  1.00  0.00    -0.117 A  
HETATM   12  C   UNL     1      -8.401   8.655  70.466  1.00  0.00    -0.147 A  
BRANCH  10  13
HETATM   13  C   UNL     1      -8.561   7.648  72.797  1.00  0.00    -0.131 C  
HETATM   14  O   UNL     1      -8.260   8.601  73.502  1.00  0.00    -0.404 OA 
BRANCH  13  15
HETATM   15  O   UNL     1      -9.183   6.524  73.218  1.00  0.00    -0.128 OA 
BRANCH  15  16
HETATM   16  C   UNL     1     -10.593   6.676  73.466  1.00  0.00    -0.311 C  
BRANCH  16  17
HETATM   17  C   UNL     1     -11.425   6.009  72.370  1.00  0.00    -0.308 C  
BRANCH  17  18
HETATM   18  O   UNL     1     -12.434   6.921  71.923  1.00  0.00    -0.336 OA 
BRANCH  18  19
HETATM   19  C   UNL     1     -12.130   8.259  72.308  1.00  0.00    -0.379 C  
BRANCH  19  20
HETATM   20  C   UNL     1     -13.383   9.117  72.198  1.00  0.00    -0.463 C  
BRANCH  20  21
HETATM   21  O   UNL     1     -13.000  10.471  71.962  1.00  0.00    -0.458 OA 
BRANCH  21  22
HETATM   22  C   UNL     1     -13.008  10.780  70.570  1.00  0.00    -0.184 C  
BRANCH  22  23
HETATM   23  C   UNL     1     -11.593  11.135  70.129  1.00  0.00    -0.323 C  
BRANCH  23  24
HETATM   24  O   UNL     1     -11.203  10.267  69.067  1.00  0.00    -0.230 OA 
BRANCH  24  25
HETATM   25  C   UNL     1     -11.400  10.884  67.797  1.00  0.00    -0.292 C  
BRANCH  25  26
HETATM   26  C   UNL     1     -10.095  10.840  67.016  1.00  0.00    -0.208 C  
BRANCH  26  27
HETATM   27  O   UNL     1     -10.366  10.408  65.685  1.00  0.00    -0.255 OA 
BRANCH  27  28
HETATM   28  C   UNL     1      -9.426  10.955  64.764  1.00  0.00    -0.238 C  
BRANCH  28  29
HETATM   29  C   UNL     1     -10.160  11.379  63.500  1.00  0.00    -0.395 C  
BRANCH  29  30
HETATM   30  O   UNL     1     -10.724  12.671  63.706  1.00  0.00    -0.416 OA 
BRANCH  30  31
HETATM   31  C   UNL     1     -12.148  12.609  63.748  1.00  0.00    -0.522 C  
BRANCH  31  32
HETATM   32  C   UNL     1     -12.628  13.165  65.080  1.00  0.00    -0.438 C  
BRANCH  32  33
HETATM   33  O   UNL     1     -11.528  13.772  65.750  1.00  0.00    -0.310 OA 
BRANCH  33  34
HETATM   34  C   UNL     1     -11.972  14.579  66.837  1.00  0.00    -0.346 C  
BRANCH  34  35
HETATM   35  C   UNL     1     -10.786  14.887  67.739  1.00  0.00    -0.271 C  
BRANCH  35  36
HETATM   36  O   UNL     1     -10.795  16.276  68.059  1.00  0.00    -0.321 OA 
BRANCH  36  37
HETATM   37  C   UNL     1     -10.345  17.062  66.958  1.00  0.00    -0.304 C  
BRANCH  37  38
HETATM   38  C   UNL     1     -10.620  18.530  67.253  1.00  0.00    -0.413 C  
BRANCH  38  39
HETATM   39  O   UNL     1     -10.022  18.876  68.498  1.00  0.00    -0.369 OA 
BRANCH  39  40
HETATM   40  C   UNL     1      -8.868  19.694  68.308  1.00  0.00    -0.311 C  
BRANCH  40  41
HETATM   41  C   UNL     1      -7.631  18.919  68.745  1.00  0.00    -0.333 C  
BRANCH  41  42
HETATM   42  O   UNL     1      -6.855  19.727  69.627  1.00  0.00    -0.348 OA 
HETATM   43  C   UNL     1      -5.941  20.545  68.910  1.00  0.00    -0.340 C  
ENDBRANCH  41  42
ENDBRANCH  40  41
ENDBRANCH  39  40
ENDBRANCH  38  39
ENDBRANCH  37  38
ENDBRANCH  36  37
ENDBRANCH  35  36
ENDBRANCH  34  35
ENDBRANCH  33  34
ENDBRANCH  32  33
ENDBRANCH  31  32
ENDBRANCH  30  31
ENDBRANCH  29  30
ENDBRANCH  28  29
ENDBRANCH  27  28
ENDBRANCH  26  27
ENDBRANCH  25  26
ENDBRANCH  24  25
ENDBRANCH  23  24
ENDBRANCH  22  23
ENDBRANCH  21  22
ENDBRANCH  20  21
ENDBRANCH  19  20
ENDBRANCH  18  19
ENDBRANCH  17  18
ENDBRANCH  16  17
ENDBRANCH  15  16
ENDBRANCH  13  15
ENDBRANCH  10  13
ENDBRANCH   5   7
ENDBRANCH   4   5
ENDBRANCH   3   4
ENDBRANCH   2   3
TORSDOF 33
ENDMDL
MODEL       20
REMARK 921   NORMALIZED FREE ENERGY PREDICTED BY IDOCK:   -4.33 KCAL/MOL
REMARK 922        TOTAL FREE ENERGY PREDICTED BY IDOCK:  -15.48 KCAL/MOL
REMARK 923 INTER-LIGAND FREE ENERGY PREDICTED BY IDOCK:  -12.81 KCAL/MOL
REMARK 924 INTRA-LIGAND FREE ENERGY PREDICTED BY IDOCK:   -2.67 KCAL/MOL
REMARK 927      BINDING AFFINITY PREDICTED BY RF-SCORE:    0.00 PKD
ROOT
HETATM    1  C   UNL     1      -6.983   1.531  67.091  1.00  0.00    -0.038 C  
HETATM    2  C   UNL     1      -7.564   1.651  65.695  1.00  0.00    -0.066 C  
ENDROOT
BRANCH   2   3
HETATM    3  C   UNL     1      -7.435   3.070  65.135  1.00  0.00    -0.072 C  
BRANCH   3   4
HETATM    4  C   UNL     1      -8.799   3.553  64.653  1.00  0.00    -0.119 C  
BRANCH   4   5
HETATM    5  N   UNL     1      -9.840   3.306  65.645  1.00  0.00    -0.395 NA 
HETATM    6  H   UNL     1     -10.445   2.487  65.581  1.00  0.00     0.000 HD 
BRANCH   5   7
HETATM    7  C   UNL     1      -9.980   4.232  66.692  1.00  0.00    -0.177 A  
HETATM    8  C   UNL     1      -9.564   3.972  68.004  1.00  0.00    -0.195 A  
HETATM    9  C   UNL     1      -9.787   4.884  69.035  1.00  0.00    -0.250 A  
HETATM   10  C   UNL     1     -10.469   6.078  68.789  1.00  0.00    -0.307 A  
HETATM   11  C   UNL     1     -10.680   5.425  66.458  1.00  0.00    -0.309 A  
HETATM   12  C   UNL     1     -10.921   6.346  67.491  1.00  0.00    -0.454 A  
BRANCH  10  13
HETATM   13  C   UNL     1     -10.699   6.981  69.945  1.00  0.00    -0.240 C  
HETATM   14  O   UNL     1      -9.796   7.571  70.522  1.00  0.00    -0.183 OA 
BRANCH  13  15
HETATM   15  O   UNL     1     -12.009   7.032  70.276  1.00  0.00    -0.251 OA 
BRANCH  15  16
HETATM   16  C   UNL     1     -12.265   7.244  71.677  1.00  0.00    -0.343 C  
BRANCH  16  17
HETATM   17  C   UNL     1     -12.985   8.572  71.915  1.00  0.00    -0.362 C  
BRANCH  17  18
HETATM   18  O   UNL     1     -12.101   9.651  71.598  1.00  0.00    -0.367 OA 
BRANCH  18  19
HETATM   19  C   UNL     1     -12.820  10.864  71.384  1.00  0.00    -0.449 C  
BRANCH  19  20
HETATM   20  C   UNL     1     -12.213  11.614  70.206  1.00  0.00    -0.318 C  
BRANCH  20  21
HETATM   21  O   UNL     1     -11.873  10.677  69.184  1.00  0.00    -0.276 OA 
BRANCH  21  22
HETATM   22  C   UNL     1     -10.563  10.916  68.674  1.00  0.00    -0.195 C  
BRANCH  22  23
HETATM   23  C   UNL     1     -10.338  10.040  67.448  1.00  0.00    -0.238 C  
BRANCH  23  24
HETATM   24  O   UNL     1      -9.346  10.643  66.620  1.00  0.00    -0.161 OA 
BRANCH  24  25
HETATM   25  C   UNL     1      -9.042   9.819  65.496  1.00  0.00    -0.196 C  
BRANCH  25  26
HETATM   26  C   UNL     1      -9.253  10.621  64.220  1.00  0.00    -0.233 C  
BRANCH  26  27
HETATM   27  O   UNL     1     -10.651  10.732  63.967  1.00  0.00    -0.332 OA 
BRANCH  27  28
HETATM   28  C   UNL     1     -10.976  12.007  63.419  1.00  0.00    -0.403 C  
BRANCH  28  29
HETATM   29  C   UNL     1     -12.478  12.224  63.528  1.00  0.00    -0.534 C  
BRANCH  29  30
HETATM   30  O   UNL     1     -12.806  12.507  64.885  1.00  0.00    -0.758 OA 
BRANCH  30  31
HETATM   31  C   UNL     1     -12.602  13.884  65.187  1.00  0.00    -0.434 C  
BRANCH  31  32
HETATM   32  C   UNL     1     -11.405  14.015  66.117  1.00  0.00    -0.321 C  
BRANCH  32  33
HETATM   33  O   UNL     1     -10.331  14.619  65.404  1.00  0.00    -0.331 OA 
BRANCH  33  34
HETATM   34  C   UNL     1      -9.566  15.470  66.253  1.00  0.00    -0.309 C  
BRANCH  34  35
HETATM   35  C   UNL     1     -10.162  16.870  66.213  1.00  0.00    -0.329 C  
BRANCH  35  36
HETATM   36  O   UNL     1     -10.620  17.216  67.518  1.00  0.00    -0.347 OA 
BRANCH  36  37
HETATM   37  C   UNL     1      -9.692  16.801  68.517  1.00  0.00    -0.248 C  
BRANCH  37  38
HETATM   38  C   UNL     1     -10.425  15.962  69.554  1.00  0.00    -0.281 C  
BRANCH  38  39
HETATM   39  O   UNL     1     -11.828  16.049  69.318  1.00  0.00    -0.345 OA 
BRANCH  39  40
HETATM   40  C   UNL     1     -12.566  15.378  70.339  1.00  0.00    -0.389 C  
BRANCH  40  41
HETATM   41  C   UNL     1     -11.903  15.637  71.685  1.00  0.00    -0.429 C  
BRANCH  41  42
HETATM   42  O   UNL     1     -12.423  14.726  72.651  1.00  0.00    -0.342 OA 
HETATM   43  C   UNL     1     -13.810  14.494  72.449  1.00  0.00    -0.483 C  
ENDBRANCH  41  42
ENDBRANCH  40  41
ENDBRANCH  39  40
ENDBRANCH  38  39
ENDBRANCH  37  38
ENDBRANCH  36  37
ENDBRANCH  35  36
ENDBRANCH  34  35
ENDBRANCH  33  34
ENDBRANCH  32  33
ENDBRANCH  31  32
ENDBRANCH  30  31
ENDBRANCH  29  30
ENDBRANCH  28  29
ENDBRANCH  27  28
ENDBRANCH  26  27
ENDBRANCH  25  26
ENDBRANCH  24  25
ENDBRANCH  23  24
ENDBRANCH  22  23
ENDBRANCH  21  22
ENDBRANCH  20  21
ENDBRANCH  19  20
ENDBRANCH  18  19
ENDBRANCH  17  18
ENDBRANCH  16  17
ENDBRANCH  15  16
ENDBRANCH  13  15
ENDBRANCH  10  13
ENDBRANCH   5   7
ENDBRANCH   4   5
ENDBRANCH   3   4
ENDBRANCH   2   3
TORSDOF 33
ENDMDL
MODEL       21
REMARK 921   NORMALIZED FREE ENERGY PREDICTED BY IDOCK:   -4.29 KCAL/MOL
REMARK 922        TOTAL FREE ENERGY PREDICTED BY IDOCK:  -15.37 KCAL/MOL
REMARK 923 INTER-LIGAND FREE ENERGY PREDICTED BY IDOCK:  -11.63 KCAL/MOL
REMARK 924 INTRA-LIGAND FREE ENERGY PREDICTED BY IDOCK:   -3.74 KCAL/MOL
REMARK 927      BINDING AFFINITY PREDICTED BY RF-SCORE:    0.00 PKD
ROOT
HETATM    1  C   UNL     1      -5.650  10.305  62.884  1.00  0.00    -0.131 C  
HETATM    2  C   UNL     1      -5.463   9.007  63.647  1.00  0.00    -0.063 C  
ENDROOT
BRANCH   2   3
HETATM    3  C   UNL     1      -6.780   8.484  64.226  1.00  0.00    -0.071 C  
BRANCH   3   4
HETATM    4  C   UNL     1      -7.896   9.481  63.936  1.00  0.00    -0.133 C  
BRANCH   4   5
HETATM    5  N   UNL     1      -9.120   9.144  64.655  1.00  0.00    -0.428 NA 
HETATM    6  H   UNL     1      -9.393   8.173  64.804  1.00  0.00     0.000 HD 
BRANCH   5   7
HETATM    7  C   UNL     1      -9.910  10.202  65.134  1.00  0.00    -0.325 A  
HETATM    8  C   UNL     1     -10.137  11.378  64.406  1.00  0.00    -0.341 A  
HETATM    9  C   UNL     1     -10.863  12.440  64.944  1.00  0.00    -0.333 A  
HETATM   10  C   UNL     1     -11.360  12.371  66.247  1.00  0.00    -0.388 A  
HETATM   11  C   UNL     1     -10.397  10.149  66.448  1.00  0.00    -0.258 A  
HETATM   12  C   UNL     1     -11.121  11.218  67.003  1.00  0.00    -0.356 A  
BRANCH  10  13
HETATM   13  C   UNL     1     -12.094  13.556  66.759  1.00  0.00    -0.375 C  
HETATM   14  O   UNL     1     -12.745  14.301  66.041  1.00  0.00    -0.430 OA 
BRANCH  13  15
HETATM   15  O   UNL     1     -11.918  13.705  68.091  1.00  0.00    -0.362 OA 
BRANCH  15  16
HETATM   16  C   UNL     1     -11.503  15.022  68.498  1.00  0.00    -0.317 C  
BRANCH  16  17
HETATM   17  C   UNL     1     -10.975  15.020  69.933  1.00  0.00    -0.261 C  
BRANCH  17  18
HETATM   18  O   UNL     1     -11.569  16.103  70.655  1.00  0.00    -0.376 OA 
BRANCH  18  19
HETATM   19  C   UNL     1     -12.796  15.708  71.266  1.00  0.00    -0.487 C  
BRANCH  19  20
HETATM   20  C   UNL     1     -12.590  15.553  72.767  1.00  0.00    -0.416 C  
BRANCH  20  21
HETATM   21  O   UNL     1     -12.972  14.234  73.154  1.00  0.00    -0.504 OA 
BRANCH  21  22
HETATM   22  C   UNL     1     -13.676  13.568  72.109  1.00  0.00    -0.559 C  
BRANCH  22  23
HETATM   23  C   UNL     1     -13.201  12.123  72.029  1.00  0.00    -0.391 C  
BRANCH  23  24
HETATM   24  O   UNL     1     -12.618  11.892  70.748  1.00  0.00    -0.308 OA 
BRANCH  24  25
HETATM   25  C   UNL     1     -12.631  10.505  70.417  1.00  0.00    -0.286 C  
BRANCH  25  26
HETATM   26  C   UNL     1     -11.958   9.722  71.535  1.00  0.00    -0.407 C  
BRANCH  26  27
HETATM   27  O   UNL     1     -10.560   9.645  71.272  1.00  0.00    -0.320 OA 
BRANCH  27  28
HETATM   28  C   UNL     1      -9.956   8.577  71.997  1.00  0.00    -0.313 C  
BRANCH  28  29
HETATM   29  C   UNL     1     -11.046   7.759  72.673  1.00  0.00    -0.376 C  
BRANCH  29  30
HETATM   30  O   UNL     1     -10.754   6.374  72.507  1.00  0.00    -0.210 OA 
BRANCH  30  31
HETATM   31  C   UNL     1      -9.906   6.159  71.382  1.00  0.00    -0.175 C  
BRANCH  31  32
HETATM   32  C   UNL     1     -10.744   5.645  70.222  1.00  0.00    -0.294 C  
BRANCH  32  33
HETATM   33  O   UNL     1     -10.966   6.712  69.304  1.00  0.00    -0.261 OA 
BRANCH  33  34
HETATM   34  C   UNL     1     -10.960   6.241  67.959  1.00  0.00    -0.327 C  
BRANCH  34  35
HETATM   35  C   UNL     1      -9.636   6.617  67.311  1.00  0.00    -0.132 C  
BRANCH  35  36
HETATM   36  O   UNL     1      -9.011   7.634  68.090  1.00  0.00    -0.128 OA 
BRANCH  36  37
HETATM   37  C   UNL     1      -7.630   7.350  68.297  1.00  0.00    -0.114 C  
BRANCH  37  38
HETATM   38  C   UNL     1      -6.915   8.631  68.702  1.00  0.00    -0.064 C  
BRANCH  38  39
HETATM   39  O   UNL     1      -7.859   9.528  69.282  1.00  0.00    -0.079 OA 
BRANCH  39  40
HETATM   40  C   UNL     1      -7.510  10.887  69.018  1.00  0.00    -0.124 C  
BRANCH  40  41
HETATM   41  C   UNL     1      -7.198  11.042  67.536  1.00  0.00    -0.096 C  
BRANCH  41  42
HETATM   42  O   UNL     1      -7.632  12.326  67.094  1.00  0.00    -0.150 OA 
HETATM   43  C   UNL     1      -8.135  13.102  68.173  1.00  0.00    -0.155 C  
ENDBRANCH  41  42
ENDBRANCH  40  41
ENDBRANCH  39  40
ENDBRANCH  38  39
ENDBRANCH  37  38
ENDBRANCH  36  37
ENDBRANCH  35  36
ENDBRANCH  34  35
ENDBRANCH  33  34
ENDBRANCH  32  33
ENDBRANCH  31  32
ENDBRANCH  30  31
ENDBRANCH  29  30
ENDBRANCH  28  29
ENDBRANCH  27  28
ENDBRANCH  26  27
ENDBRANCH  25  26
ENDBRANCH  24  25
ENDBRANCH  23  24
ENDBRANCH  22  23
ENDBRANCH  21  22
ENDBRANCH  20  21
ENDBRANCH  19  20
ENDBRANCH  18  19
ENDBRANCH  17  18
ENDBRANCH  16  17
ENDBRANCH  15  16
ENDBRANCH  13  15
ENDBRANCH  10  13
ENDBRANCH   5   7
ENDBRANCH   4   5
ENDBRANCH   3   4
ENDBRANCH   2   3
TORSDOF 33
ENDMDL
MODEL       22
REMARK 921   NORMALIZED FREE ENERGY PREDICTED BY IDOCK:   -4.29 KCAL/MOL
REMARK 922        TOTAL FREE ENERGY PREDICTED BY IDOCK:  -15.36 KCAL/MOL
REMARK 923 INTER-LIGAND FREE ENERGY PREDICTED BY IDOCK:  -12.15 KCAL/MOL
REMARK 924 INTRA-LIGAND FREE ENERGY PREDICTED BY IDOCK:   -3.21 KCAL/MOL
REMARK 927      BINDING AFFINITY PREDICTED BY RF-SCORE:    0.00 PKD
ROOT
HETATM    1  C   UNL     1     -10.487   5.485  74.431  1.00  0.00    -0.236 C  
HETATM    2  C   UNL     1     -11.210   4.678  73.370  1.00  0.00    -0.423 C  
ENDROOT
BRANCH   2   3
HETATM    3  C   UNL     1     -10.289   3.662  72.689  1.00  0.00    -0.224 C  
BRANCH   3   4
HETATM    4  C   UNL     1      -9.884   4.182  71.314  1.00  0.00    -0.179 C  
BRANCH   4   5
HETATM    5  N   UNL     1     -10.679   5.340  70.921  1.00  0.00    -0.174 NA 
HETATM    6  H   UNL     1     -11.492   5.630  71.464  1.00  0.00     0.000 HD 
BRANCH   5   7
HETATM    7  C   UNL     1     -10.289   6.041  69.768  1.00  0.00    -0.228 A  
HETATM    8  C   UNL     1     -11.193   6.457  68.782  1.00  0.00    -0.358 A  
HETATM    9  C   UNL     1     -10.762   7.084  67.614  1.00  0.00    -0.331 A  
HETATM   10  C   UNL     1      -9.400   7.286  67.380  1.00  0.00    -0.148 A  
HETATM   11  C   UNL     1      -8.922   6.232  69.516  1.00  0.00    -0.134 A  
HETATM   12  C   UNL     1      -8.476   6.853  68.337  1.00  0.00    -0.123 A  
BRANCH  10  13
HETATM   13  C   UNL     1      -9.018   7.930  66.097  1.00  0.00    -0.175 C  
HETATM   14  O   UNL     1      -8.121   7.512  65.380  1.00  0.00    -0.120 OA 
BRANCH  13  15
HETATM   15  O   UNL     1      -9.765   9.032  65.860  1.00  0.00    -0.271 OA 
BRANCH  15  16
HETATM   16  C   UNL     1      -9.338   9.815  64.729  1.00  0.00    -0.265 C  
BRANCH  16  17
HETATM   17  C   UNL     1      -9.818  11.262  64.841  1.00  0.00    -0.264 C  
BRANCH  17  18
HETATM   18  O   UNL     1     -10.118  11.761  63.534  1.00  0.00    -0.365 OA 
BRANCH  18  19
HETATM   19  C   UNL     1     -11.145  12.749  63.580  1.00  0.00    -0.393 C  
BRANCH  19  20
HETATM   20  C   UNL     1     -12.493  12.071  63.787  1.00  0.00    -0.485 C  
BRANCH  20  21
HETATM   21  O   UNL     1     -13.108  12.606  64.958  1.00  0.00    -0.808 OA 
BRANCH  21  22
HETATM   22  C   UNL     1     -12.524  13.852  65.330  1.00  0.00    -0.501 C  
BRANCH  22  23
HETATM   23  C   UNL     1     -12.250  13.847  66.829  1.00  0.00    -0.399 C  
BRANCH  23  24
HETATM   24  O   UNL     1     -10.841  13.813  67.046  1.00  0.00    -0.281 OA 
BRANCH  24  25
HETATM   25  C   UNL     1     -10.527  14.009  68.423  1.00  0.00    -0.253 C  
BRANCH  25  26
HETATM   26  C   UNL     1     -11.655  14.786  69.085  1.00  0.00    -0.303 C  
BRANCH  26  27
HETATM   27  O   UNL     1     -11.450  14.791  70.495  1.00  0.00    -0.270 OA 
BRANCH  27  28
HETATM   28  C   UNL     1     -12.170  15.853  71.118  1.00  0.00    -0.399 C  
BRANCH  28  29
HETATM   29  C   UNL     1     -13.444  15.294  71.733  1.00  0.00    -0.463 C  
BRANCH  29  30
HETATM   30  O   UNL     1     -13.102  14.224  72.610  1.00  0.00    -0.432 OA 
BRANCH  30  31
HETATM   31  C   UNL     1     -13.841  13.047  72.297  1.00  0.00    -0.434 C  
BRANCH  31  32
HETATM   32  C   UNL     1     -12.923  12.058  71.595  1.00  0.00    -0.334 C  
BRANCH  32  33
HETATM   33  O   UNL     1     -13.279  10.737  71.990  1.00  0.00    -0.484 OA 
BRANCH  33  34
HETATM   34  C   UNL     1     -12.306   9.792  71.553  1.00  0.00    -0.405 C  
BRANCH  34  35
HETATM   35  C   UNL     1     -11.708  10.270  70.238  1.00  0.00    -0.306 C  
BRANCH  35  36
HETATM   36  O   UNL     1     -10.365   9.804  70.143  1.00  0.00    -0.247 OA 
BRANCH  36  37
HETATM   37  C   UNL     1      -9.696  10.382  69.026  1.00  0.00    -0.206 C  
BRANCH  37  38
HETATM   38  C   UNL     1      -8.194  10.336  69.270  1.00  0.00    -0.162 C  
BRANCH  38  39
HETATM   39  O   UNL     1      -7.514  10.508  68.029  1.00  0.00    -0.088 OA 
BRANCH  39  40
HETATM   40  C   UNL     1      -6.265  11.173  68.213  1.00  0.00    -0.049 C  
BRANCH  40  41
HETATM   41  C   UNL     1      -6.005  12.081  67.018  1.00  0.00    -0.135 C  
BRANCH  41  42
HETATM   42  O   UNL     1      -6.771  13.275  67.156  1.00  0.00    -0.162 OA 
HETATM   43  C   UNL     1      -6.259  14.102  68.192  1.00  0.00    -0.133 C  
ENDBRANCH  41  42
ENDBRANCH  40  41
ENDBRANCH  39  40
ENDBRANCH  38  39
ENDBRANCH  37  38
ENDBRANCH  36  37
ENDBRANCH  35  36
ENDBRANCH  34  35
ENDBRANCH  33  34
ENDBRANCH  32  33
ENDBRANCH  31  32
ENDBRANCH  30  31
ENDBRANCH  29  30
ENDBRANCH  28  29
ENDBRANCH  27  28
ENDBRANCH  26  27
ENDBRANCH  25  26
ENDBRANCH  24  25
ENDBRANCH  23  24
ENDBRANCH  22  23
ENDBRANCH  21  22
ENDBRANCH  20  21
ENDBRANCH  19  20
ENDBRANCH  18  19
ENDBRANCH  17  18
ENDBRANCH  16  17
ENDBRANCH  15  16
ENDBRANCH  13  15
ENDBRANCH  10  13
ENDBRANCH   5   7
ENDBRANCH   4   5
ENDBRANCH   3   4
ENDBRANCH   2   3
TORSDOF 33
ENDMDL
MODEL       23
REMARK 921   NORMALIZED FREE ENERGY PREDICTED BY IDOCK:   -4.28 KCAL/MOL
REMARK 922        TOTAL FREE ENERGY PREDICTED BY IDOCK:  -15.33 KCAL/MOL
REMARK 923 INTER-LIGAND FREE ENERGY PREDICTED BY IDOCK:  -12.96 KCAL/MOL
REMARK 924 INTRA-LIGAND FREE ENERGY PREDICTED BY IDOCK:   -2.38 KCAL/MOL
REMARK 927      BINDING AFFINITY PREDICTED BY RF-SCORE:    0.00 PKD
ROOT
HETATM    1  C   UNL     1      -7.444   2.025  64.322  1.00  0.00    -0.059 C  
HETATM    2  C   UNL     1      -8.416   2.472  63.247  1.00  0.00    -0.085 C  
ENDROOT
BRANCH   2   3
HETATM    3  C   UNL     1      -9.007   3.853  63.541  1.00  0.00    -0.109 C  
BRANCH   3   4
HETATM    4  C   UNL     1      -9.940   3.762  64.744  1.00  0.00    -0.187 C  
BRANCH   4   5
HETATM    5  N   UNL     1     -10.222   5.078  65.308  1.00  0.00    -0.407 NA 
HETATM    6  H   UNL     1     -10.375   5.887  64.706  1.00  0.00     0.000 HD 
BRANCH   5   7
HETATM    7  C   UNL     1     -10.278   5.192  66.707  1.00  0.00    -0.253 A  
HETATM    8  C   UNL     1     -11.055   6.155  67.365  1.00  0.00    -0.326 A  
HETATM    9  C   UNL     1     -11.027   6.290  68.753  1.00  0.00    -0.424 A  
HETATM   10  C   UNL     1     -10.191   5.483  69.527  1.00  0.00    -0.331 A  
HETATM   11  C   UNL     1      -9.428   4.399  67.491  1.00  0.00    -0.201 A  
HETATM   12  C   UNL     1      -9.384   4.534  68.889  1.00  0.00    -0.209 A  
BRANCH  10  13
HETATM   13  C   UNL     1     -10.193   5.711  70.994  1.00  0.00    -0.220 C  
HETATM   14  O   UNL     1     -11.214   5.724  71.667  1.00  0.00    -0.259 OA 
BRANCH  13  15
HETATM   15  O   UNL     1      -8.942   5.927  71.460  1.00  0.00    -0.142 OA 
BRANCH  15  16
HETATM   16  C   UNL     1      -8.441   7.258  71.238  1.00  0.00    -0.115 C  
BRANCH  16  17
HETATM   17  C   UNL     1      -9.265   8.296  71.999  1.00  0.00    -0.204 C  
BRANCH  17  18
HETATM   18  O   UNL     1      -9.377   9.483  71.207  1.00  0.00    -0.229 OA 
BRANCH  18  19
HETATM   19  C   UNL     1     -10.606   9.509  70.484  1.00  0.00    -0.297 C  
BRANCH  19  20
HETATM   20  C   UNL     1     -11.761   9.220  71.434  1.00  0.00    -0.361 C  
BRANCH  20  21
HETATM   21  O   UNL     1     -12.923   9.909  70.976  1.00  0.00    -0.352 OA 
BRANCH  21  22
HETATM   22  C   UNL     1     -13.489  10.718  72.004  1.00  0.00    -0.191 C  
BRANCH  22  23
HETATM   23  C   UNL     1     -13.121  12.175  71.752  1.00  0.00    -0.352 C  
BRANCH  23  24
HETATM   24  O   UNL     1     -13.672  12.982  72.790  1.00  0.00    -0.575 OA 
BRANCH  24  25
HETATM   25  C   UNL     1     -13.896  14.317  72.343  1.00  0.00    -0.518 C  
BRANCH  25  26
HETATM   26  C   UNL     1     -12.813  15.221  72.914  1.00  0.00    -0.438 C  
BRANCH  26  27
HETATM   27  O   UNL     1     -12.268  16.015  71.863  1.00  0.00    -0.449 OA 
BRANCH  27  28
HETATM   28  C   UNL     1     -12.553  15.446  70.587  1.00  0.00    -0.439 C  
BRANCH  28  29
HETATM   29  C   UNL     1     -11.591  16.025  69.561  1.00  0.00    -0.304 C  
BRANCH  29  30
HETATM   30  O   UNL     1     -10.257  15.853  70.032  1.00  0.00    -0.279 OA 
BRANCH  30  31
HETATM   31  C   UNL     1      -9.339  15.740  68.947  1.00  0.00    -0.228 C  
BRANCH  31  32
HETATM   32  C   UNL     1      -8.558  17.040  68.823  1.00  0.00    -0.238 C  
BRANCH  32  33
HETATM   33  O   UNL     1      -8.571  17.458  67.462  1.00  0.00    -0.215 OA 
BRANCH  33  34
HETATM   34  C   UNL     1      -9.458  18.555  67.270  1.00  0.00    -0.288 C  
BRANCH  34  35
HETATM   35  C   UNL     1     -10.379  18.247  66.099  1.00  0.00    -0.398 C  
BRANCH  35  36
HETATM   36  O   UNL     1      -9.981  17.012  65.509  1.00  0.00    -0.567 OA 
BRANCH  36  37
HETATM   37  C   UNL     1     -11.066  16.395  64.821  1.00  0.00    -0.235 C  
BRANCH  37  38
HETATM   38  C   UNL     1     -11.255  14.984  65.359  1.00  0.00    -0.356 C  
BRANCH  38  39
HETATM   39  O   UNL     1     -12.443  14.427  64.802  1.00  0.00    -0.532 OA 
BRANCH  39  40
HETATM   40  C   UNL     1     -12.754  13.170  65.401  1.00  0.00    -0.360 C  
BRANCH  40  41
HETATM   41  C   UNL     1     -11.463  12.401  65.645  1.00  0.00    -0.367 C  
BRANCH  41  42
HETATM   42  O   UNL     1     -11.602  11.603  66.818  1.00  0.00    -0.503 OA 
HETATM   43  C   UNL     1     -11.670  12.408  67.987  1.00  0.00    -0.356 C  
ENDBRANCH  41  42
ENDBRANCH  40  41
ENDBRANCH  39  40
ENDBRANCH  38  39
ENDBRANCH  37  38
ENDBRANCH  36  37
ENDBRANCH  35  36
ENDBRANCH  34  35
ENDBRANCH  33  34
ENDBRANCH  32  33
ENDBRANCH  31  32
ENDBRANCH  30  31
ENDBRANCH  29  30
ENDBRANCH  28  29
ENDBRANCH  27  28
ENDBRANCH  26  27
ENDBRANCH  25  26
ENDBRANCH  24  25
ENDBRANCH  23  24
ENDBRANCH  22  23
ENDBRANCH  21  22
ENDBRANCH  20  21
ENDBRANCH  19  20
ENDBRANCH  18  19
ENDBRANCH  17  18
ENDBRANCH  16  17
ENDBRANCH  15  16
ENDBRANCH  13  15
ENDBRANCH  10  13
ENDBRANCH   5   7
ENDBRANCH   4   5
ENDBRANCH   3   4
ENDBRANCH   2   3
TORSDOF 33
ENDMDL
MODEL       24
REMARK 921   NORMALIZED FREE ENERGY PREDICTED BY IDOCK:   -4.28 KCAL/MOL
REMARK 922        TOTAL FREE ENERGY PREDICTED BY IDOCK:  -15.33 KCAL/MOL
REMARK 923 INTER-LIGAND FREE ENERGY PREDICTED BY IDOCK:  -12.64 KCAL/MOL
REMARK 924 INTRA-LIGAND FREE ENERGY PREDICTED BY IDOCK:   -2.69 KCAL/MOL
REMARK 927      BINDING AFFINITY PREDICTED BY RF-SCORE:    0.00 PKD
ROOT
HETATM    1  C   UNL     1      -7.840   2.450  65.213  1.00  0.00    -0.078 C  
HETATM    2  C   UNL     1      -7.957   3.179  63.888  1.00  0.00    -0.082 C  
ENDROOT
BRANCH   2   3
HETATM    3  C   UNL     1      -8.883   4.395  63.978  1.00  0.00    -0.142 C  
BRANCH   3   4
HETATM    4  C   UNL     1      -9.875   4.196  65.119  1.00  0.00    -0.205 C  
BRANCH   4   5
HETATM    5  N   UNL     1     -10.177   5.452  65.796  1.00  0.00    -0.420 NA 
HETATM    6  H   UNL     1     -10.271   6.323  65.274  1.00  0.00     0.000 HD 
BRANCH   5   7
HETATM    7  C   UNL     1     -10.333   5.422  67.191  1.00  0.00    -0.236 A  
HETATM    8  C   UNL     1     -10.995   6.428  67.909  1.00  0.00    -0.416 A  
HETATM    9  C   UNL     1     -11.066   6.405  69.301  1.00  0.00    -0.437 A  
HETATM   10  C   UNL     1     -10.444   5.386  70.025  1.00  0.00    -0.373 A  
HETATM   11  C   UNL     1      -9.696   4.413  67.928  1.00  0.00    -0.186 A  
HETATM   12  C   UNL     1      -9.752   4.386  69.332  1.00  0.00    -0.267 A  
BRANCH  10  13
HETATM   13  C   UNL     1     -10.536   5.450  71.506  1.00  0.00    -0.223 C  
HETATM   14  O   UNL     1     -11.587   5.629  72.104  1.00  0.00    -0.240 OA 
BRANCH  13  15
HETATM   15  O   UNL     1      -9.318   5.317  72.080  1.00  0.00    -0.136 OA 
BRANCH  15  16
HETATM   16  C   UNL     1      -8.514   6.511  72.064  1.00  0.00    -0.114 C  
BRANCH  16  17
HETATM   17  C   UNL     1      -9.115   7.597  72.956  1.00  0.00    -0.186 C  
BRANCH  17  18
HETATM   18  O   UNL     1      -8.870   8.879  72.368  1.00  0.00    -0.396 OA 
BRANCH  18  19
HETATM   19  C   UNL     1      -9.821   9.171  71.347  1.00  0.00    -0.284 C  
BRANCH  19  20
HETATM   20  C   UNL     1     -11.228   9.076  71.920  1.00  0.00    -0.368 C  
BRANCH  20  21
HETATM   21  O   UNL     1     -12.122   9.809  71.083  1.00  0.00    -0.319 OA 
BRANCH  21  22
HETATM   22  C   UNL     1     -13.120  10.479  71.848  1.00  0.00    -0.462 C  
BRANCH  22  23
HETATM   23  C   UNL     1     -13.025  11.978  71.590  1.00  0.00    -0.334 C  
BRANCH  23  24
HETATM   24  O   UNL     1     -13.789  12.671  72.574  1.00  0.00    -0.435 OA 
BRANCH  24  25
HETATM   25  C   UNL     1     -13.866  14.064  72.280  1.00  0.00    -0.557 C  
BRANCH  25  26
HETATM   26  C   UNL     1     -12.618  14.754  72.811  1.00  0.00    -0.366 C  
BRANCH  26  27
HETATM   27  O   UNL     1     -12.157  15.690  71.841  1.00  0.00    -0.346 OA 
BRANCH  27  28
HETATM   28  C   UNL     1     -12.870  15.555  70.614  1.00  0.00    -0.413 C  
BRANCH  28  29
HETATM   29  C   UNL     1     -11.874  15.502  69.465  1.00  0.00    -0.372 C  
BRANCH  29  30
HETATM   30  O   UNL     1     -11.885  14.192  68.906  1.00  0.00    -0.311 OA 
BRANCH  30  31
HETATM   31  C   UNL     1     -10.573  13.782  68.528  1.00  0.00    -0.253 C  
BRANCH  31  32
HETATM   32  C   UNL     1     -10.538  12.265  68.428  1.00  0.00    -0.235 C  
BRANCH  32  33
HETATM   33  O   UNL     1      -9.749  11.895  67.302  1.00  0.00    -0.182 OA 
BRANCH  33  34
HETATM   34  C   UNL     1      -9.564  10.484  67.246  1.00  0.00    -0.163 C  
BRANCH  34  35
HETATM   35  C   UNL     1      -9.619  10.036  65.793  1.00  0.00    -0.231 C  
BRANCH  35  36
HETATM   36  O   UNL     1     -10.845  10.480  65.217  1.00  0.00    -0.053 OA 
BRANCH  36  37
HETATM   37  C   UNL     1     -10.623  11.130  63.968  1.00  0.00    -0.368 C  
BRANCH  37  38
HETATM   38  C   UNL     1     -11.540  12.340  63.869  1.00  0.00    -0.444 C  
BRANCH  38  39
HETATM   39  O   UNL     1     -12.234  12.502  65.103  1.00  0.00    -0.447 OA 
BRANCH  39  40
HETATM   40  C   UNL     1     -12.404  13.882  65.424  1.00  0.00    -0.470 C  
BRANCH  40  41
HETATM   41  C   UNL     1     -11.440  14.710  64.585  1.00  0.00    -0.388 C  
BRANCH  41  42
HETATM   42  O   UNL     1     -10.860  15.728  65.397  1.00  0.00    -0.360 OA 
HETATM   43  C   UNL     1      -9.619  15.306  65.947  1.00  0.00    -0.342 C  
ENDBRANCH  41  42
ENDBRANCH  40  41
ENDBRANCH  39  40
ENDBRANCH  38  39
ENDBRANCH  37  38
ENDBRANCH  36  37
ENDBRANCH  35  36
ENDBRANCH  34  35
ENDBRANCH  33  34
ENDBRANCH  32  33
ENDBRANCH  31  32
ENDBRANCH  30  31
ENDBRANCH  29  30
ENDBRANCH  28  29
ENDBRANCH  27  28
ENDBRANCH  26  27
ENDBRANCH  25  26
ENDBRANCH  24  25
ENDBRANCH  23  24
ENDBRANCH  22  23
ENDBRANCH  21  22
ENDBRANCH  20  21
ENDBRANCH  19  20
ENDBRANCH  18  19
ENDBRANCH  17  18
ENDBRANCH  16  17
ENDBRANCH  15  16
ENDBRANCH  13  15
ENDBRANCH  10  13
ENDBRANCH   5   7
ENDBRANCH   4   5
ENDBRANCH   3   4
ENDBRANCH   2   3
TORSDOF 33
ENDMDL
MODEL       25
REMARK 921   NORMALIZED FREE ENERGY PREDICTED BY IDOCK:   -4.26 KCAL/MOL
REMARK 922        TOTAL FREE ENERGY PREDICTED BY IDOCK:  -15.28 KCAL/MOL
REMARK 923 INTER-LIGAND FREE ENERGY PREDICTED BY IDOCK:  -11.19 KCAL/MOL
REMARK 924 INTRA-LIGAND FREE ENERGY PREDICTED BY IDOCK:   -4.10 KCAL/MOL
REMARK 927      BINDING AFFINITY PREDICTED BY RF-SCORE:    0.00 PKD
ROOT
HETATM    1  C   UNL     1     -10.758   5.604  71.071  1.00  0.00    -0.304 C  
HETATM    2  C   UNL     1     -11.763   6.253  72.004  1.00  0.00    -0.374 C  
ENDROOT
BRANCH   2   3
HETATM    3  C   UNL     1     -12.692   7.222  71.269  1.00  0.00    -0.400 C  
BRANCH   3   4
HETATM    4  C   UNL     1     -12.357   8.654  71.673  1.00  0.00    -0.333 C  
BRANCH   4   5
HETATM    5  N   UNL     1     -11.900   9.443  70.535  1.00  0.00    -0.426 NA 
HETATM    6  H   UNL     1     -12.423  10.258  70.215  1.00  0.00     0.000 HD 
BRANCH   5   7
HETATM    7  C   UNL     1     -10.716   9.044  69.895  1.00  0.00    -0.229 A  
HETATM    8  C   UNL     1      -9.444   9.223  70.457  1.00  0.00    -0.317 A  
HETATM    9  C   UNL     1      -8.284   8.885  69.761  1.00  0.00    -0.119 A  
HETATM   10  C   UNL     1      -8.360   8.385  68.460  1.00  0.00    -0.131 A  
HETATM   11  C   UNL     1     -10.780   8.559  68.581  1.00  0.00    -0.082 A  
HETATM   12  C   UNL     1      -9.617   8.225  67.866  1.00  0.00    -0.176 A  
BRANCH  10  13
HETATM   13  C   UNL     1      -7.079   8.080  67.772  1.00  0.00    -0.086 C  
HETATM   14  O   UNL     1      -6.341   7.166  68.108  1.00  0.00    -0.040 OA 
BRANCH  13  15
HETATM   15  O   UNL     1      -6.839   8.956  66.770  1.00  0.00    -0.074 OA 
BRANCH  15  16
HETATM   16  C   UNL     1      -5.716   9.829  66.991  1.00  0.00    -0.050 C  
BRANCH  16  17
HETATM   17  C   UNL     1      -5.532  10.803  65.827  1.00  0.00    -0.135 C  
BRANCH  17  18
HETATM   18  O   UNL     1      -5.387  12.130  66.342  1.00  0.00    -0.276 OA 
BRANCH  18  19
HETATM   19  C   UNL     1      -5.521  12.153  67.762  1.00  0.00    -0.076 C  
BRANCH  19  20
HETATM   20  C   UNL     1      -6.186  13.454  68.189  1.00  0.00    -0.111 C  
BRANCH  20  21
HETATM   21  O   UNL     1      -7.368  13.151  68.929  1.00  0.00    -0.095 OA 
BRANCH  21  22
HETATM   22  C   UNL     1      -8.542  13.408  68.163  1.00  0.00    -0.174 C  
BRANCH  22  23
HETATM   23  C   UNL     1      -9.526  12.261  68.358  1.00  0.00    -0.175 C  
BRANCH  23  24
HETATM   24  O   UNL     1     -10.150  11.964  67.111  1.00  0.00    -0.202 OA 
BRANCH  24  25
HETATM   25  C   UNL     1      -9.181  11.746  66.088  1.00  0.00    -0.210 C  
BRANCH  25  26
HETATM   26  C   UNL     1      -9.606  10.551  65.247  1.00  0.00    -0.249 C  
BRANCH  26  27
HETATM   27  O   UNL     1     -10.845  10.849  64.611  1.00  0.00    -0.263 OA 
BRANCH  27  28
HETATM   28  C   UNL     1     -10.659  11.730  63.505  1.00  0.00    -0.440 C  
BRANCH  28  29
HETATM   29  C   UNL     1     -11.780  12.758  63.496  1.00  0.00    -0.530 C  
BRANCH  29  30
HETATM   30  O   UNL     1     -12.702  12.443  64.536  1.00  0.00    -0.594 OA 
BRANCH  30  31
HETATM   31  C   UNL     1     -12.843  13.532  65.445  1.00  0.00    -0.363 C  
BRANCH  31  32
HETATM   32  C   UNL     1     -12.066  14.725  64.911  1.00  0.00    -0.333 C  
BRANCH  32  33
HETATM   33  O   UNL     1     -11.189  15.198  65.930  1.00  0.00    -0.338 OA 
BRANCH  33  34
HETATM   34  C   UNL     1      -9.854  15.307  65.447  1.00  0.00    -0.283 C  
BRANCH  34  35
HETATM   35  C   UNL     1      -9.191  16.512  66.098  1.00  0.00    -0.303 C  
BRANCH  35  36
HETATM   36  O   UNL     1     -10.091  17.080  67.047  1.00  0.00    -0.279 OA 
BRANCH  36  37
HETATM   37  C   UNL     1      -9.553  17.023  68.366  1.00  0.00    -0.277 C  
BRANCH  37  38
HETATM   38  C   UNL     1     -10.696  16.879  69.361  1.00  0.00    -0.258 C  
BRANCH  38  39
HETATM   39  O   UNL     1     -11.081  15.509  69.434  1.00  0.00    -0.252 OA 
BRANCH  39  40
HETATM   40  C   UNL     1     -12.286  15.350  70.182  1.00  0.00    -0.375 C  
BRANCH  40  41
HETATM   41  C   UNL     1     -12.136  16.057  71.522  1.00  0.00    -0.452 C  
BRANCH  41  42
HETATM   42  O   UNL     1     -11.555  15.161  72.467  1.00  0.00    -0.421 OA 
HETATM   43  C   UNL     1     -12.196  15.256  73.732  1.00  0.00    -0.584 C  
ENDBRANCH  41  42
ENDBRANCH  40  41
ENDBRANCH  39  40
ENDBRANCH  38  39
ENDBRANCH  37  38
ENDBRANCH  36  37
ENDBRANCH  35  36
ENDBRANCH  34  35
ENDBRANCH  33  34
ENDBRANCH  32  33
ENDBRANCH  31  32
ENDBRANCH  30  31
ENDBRANCH  29  30
ENDBRANCH  28  29
ENDBRANCH  27  28
ENDBRANCH  26  27
ENDBRANCH  25  26
ENDBRANCH  24  25
ENDBRANCH  23  24
ENDBRANCH  22  23
ENDBRANCH  21  22
ENDBRANCH  20  21
ENDBRANCH  19  20
ENDBRANCH  18  19
ENDBRANCH  17  18
ENDBRANCH  16  17
ENDBRANCH  15  16
ENDBRANCH  13  15
ENDBRANCH  10  13
ENDBRANCH   5   7
ENDBRANCH   4   5
ENDBRANCH   3   4
ENDBRANCH   2   3
TORSDOF 33
ENDMDL
MODEL       26
REMARK 921   NORMALIZED FREE ENERGY PREDICTED BY IDOCK:   -4.26 KCAL/MOL
REMARK 922        TOTAL FREE ENERGY PREDICTED BY IDOCK:  -15.27 KCAL/MOL
REMARK 923 INTER-LIGAND FREE ENERGY PREDICTED BY IDOCK:  -12.29 KCAL/MOL
REMARK 924 INTRA-LIGAND FREE ENERGY PREDICTED BY IDOCK:   -2.98 KCAL/MOL
REMARK 927      BINDING AFFINITY PREDICTED BY RF-SCORE:    0.00 PKD
ROOT
HETATM    1  C   UNL     1      -7.154   6.597  68.190  1.00  0.00    -0.083 C  
HETATM    2  C   UNL     1      -7.313   7.933  68.889  1.00  0.00    -0.085 C  
ENDROOT
BRANCH   2   3
HETATM    3  C   UNL     1      -6.215   8.176  69.928  1.00  0.00    -0.032 C  
BRANCH   3   4
HETATM    4  C   UNL     1      -5.928   9.671  70.024  1.00  0.00    -0.043 C  
BRANCH   4   5
HETATM    5  N   UNL     1      -6.253  10.364  68.783  1.00  0.00    -0.047 NA 
HETATM    6  H   UNL     1      -6.176   9.894  67.881  1.00  0.00     0.000 HD 
BRANCH   5   7
HETATM    7  C   UNL     1      -6.675  11.701  68.871  1.00  0.00    -0.088 A  
HETATM    8  C   UNL     1      -7.844  12.175  68.261  1.00  0.00    -0.153 A  
HETATM    9  C   UNL     1      -8.194  13.524  68.304  1.00  0.00    -0.157 A  
HETATM   10  C   UNL     1      -7.362  14.452  68.934  1.00  0.00    -0.127 A  
HETATM   11  C   UNL     1      -5.837  12.643  69.485  1.00  0.00    -0.105 A  
HETATM   12  C   UNL     1      -6.174  14.006  69.524  1.00  0.00    -0.117 A  
BRANCH  10  13
HETATM   13  C   UNL     1      -7.787  15.874  68.908  1.00  0.00    -0.198 C  
HETATM   14  O   UNL     1      -8.808  16.277  69.445  1.00  0.00    -0.204 OA 
BRANCH  13  15
HETATM   15  O   UNL     1      -6.921  16.632  68.198  1.00  0.00    -0.145 OA 
BRANCH  15  16
HETATM   16  C   UNL     1      -6.363  17.744  68.922  1.00  0.00    -0.211 C  
BRANCH  16  17
HETATM   17  C   UNL     1      -6.841  19.078  68.348  1.00  0.00    -0.256 C  
BRANCH  17  18
HETATM   18  O   UNL     1      -8.052  19.467  69.004  1.00  0.00    -0.347 OA 
BRANCH  18  19
HETATM   19  C   UNL     1      -9.143  19.523  68.087  1.00  0.00    -0.339 C  
BRANCH  19  20
HETATM   20  C   UNL     1      -8.609  19.504  66.661  1.00  0.00    -0.340 C  
BRANCH  20  21
HETATM   21  O   UNL     1      -8.973  18.269  66.046  1.00  0.00    -0.500 OA 
BRANCH  21  22
HETATM   22  C   UNL     1     -10.241  17.811  66.507  1.00  0.00    -0.358 C  
BRANCH  22  23
HETATM   23  C   UNL     1     -10.344  16.309  66.276  1.00  0.00    -0.326 C  
BRANCH  23  24
HETATM   24  O   UNL     1     -10.325  16.050  64.873  1.00  0.00    -0.543 OA 
BRANCH  24  25
HETATM   25  C   UNL     1     -11.646  15.896  64.359  1.00  0.00    -0.234 C  
BRANCH  25  26
HETATM   26  C   UNL     1     -12.111  14.468  64.603  1.00  0.00    -0.473 C  
BRANCH  26  27
HETATM   27  O   UNL     1     -12.377  13.846  63.349  1.00  0.00    -0.760 OA 
BRANCH  27  28
HETATM   28  C   UNL     1     -12.032  12.463  63.376  1.00  0.00    -0.504 C  
BRANCH  28  29
HETATM   29  C   UNL     1     -10.991  12.233  64.461  1.00  0.00    -0.315 C  
BRANCH  29  30
HETATM   30  O   UNL     1     -10.587  10.867  64.430  1.00  0.00    -0.360 OA 
BRANCH  30  31
HETATM   31  C   UNL     1     -10.216  10.411  65.729  1.00  0.00    -0.235 C  
BRANCH  31  32
HETATM   32  C   UNL     1     -10.912  11.270  66.773  1.00  0.00    -0.281 C  
BRANCH  32  33
HETATM   33  O   UNL     1     -11.168  10.476  67.927  1.00  0.00    -0.296 OA 
BRANCH  33  34
HETATM   34  C   UNL     1     -11.434  11.294  69.063  1.00  0.00    -0.302 C  
BRANCH  34  35
HETATM   35  C   UNL     1     -11.657  10.400  70.274  1.00  0.00    -0.327 C  
BRANCH  35  36
HETATM   36  O   UNL     1     -13.052  10.349  70.562  1.00  0.00    -0.328 OA 
BRANCH  36  37
HETATM   37  C   UNL     1     -13.334  10.904  71.844  1.00  0.00    -0.324 C  
BRANCH  37  38
HETATM   38  C   UNL     1     -12.955  12.378  71.840  1.00  0.00    -0.302 C  
BRANCH  38  39
HETATM   39  O   UNL     1     -13.950  13.117  72.544  1.00  0.00    -0.676 OA 
BRANCH  39  40
HETATM   40  C   UNL     1     -13.941  14.492  72.159  1.00  0.00    -0.501 C  
BRANCH  40  41
HETATM   41  C   UNL     1     -12.848  14.711  71.122  1.00  0.00    -0.343 C  
BRANCH  41  42
HETATM   42  O   UNL     1     -12.255  15.992  71.324  1.00  0.00    -0.423 OA 
HETATM   43  C   UNL     1     -11.865  16.174  72.678  1.00  0.00    -0.506 C  
ENDBRANCH  41  42
ENDBRANCH  40  41
ENDBRANCH  39  40
ENDBRANCH  38  39
ENDBRANCH  37  38
ENDBRANCH  36  37
ENDBRANCH  35  36
ENDBRANCH  34  35
ENDBRANCH  33  34
ENDBRANCH  32  33
ENDBRANCH  31  32
ENDBRANCH  30  31
ENDBRANCH  29  30
ENDBRANCH  28  29
ENDBRANCH  27  28
ENDBRANCH  26  27
ENDBRANCH  25  26
ENDBRANCH  24  25
ENDBRANCH  23  24
ENDBRANCH  22  23
ENDBRANCH  21  22
ENDBRANCH  20  21
ENDBRANCH  19  20
ENDBRANCH  18  19
ENDBRANCH  17  18
ENDBRANCH  16  17
ENDBRANCH  15  16
ENDBRANCH  13  15
ENDBRANCH  10  13
ENDBRANCH   5   7
ENDBRANCH   4   5
ENDBRANCH   3   4
ENDBRANCH   2   3
TORSDOF 33
ENDMDL
MODEL       27
REMARK 921   NORMALIZED FREE ENERGY PREDICTED BY IDOCK:   -4.26 KCAL/MOL
REMARK 922        TOTAL FREE ENERGY PREDICTED BY IDOCK:  -15.27 KCAL/MOL
REMARK 923 INTER-LIGAND FREE ENERGY PREDICTED BY IDOCK:  -12.27 KCAL/MOL
REMARK 924 INTRA-LIGAND FREE ENERGY PREDICTED BY IDOCK:   -3.00 KCAL/MOL
REMARK 927      BINDING AFFINITY PREDICTED BY RF-SCORE:    0.00 PKD
ROOT
HETATM    1  C   UNL     1      -6.154   1.904  66.602  1.00  0.00    -0.023 C  
HETATM    2  C   UNL     1      -7.230   2.325  65.620  1.00  0.00    -0.065 C  
ENDROOT
BRANCH   2   3
HETATM    3  C   UNL     1      -7.291   3.845  65.446  1.00  0.00    -0.072 C  
BRANCH   3   4
HETATM    4  C   UNL     1      -8.723   4.264  65.130  1.00  0.00    -0.126 C  
BRANCH   4   5
HETATM    5  N   UNL     1      -9.672   3.699  66.082  1.00  0.00    -0.380 NA 
HETATM    6  H   UNL     1     -10.124   2.802  65.907  1.00  0.00     0.000 HD 
BRANCH   5   7
HETATM    7  C   UNL     1      -9.944   4.432  67.250  1.00  0.00    -0.115 A  
HETATM    8  C   UNL     1      -9.585   3.991  68.530  1.00  0.00    -0.184 A  
HETATM    9  C   UNL     1      -9.938   4.706  69.674  1.00  0.00    -0.281 A  
HETATM   10  C   UNL     1     -10.694   5.875  69.573  1.00  0.00    -0.414 A  
HETATM   11  C   UNL     1     -10.719   5.597  67.159  1.00  0.00    -0.316 A  
HETATM   12  C   UNL     1     -11.090   6.320  68.306  1.00  0.00    -0.364 A  
BRANCH  10  13
HETATM   13  C   UNL     1     -11.059   6.562  70.838  1.00  0.00    -0.292 C  
HETATM   14  O   UNL     1     -10.535   6.306  71.913  1.00  0.00    -0.202 OA 
BRANCH  13  15
HETATM   15  O   UNL     1     -12.047   7.463  70.641  1.00  0.00    -0.240 OA 
BRANCH  15  16
HETATM   16  C   UNL     1     -13.138   7.372  71.576  1.00  0.00    -0.374 C  
BRANCH  16  17
HETATM   17  C   UNL     1     -13.549   8.753  72.087  1.00  0.00    -0.435 C  
BRANCH  17  18
HETATM   18  O   UNL     1     -12.462   9.665  71.906  1.00  0.00    -0.376 OA 
BRANCH  18  19
HETATM   19  C   UNL     1     -12.924  10.942  71.470  1.00  0.00    -0.451 C  
BRANCH  19  20
HETATM   20  C   UNL     1     -12.038  11.444  70.338  1.00  0.00    -0.384 C  
BRANCH  20  21
HETATM   21  O   UNL     1     -12.362  10.734  69.144  1.00  0.00    -0.400 OA 
BRANCH  21  22
HETATM   22  C   UNL     1     -11.188  10.325  68.446  1.00  0.00    -0.224 C  
BRANCH  22  23
HETATM   23  C   UNL     1      -9.970  10.579  69.326  1.00  0.00    -0.213 C  
BRANCH  23  24
HETATM   24  O   UNL     1      -8.789  10.269  68.589  1.00  0.00    -0.124 OA 
BRANCH  24  25
HETATM   25  C   UNL     1      -8.832   8.938  68.080  1.00  0.00    -0.134 C  
BRANCH  25  26
HETATM   26  C   UNL     1      -8.057   8.880  66.771  1.00  0.00    -0.111 C  
BRANCH  26  27
HETATM   27  O   UNL     1      -8.285  10.085  66.045  1.00  0.00    -0.120 OA 
BRANCH  27  28
HETATM   28  C   UNL     1      -7.722  10.012  64.737  1.00  0.00    -0.142 C  
BRANCH  28  29
HETATM   29  C   UNL     1      -8.846  10.028  63.712  1.00  0.00    -0.231 C  
BRANCH  29  30
HETATM   30  O   UNL     1      -9.983  10.667  64.285  1.00  0.00    -0.308 OA 
BRANCH  30  31
HETATM   31  C   UNL     1     -10.476  11.699  63.436  1.00  0.00    -0.426 C  
BRANCH  31  32
HETATM   32  C   UNL     1     -11.891  12.058  63.862  1.00  0.00    -0.448 C  
BRANCH  32  33
HETATM   33  O   UNL     1     -11.871  12.474  65.224  1.00  0.00    -0.374 OA 
BRANCH  33  34
HETATM   34  C   UNL     1     -12.444  13.770  65.372  1.00  0.00    -0.500 C  
BRANCH  34  35
HETATM   35  C   UNL     1     -12.151  14.282  66.775  1.00  0.00    -0.417 C  
BRANCH  35  36
HETATM   36  O   UNL     1     -11.239  13.390  67.412  1.00  0.00    -0.270 OA 
BRANCH  36  37
HETATM   37  C   UNL     1     -10.466  14.063  68.402  1.00  0.00    -0.253 C  
BRANCH  37  38
HETATM   38  C   UNL     1     -11.317  15.153  69.038  1.00  0.00    -0.294 C  
BRANCH  38  39
HETATM   39  O   UNL     1     -11.361  14.947  70.448  1.00  0.00    -0.254 OA 
BRANCH  39  40
HETATM   40  C   UNL     1     -12.256  15.863  71.076  1.00  0.00    -0.375 C  
BRANCH  40  41
HETATM   41  C   UNL     1     -13.430  15.090  71.662  1.00  0.00    -0.414 C  
BRANCH  41  42
HETATM   42  O   UNL     1     -13.633  15.493  73.015  1.00  0.00    -0.518 OA 
HETATM   43  C   UNL     1     -12.440  15.367  73.776  1.00  0.00    -0.620 C  
ENDBRANCH  41  42
ENDBRANCH  40  41
ENDBRANCH  39  40
ENDBRANCH  38  39
ENDBRANCH  37  38
ENDBRANCH  36  37
ENDBRANCH  35  36
ENDBRANCH  34  35
ENDBRANCH  33  34
ENDBRANCH  32  33
ENDBRANCH  31  32
ENDBRANCH  30  31
ENDBRANCH  29  30
ENDBRANCH  28  29
ENDBRANCH  27  28
ENDBRANCH  26  27
ENDBRANCH  25  26
ENDBRANCH  24  25
ENDBRANCH  23  24
ENDBRANCH  22  23
ENDBRANCH  21  22
ENDBRANCH  20  21
ENDBRANCH  19  20
ENDBRANCH  18  19
ENDBRANCH  17  18
ENDBRANCH  16  17
ENDBRANCH  15  16
ENDBRANCH  13  15
ENDBRANCH  10  13
ENDBRANCH   5   7
ENDBRANCH   4   5
ENDBRANCH   3   4
ENDBRANCH   2   3
TORSDOF 33
ENDMDL
MODEL       28
REMARK 921   NORMALIZED FREE ENERGY PREDICTED BY IDOCK:   -4.25 KCAL/MOL
REMARK 922        TOTAL FREE ENERGY PREDICTED BY IDOCK:  -15.26 KCAL/MOL
REMARK 923 INTER-LIGAND FREE ENERGY PREDICTED BY IDOCK:  -12.26 KCAL/MOL
REMARK 924 INTRA-LIGAND FREE ENERGY PREDICTED BY IDOCK:   -3.00 KCAL/MOL
REMARK 927      BINDING AFFINITY PREDICTED BY RF-SCORE:    0.00 PKD
ROOT
HETATM    1  C   UNL     1      -9.429   4.112  63.535  1.00  0.00    -0.139 C  
HETATM    2  C   UNL     1     -10.228   3.621  64.727  1.00  0.00    -0.103 C  
ENDROOT
BRANCH   2   3
HETATM    3  C   UNL     1      -9.631   4.091  66.056  1.00  0.00    -0.200 C  
BRANCH   3   4
HETATM    4  C   UNL     1     -10.190   5.465  66.408  1.00  0.00    -0.226 C  
BRANCH   4   5
HETATM    5  N   UNL     1      -9.291   6.536  65.994  1.00  0.00    -0.355 NA 
HETATM    6  H   UNL     1      -8.445   6.337  65.460  1.00  0.00     0.000 HD 
BRANCH   5   7
HETATM    7  C   UNL     1      -9.628   7.851  66.355  1.00  0.00    -0.181 A  
HETATM    8  C   UNL     1     -10.466   8.157  67.435  1.00  0.00    -0.356 A  
HETATM    9  C   UNL     1     -10.842   9.469  67.719  1.00  0.00    -0.258 A  
HETATM   10  C   UNL     1     -10.415  10.520  66.905  1.00  0.00    -0.303 A  
HETATM   11  C   UNL     1      -9.219   8.911  65.533  1.00  0.00    -0.242 A  
HETATM   12  C   UNL     1      -9.600  10.236  65.803  1.00  0.00    -0.279 A  
BRANCH  10  13
HETATM   13  C   UNL     1     -10.885  11.885  67.253  1.00  0.00    -0.247 C  
HETATM   14  O   UNL     1     -10.224  12.671  67.918  1.00  0.00    -0.209 OA 
BRANCH  13  15
HETATM   15  O   UNL     1     -12.126  12.115  66.769  1.00  0.00    -0.609 OA 
BRANCH  15  16
HETATM   16  C   UNL     1     -12.168  12.502  65.383  1.00  0.00    -0.412 C  
BRANCH  16  17
HETATM   17  C   UNL     1     -12.747  13.907  65.216  1.00  0.00    -0.449 C  
BRANCH  17  18
HETATM   18  O   UNL     1     -11.875  14.854  65.841  1.00  0.00    -0.256 OA 
BRANCH  18  19
HETATM   19  C   UNL     1     -10.758  15.159  65.009  1.00  0.00    -0.430 C  
BRANCH  19  20
HETATM   20  C   UNL     1      -9.578  15.580  65.874  1.00  0.00    -0.348 C  
BRANCH  20  21
HETATM   21  O   UNL     1      -9.513  17.004  65.909  1.00  0.00    -0.492 OA 
BRANCH  21  22
HETATM   22  C   UNL     1     -10.250  17.533  67.009  1.00  0.00    -0.327 C  
BRANCH  22  23
HETATM   23  C   UNL     1     -10.042  16.639  68.225  1.00  0.00    -0.268 C  
BRANCH  23  24
HETATM   24  O   UNL     1     -11.302  16.394  68.846  1.00  0.00    -0.332 OA 
BRANCH  24  25
HETATM   25  C   UNL     1     -11.159  15.560  69.994  1.00  0.00    -0.315 C  
BRANCH  25  26
HETATM   26  C   UNL     1     -12.378  15.731  70.888  1.00  0.00    -0.404 C  
BRANCH  26  27
HETATM   27  O   UNL     1     -11.991  15.528  72.244  1.00  0.00    -0.366 OA 
BRANCH  27  28
HETATM   28  C   UNL     1     -13.077  15.031  73.022  1.00  0.00    -0.504 C  
BRANCH  28  29
HETATM   29  C   UNL     1     -13.935  14.125  72.152  1.00  0.00    -0.531 C  
BRANCH  29  30
HETATM   30  O   UNL     1     -13.615  12.767  72.443  1.00  0.00    -0.565 OA 
BRANCH  30  31
HETATM   31  C   UNL     1     -12.933  12.154  71.352  1.00  0.00    -0.257 C  
BRANCH  31  32
HETATM   32  C   UNL     1     -13.000  10.643  71.514  1.00  0.00    -0.461 C  
BRANCH  32  33
HETATM   33  O   UNL     1     -11.678  10.115  71.466  1.00  0.00    -0.343 OA 
BRANCH  33  34
HETATM   34  C   UNL     1     -11.689   8.694  71.568  1.00  0.00    -0.305 C  
BRANCH  34  35
HETATM   35  C   UNL     1     -10.591   8.260  72.529  1.00  0.00    -0.337 C  
BRANCH  35  36
HETATM   36  O   UNL     1      -9.566   7.599  71.792  1.00  0.00    -0.147 OA 
BRANCH  36  37
HETATM   37  C   UNL     1      -8.632   8.532  71.256  1.00  0.00    -0.176 C  
BRANCH  37  38
HETATM   38  C   UNL     1      -7.956   7.914  70.041  1.00  0.00    -0.111 C  
BRANCH  38  39
HETATM   39  O   UNL     1      -6.796   8.675  69.714  1.00  0.00    -0.041 OA 
BRANCH  39  40
HETATM   40  C   UNL     1      -6.966   9.371  68.480  1.00  0.00    -0.066 C  
BRANCH  40  41
HETATM   41  C   UNL     1      -7.207  10.846  68.771  1.00  0.00    -0.091 C  
BRANCH  41  42
HETATM   42  O   UNL     1      -7.071  11.594  67.564  1.00  0.00    -0.094 OA 
HETATM   43  C   UNL     1      -5.727  12.013  67.365  1.00  0.00    -0.123 C  
ENDBRANCH  41  42
ENDBRANCH  40  41
ENDBRANCH  39  40
ENDBRANCH  38  39
ENDBRANCH  37  38
ENDBRANCH  36  37
ENDBRANCH  35  36
ENDBRANCH  34  35
ENDBRANCH  33  34
ENDBRANCH  32  33
ENDBRANCH  31  32
ENDBRANCH  30  31
ENDBRANCH  29  30
ENDBRANCH  28  29
ENDBRANCH  27  28
ENDBRANCH  26  27
ENDBRANCH  25  26
ENDBRANCH  24  25
ENDBRANCH  23  24
ENDBRANCH  22  23
ENDBRANCH  21  22
ENDBRANCH  20  21
ENDBRANCH  19  20
ENDBRANCH  18  19
ENDBRANCH  17  18
ENDBRANCH  16  17
ENDBRANCH  15  16
ENDBRANCH  13  15
ENDBRANCH  10  13
ENDBRANCH   5   7
ENDBRANCH   4   5
ENDBRANCH   3   4
ENDBRANCH   2   3
TORSDOF 33
ENDMDL
MODEL       29
REMARK 921   NORMALIZED FREE ENERGY PREDICTED BY IDOCK:   -4.25 KCAL/MOL
REMARK 922        TOTAL FREE ENERGY PREDICTED BY IDOCK:  -15.25 KCAL/MOL
REMARK 923 INTER-LIGAND FREE ENERGY PREDICTED BY IDOCK:  -12.86 KCAL/MOL
REMARK 924 INTRA-LIGAND FREE ENERGY PREDICTED BY IDOCK:   -2.39 KCAL/MOL
REMARK 927      BINDING AFFINITY PREDICTED BY RF-SCORE:    0.00 PKD
ROOT
HETATM    1  C   UNL     1     -11.011   7.773  72.895  1.00  0.00    -0.467 C  
HETATM    2  C   UNL     1     -11.291   6.337  72.494  1.00  0.00    -0.313 C  
ENDROOT
BRANCH   2   3
HETATM    3  C   UNL     1     -10.052   5.448  72.627  1.00  0.00    -0.211 C  
BRANCH   3   4
HETATM    4  C   UNL     1      -9.682   4.882  71.261  1.00  0.00    -0.177 C  
BRANCH   4   5
HETATM    5  N   UNL     1     -10.650   5.265  70.239  1.00  0.00    -0.260 NA 
HETATM    6  H   UNL     1     -11.627   4.982  70.306  1.00  0.00     0.000 HD 
BRANCH   5   7
HETATM    7  C   UNL     1     -10.191   6.036  69.159  1.00  0.00    -0.204 A  
HETATM    8  C   UNL     1     -11.006   6.404  68.080  1.00  0.00    -0.400 A  
HETATM    9  C   UNL     1     -10.498   7.106  66.987  1.00  0.00    -0.392 A  
HETATM   10  C   UNL     1      -9.142   7.434  66.925  1.00  0.00    -0.164 A  
HETATM   11  C   UNL     1      -8.827   6.354  69.078  1.00  0.00    -0.129 A  
HETATM   12  C   UNL     1      -8.302   7.052  67.977  1.00  0.00    -0.119 A  
BRANCH  10  13
HETATM   13  C   UNL     1      -8.671   8.152  65.713  1.00  0.00    -0.154 C  
HETATM   14  O   UNL     1      -7.621   7.888  65.145  1.00  0.00    -0.081 OA 
BRANCH  13  15
HETATM   15  O   UNL     1      -9.531   9.133  65.358  1.00  0.00    -0.241 OA 
BRANCH  15  16
HETATM   16  C   UNL     1      -8.912  10.287  64.759  1.00  0.00    -0.203 C  
BRANCH  16  17
HETATM   17  C   UNL     1      -9.822  11.512  64.843  1.00  0.00    -0.252 C  
BRANCH  17  18
HETATM   18  O   UNL     1     -10.136  11.958  63.519  1.00  0.00    -0.386 OA 
BRANCH  18  19
HETATM   19  C   UNL     1     -11.544  12.091  63.338  1.00  0.00    -0.403 C  
BRANCH  19  20
HETATM   20  C   UNL     1     -12.236  12.066  64.694  1.00  0.00    -0.205 C  
BRANCH  20  21
HETATM   21  O   UNL     1     -13.121  13.182  64.784  1.00  0.00    -0.728 OA 
BRANCH  21  22
HETATM   22  C   UNL     1     -12.477  14.391  64.388  1.00  0.00    -0.312 C  
BRANCH  22  23
HETATM   23  C   UNL     1     -11.598  14.886  65.529  1.00  0.00    -0.263 C  
BRANCH  23  24
HETATM   24  O   UNL     1     -10.260  15.032  65.059  1.00  0.00    -0.373 OA 
BRANCH  24  25
HETATM   25  C   UNL     1      -9.588  16.092  65.736  1.00  0.00    -0.257 C  
BRANCH  25  26
HETATM   26  C   UNL     1     -10.607  17.147  66.142  1.00  0.00    -0.201 C  
BRANCH  26  27
HETATM   27  O   UNL     1     -10.201  18.410  65.620  1.00  0.00    -0.565 OA 
BRANCH  27  28
HETATM   28  C   UNL     1     -10.781  19.483  66.357  1.00  0.00    -0.427 C  
BRANCH  28  29
HETATM   29  C   UNL     1      -9.669  20.325  66.964  1.00  0.00    -0.458 C  
BRANCH  29  30
HETATM   30  O   UNL     1      -8.414  19.841  66.493  1.00  0.00    -0.315 OA 
BRANCH  30  31
HETATM   31  C   UNL     1      -7.436  19.854  67.529  1.00  0.00    -0.279 C  
BRANCH  31  32
HETATM   32  C   UNL     1      -7.936  19.011  68.692  1.00  0.00    -0.352 C  
BRANCH  32  33
HETATM   33  O   UNL     1      -7.979  17.646  68.288  1.00  0.00    -0.252 OA 
BRANCH  33  34
HETATM   34  C   UNL     1      -7.213  16.827  69.167  1.00  0.00    -0.214 C  
BRANCH  34  35
HETATM   35  C   UNL     1      -8.014  15.576  69.499  1.00  0.00    -0.192 C  
BRANCH  35  36
HETATM   36  O   UNL     1      -9.398  15.841  69.283  1.00  0.00    -0.232 OA 
BRANCH  36  37
HETATM   37  C   UNL     1     -10.147  14.632  69.193  1.00  0.00    -0.172 C  
BRANCH  37  38
HETATM   38  C   UNL     1     -11.616  14.974  68.987  1.00  0.00    -0.319 C  
BRANCH  38  39
HETATM   39  O   UNL     1     -12.081  15.726  70.105  1.00  0.00    -0.365 OA 
BRANCH  39  40
HETATM   40  C   UNL     1     -12.558  14.869  71.142  1.00  0.00    -0.335 C  
BRANCH  40  41
HETATM   41  C   UNL     1     -13.350  15.697  72.145  1.00  0.00    -0.460 C  
BRANCH  41  42
HETATM   42  O   UNL     1     -12.485  16.118  73.198  1.00  0.00    -0.458 OA 
HETATM   43  C   UNL     1     -12.361  15.116  74.198  1.00  0.00    -0.569 C  
ENDBRANCH  41  42
ENDBRANCH  40  41
ENDBRANCH  39  40
ENDBRANCH  38  39
ENDBRANCH  37  38
ENDBRANCH  36  37
ENDBRANCH  35  36
ENDBRANCH  34  35
ENDBRANCH  33  34
ENDBRANCH  32  33
ENDBRANCH  31  32
ENDBRANCH  30  31
ENDBRANCH  29  30
ENDBRANCH  28  29
ENDBRANCH  27  28
ENDBRANCH  26  27
ENDBRANCH  25  26
ENDBRANCH  24  25
ENDBRANCH  23  24
ENDBRANCH  22  23
ENDBRANCH  21  22
ENDBRANCH  20  21
ENDBRANCH  19  20
ENDBRANCH  18  19
ENDBRANCH  17  18
ENDBRANCH  16  17
ENDBRANCH  15  16
ENDBRANCH  13  15
ENDBRANCH  10  13
ENDBRANCH   5   7
ENDBRANCH   4   5
ENDBRANCH   3   4
ENDBRANCH   2   3
TORSDOF 33
ENDMDL
MODEL       30
REMARK 921   NORMALIZED FREE ENERGY PREDICTED BY IDOCK:   -4.24 KCAL/MOL
REMARK 922        TOTAL FREE ENERGY PREDICTED BY IDOCK:  -15.21 KCAL/MOL
REMARK 923 INTER-LIGAND FREE ENERGY PREDICTED BY IDOCK:  -11.99 KCAL/MOL
REMARK 924 INTRA-LIGAND FREE ENERGY PREDICTED BY IDOCK:   -3.22 KCAL/MOL
REMARK 927      BINDING AFFINITY PREDICTED BY RF-SCORE:    0.00 PKD
ROOT
HETATM    1  C   UNL     1      -9.562   8.291  66.509  1.00  0.00    -0.312 C  
HETATM    2  C   UNL     1      -8.841   9.550  66.950  1.00  0.00    -0.140 C  
ENDROOT
BRANCH   2   3
HETATM    3  C   UNL     1      -7.326   9.448  66.755  1.00  0.00    -0.086 C  
BRANCH   3   4
HETATM    4  C   UNL     1      -6.622  10.365  67.749  1.00  0.00    -0.065 C  
BRANCH   4   5
HETATM    5  N   UNL     1      -6.129  11.578  67.108  1.00  0.00    -0.099 NA 
HETATM    6  H   UNL     1      -5.431  11.536  66.366  1.00  0.00     0.000 HD 
BRANCH   5   7
HETATM    7  C   UNL     1      -6.648  12.808  67.546  1.00  0.00    -0.158 A  
HETATM    8  C   UNL     1      -8.022  13.063  67.654  1.00  0.00    -0.169 A  
HETATM    9  C   UNL     1      -8.504  14.320  68.019  1.00  0.00    -0.164 A  
HETATM   10  C   UNL     1      -7.621  15.375  68.257  1.00  0.00    -0.115 A  
HETATM   11  C   UNL     1      -5.770  13.879  67.769  1.00  0.00    -0.079 A  
HETATM   12  C   UNL     1      -6.246  15.151  68.127  1.00  0.00    -0.140 A  
BRANCH  10  13
HETATM   13  C   UNL     1      -8.213  16.691  68.609  1.00  0.00    -0.245 C  
HETATM   14  O   UNL     1      -9.256  16.809  69.236  1.00  0.00    -0.188 OA 
BRANCH  13  15
HETATM   15  O   UNL     1      -7.469  17.710  68.121  1.00  0.00    -0.215 OA 
BRANCH  15  16
HETATM   16  C   UNL     1      -7.863  19.015  68.584  1.00  0.00    -0.348 C  
BRANCH  16  17
HETATM   17  C   UNL     1      -8.506  19.831  67.464  1.00  0.00    -0.322 C  
BRANCH  17  18
HETATM   18  O   UNL     1      -9.861  20.129  67.815  1.00  0.00    -0.380 OA 
BRANCH  18  19
HETATM   19  C   UNL     1     -10.769  19.218  67.200  1.00  0.00    -0.480 C  
BRANCH  19  20
HETATM   20  C   UNL     1     -10.711  19.387  65.688  1.00  0.00    -0.286 C  
BRANCH  20  21
HETATM   21  O   UNL     1     -10.892  18.113  65.071  1.00  0.00    -0.707 OA 
BRANCH  21  22
HETATM   22  C   UNL     1     -10.404  17.060  65.898  1.00  0.00    -0.298 C  
BRANCH  22  23
HETATM   23  C   UNL     1     -10.521  15.740  65.147  1.00  0.00    -0.366 C  
BRANCH  23  24
HETATM   24  O   UNL     1     -11.667  15.785  64.299  1.00  0.00    -0.400 OA 
BRANCH  24  25
HETATM   25  C   UNL     1     -12.267  14.497  64.174  1.00  0.00    -0.342 C  
BRANCH  25  26
HETATM   26  C   UNL     1     -12.635  13.983  65.558  1.00  0.00    -0.516 C  
BRANCH  26  27
HETATM   27  O   UNL     1     -12.497  12.565  65.578  1.00  0.00    -0.646 OA 
BRANCH  27  28
HETATM   28  C   UNL     1     -11.409  12.164  66.406  1.00  0.00    -0.356 C  
BRANCH  28  29
HETATM   29  C   UNL     1     -11.773  12.420  67.861  1.00  0.00    -0.360 C  
BRANCH  29  30
HETATM   30  O   UNL     1     -12.056  11.175  68.492  1.00  0.00    -0.586 OA 
BRANCH  30  31
HETATM   31  C   UNL     1     -11.565  11.152  69.830  1.00  0.00    -0.334 C  
BRANCH  31  32
HETATM   32  C   UNL     1     -12.714  10.827  70.773  1.00  0.00    -0.360 C  
BRANCH  32  33
HETATM   33  O   UNL     1     -12.243   9.946  71.787  1.00  0.00    -0.389 OA 
BRANCH  33  34
HETATM   34  C   UNL     1     -13.272   9.057  72.214  1.00  0.00    -0.460 C  
BRANCH  34  35
HETATM   35  C   UNL     1     -12.976   7.666  71.674  1.00  0.00    -0.350 C  
BRANCH  35  36
HETATM   36  O   UNL     1     -11.564   7.474  71.633  1.00  0.00    -0.254 OA 
BRANCH  36  37
HETATM   37  C   UNL     1     -11.071   7.007  72.886  1.00  0.00    -0.278 C  
BRANCH  37  38
HETATM   38  C   UNL     1      -9.809   7.781  73.240  1.00  0.00    -0.299 C  
BRANCH  38  39
HETATM   39  O   UNL     1      -9.348   8.477  72.084  1.00  0.00    -0.239 OA 
BRANCH  39  40
HETATM   40  C   UNL     1      -8.132   7.915  71.593  1.00  0.00    -0.106 C  
BRANCH  40  41
HETATM   41  C   UNL     1      -8.371   7.354  70.198  1.00  0.00    -0.136 C  
BRANCH  41  42
HETATM   42  O   UNL     1      -8.338   5.929  70.249  1.00  0.00    -0.118 OA 
HETATM   43  C   UNL     1      -8.326   5.365  68.945  1.00  0.00    -0.100 C  
ENDBRANCH  41  42
ENDBRANCH  40  41
ENDBRANCH  39  40
ENDBRANCH  38  39
ENDBRANCH  37  38
ENDBRANCH  36  37
ENDBRANCH  35  36
ENDBRANCH  34  35
ENDBRANCH  33  34
ENDBRANCH  32  33
ENDBRANCH  31  32
ENDBRANCH  30  31
ENDBRANCH  29  30
ENDBRANCH  28  29
ENDBRANCH  27  28
ENDBRANCH  26  27
ENDBRANCH  25  26
ENDBRANCH  24  25
ENDBRANCH  23  24
ENDBRANCH  22  23
ENDBRANCH  21  22
ENDBRANCH  20  21
ENDBRANCH  19  20
ENDBRANCH  18  19
ENDBRANCH  17  18
ENDBRANCH  16  17
ENDBRANCH  15  16
ENDBRANCH  13  15
ENDBRANCH  10  13
ENDBRANCH   5   7
ENDBRANCH   4   5
ENDBRANCH   3   4
ENDBRANCH   2   3
TORSDOF 33
ENDMDL
MODEL       31
REMARK 921   NORMALIZED FREE ENERGY PREDICTED BY IDOCK:   -4.24 KCAL/MOL
REMARK 922        TOTAL FREE ENERGY PREDICTED BY IDOCK:  -15.21 KCAL/MOL
REMARK 923 INTER-LIGAND FREE ENERGY PREDICTED BY IDOCK:  -12.37 KCAL/MOL
REMARK 924 INTRA-LIGAND FREE ENERGY PREDICTED BY IDOCK:   -2.84 KCAL/MOL
REMARK 927      BINDING AFFINITY PREDICTED BY RF-SCORE:    0.00 PKD
ROOT
HETATM    1  C   UNL     1     -12.165  12.588  63.660  1.00  0.00    -0.642 C  
HETATM    2  C   UNL     1     -11.110  11.511  63.490  1.00  0.00    -0.434 C  
ENDROOT
BRANCH   2   3
HETATM    3  C   UNL     1     -10.463  11.121  64.822  1.00  0.00    -0.388 C  
BRANCH   3   4
HETATM    4  C   UNL     1     -10.970  12.045  65.924  1.00  0.00    -0.298 C  
BRANCH   4   5
HETATM    5  N   UNL     1      -9.903  12.426  66.842  1.00  0.00    -0.211 NA 
HETATM    6  H   UNL     1      -9.581  11.788  67.570  1.00  0.00     0.000 HD 
BRANCH   5   7
HETATM    7  C   UNL     1      -9.332  13.700  66.689  1.00  0.00    -0.254 A  
HETATM    8  C   UNL     1      -8.194  14.118  67.392  1.00  0.00    -0.207 A  
HETATM    9  C   UNL     1      -7.699  15.416  67.273  1.00  0.00    -0.245 A  
HETATM   10  C   UNL     1      -8.351  16.352  66.468  1.00  0.00    -0.337 A  
HETATM   11  C   UNL     1      -9.990  14.652  65.897  1.00  0.00    -0.352 A  
HETATM   12  C   UNL     1      -9.506  15.966  65.779  1.00  0.00    -0.316 A  
BRANCH  10  13
HETATM   13  C   UNL     1      -7.782  17.723  66.420  1.00  0.00    -0.283 C  
HETATM   14  O   UNL     1      -7.196  18.170  65.445  1.00  0.00    -0.529 OA 
BRANCH  13  15
HETATM   15  O   UNL     1      -7.972  18.375  67.589  1.00  0.00    -0.237 OA 
BRANCH  15  16
HETATM   16  C   UNL     1      -9.005  19.378  67.556  1.00  0.00    -0.303 C  
BRANCH  16  17
HETATM   17  C   UNL     1     -10.364  18.788  67.933  1.00  0.00    -0.406 C  
BRANCH  17  18
HETATM   18  O   UNL     1     -10.273  18.182  69.226  1.00  0.00    -0.286 OA 
BRANCH  18  19
HETATM   19  C   UNL     1     -10.324  16.760  69.136  1.00  0.00    -0.326 C  
BRANCH  19  20
HETATM   20  C   UNL     1     -11.759  16.318  68.881  1.00  0.00    -0.160 C  
BRANCH  20  21
HETATM   21  O   UNL     1     -12.299  15.775  70.085  1.00  0.00    -0.384 OA 
BRANCH  21  22
HETATM   22  C   UNL     1     -11.425  14.804  70.655  1.00  0.00    -0.234 C  
BRANCH  22  23
HETATM   23  C   UNL     1     -12.128  13.452  70.680  1.00  0.00    -0.295 C  
BRANCH  23  24
HETATM   24  O   UNL     1     -13.142  13.472  71.682  1.00  0.00    -0.357 OA 
BRANCH  24  25
HETATM   25  C   UNL     1     -13.396  12.162  72.185  1.00  0.00    -0.333 C  
BRANCH  25  26
HETATM   26  C   UNL     1     -12.528  11.164  71.433  1.00  0.00    -0.309 C  
BRANCH  26  27
HETATM   27  O   UNL     1     -13.328  10.048  71.052  1.00  0.00    -0.385 OA 
BRANCH  27  28
HETATM   28  C   UNL     1     -13.437   9.105  72.115  1.00  0.00    -0.469 C  
BRANCH  28  29
HETATM   29  C   UNL     1     -13.390   7.698  71.537  1.00  0.00    -0.332 C  
BRANCH  29  30
HETATM   30  O   UNL     1     -12.046   7.226  71.580  1.00  0.00    -0.293 OA 
BRANCH  30  31
HETATM   31  C   UNL     1     -11.388   7.655  72.770  1.00  0.00    -0.367 C  
BRANCH  31  32
HETATM   32  C   UNL     1     -10.579   6.496  73.332  1.00  0.00    -0.285 C  
BRANCH  32  33
HETATM   33  O   UNL     1     -10.931   5.306  72.634  1.00  0.00    -0.238 OA 
BRANCH  33  34
HETATM   34  C   UNL     1      -9.806   4.442  72.492  1.00  0.00    -0.159 C  
BRANCH  34  35
HETATM   35  C   UNL     1      -9.264   4.566  71.076  1.00  0.00    -0.140 C  
BRANCH  35  36
HETATM   36  O   UNL     1     -10.353   4.778  70.180  1.00  0.00    -0.242 OA 
BRANCH  36  37
HETATM   37  C   UNL     1      -9.905   5.330  68.945  1.00  0.00    -0.164 C  
BRANCH  37  38
HETATM   38  C   UNL     1     -10.792   6.511  68.579  1.00  0.00    -0.288 C  
BRANCH  38  39
HETATM   39  O   UNL     1     -10.122   7.317  67.614  1.00  0.00    -0.158 OA 
BRANCH  39  40
HETATM   40  C   UNL     1     -10.614   8.656  67.627  1.00  0.00    -0.203 C  
BRANCH  40  41
HETATM   41  C   UNL     1     -10.360   9.266  68.998  1.00  0.00    -0.214 C  
BRANCH  41  42
HETATM   42  O   UNL     1      -8.955   9.356  69.223  1.00  0.00    -0.142 OA 
HETATM   43  C   UNL     1      -8.599   8.826  70.492  1.00  0.00    -0.169 C  
ENDBRANCH  41  42
ENDBRANCH  40  41
ENDBRANCH  39  40
ENDBRANCH  38  39
ENDBRANCH  37  38
ENDBRANCH  36  37
ENDBRANCH  35  36
ENDBRANCH  34  35
ENDBRANCH  33  34
ENDBRANCH  32  33
ENDBRANCH  31  32
ENDBRANCH  30  31
ENDBRANCH  29  30
ENDBRANCH  28  29
ENDBRANCH  27  28
ENDBRANCH  26  27
ENDBRANCH  25  26
ENDBRANCH  24  25
ENDBRANCH  23  24
ENDBRANCH  22  23
ENDBRANCH  21  22
ENDBRANCH  20  21
ENDBRANCH  19  20
ENDBRANCH  18  19
ENDBRANCH  17  18
ENDBRANCH  16  17
ENDBRANCH  15  16
ENDBRANCH  13  15
ENDBRANCH  10  13
ENDBRANCH   5   7
ENDBRANCH   4   5
ENDBRANCH   3   4
ENDBRANCH   2   3
TORSDOF 33
ENDMDL
MODEL       32
REMARK 921   NORMALIZED FREE ENERGY PREDICTED BY IDOCK:   -4.23 KCAL/MOL
REMARK 922        TOTAL FREE ENERGY PREDICTED BY IDOCK:  -15.18 KCAL/MOL
REMARK 923 INTER-LIGAND FREE ENERGY PREDICTED BY IDOCK:  -12.11 KCAL/MOL
REMARK 924 INTRA-LIGAND FREE ENERGY PREDICTED BY IDOCK:   -3.07 KCAL/MOL
REMARK 927      BINDING AFFINITY PREDICTED BY RF-SCORE:    0.00 PKD
ROOT
HETATM    1  C   UNL     1     -10.253   6.648  73.832  1.00  0.00    -0.379 C  
HETATM    2  C   UNL     1     -10.341   7.866  72.931  1.00  0.00    -0.413 C  
ENDROOT
BRANCH   2   3
HETATM    3  C   UNL     1     -11.686   7.951  72.205  1.00  0.00    -0.385 C  
BRANCH   3   4
HETATM    4  C   UNL     1     -11.911   6.676  71.400  1.00  0.00    -0.353 C  
BRANCH   4   5
HETATM    5  N   UNL     1     -11.937   6.941  69.966  1.00  0.00    -0.644 NA 
HETATM    6  H   UNL     1     -12.508   7.693  69.579  1.00  0.00     0.000 HD 
BRANCH   5   7
HETATM    7  C   UNL     1     -11.150   6.127  69.135  1.00  0.00    -0.378 A  
HETATM    8  C   UNL     1     -10.259   5.165  69.629  1.00  0.00    -0.337 A  
HETATM    9  C   UNL     1      -9.436   4.427  68.779  1.00  0.00    -0.227 A  
HETATM   10  C   UNL     1      -9.456   4.655  67.401  1.00  0.00    -0.177 A  
HETATM   11  C   UNL     1     -11.149   6.361  67.752  1.00  0.00    -0.376 A  
HETATM   12  C   UNL     1     -10.316   5.631  66.887  1.00  0.00    -0.312 A  
BRANCH  10  13
HETATM   13  C   UNL     1      -8.526   3.853  66.566  1.00  0.00    -0.105 C  
HETATM   14  O   UNL     1      -8.894   2.930  65.853  1.00  0.00    -0.130 OA 
BRANCH  13  15
HETATM   15  O   UNL     1      -7.246   4.259  66.727  1.00  0.00    -0.069 OA 
BRANCH  15  16
HETATM   16  C   UNL     1      -6.862   5.374  65.903  1.00  0.00    -0.058 C  
BRANCH  16  17
HETATM   17  C   UNL     1      -6.572   6.615  66.747  1.00  0.00    -0.048 C  
BRANCH  17  18
HETATM   18  O   UNL     1      -7.127   7.765  66.100  1.00  0.00    -0.067 OA 
BRANCH  18  19
HETATM   19  C   UNL     1      -7.994   8.484  66.975  1.00  0.00    -0.100 C  
BRANCH  19  20
HETATM   20  C   UNL     1      -9.100   9.146  66.164  1.00  0.00    -0.187 C  
BRANCH  20  21
HETATM   21  O   UNL     1      -8.951   8.783  64.793  1.00  0.00    -0.113 OA 
BRANCH  21  22
HETATM   22  C   UNL     1      -9.011   9.926  63.942  1.00  0.00    -0.248 C  
BRANCH  22  23
HETATM   23  C   UNL     1     -10.137  10.839  64.412  1.00  0.00    -0.353 C  
BRANCH  23  24
HETATM   24  O   UNL     1     -10.652  11.558  63.293  1.00  0.00    -0.370 OA 
BRANCH  24  25
HETATM   25  C   UNL     1     -11.484  12.638  63.713  1.00  0.00    -0.470 C  
BRANCH  25  26
HETATM   26  C   UNL     1     -11.654  12.576  65.224  1.00  0.00    -0.364 C  
BRANCH  26  27
HETATM   27  O   UNL     1     -11.700  13.904  65.740  1.00  0.00    -0.336 OA 
BRANCH  27  28
HETATM   28  C   UNL     1     -10.584  14.670  65.295  1.00  0.00    -0.391 C  
BRANCH  28  29
HETATM   29  C   UNL     1     -11.073  16.029  64.819  1.00  0.00    -0.365 C  
BRANCH  29  30
HETATM   30  O   UNL     1     -10.199  17.036  65.322  1.00  0.00    -0.601 OA 
BRANCH  30  31
HETATM   31  C   UNL     1      -9.627  16.645  66.568  1.00  0.00    -0.273 C  
BRANCH  31  32
HETATM   32  C   UNL     1     -10.371  17.346  67.695  1.00  0.00    -0.355 C  
BRANCH  32  33
HETATM   33  O   UNL     1     -11.183  16.394  68.374  1.00  0.00    -0.362 OA 
BRANCH  33  34
HETATM   34  C   UNL     1     -10.656  16.098  69.664  1.00  0.00    -0.311 C  
BRANCH  34  35
HETATM   35  C   UNL     1     -11.811  15.915  70.638  1.00  0.00    -0.370 C  
BRANCH  35  36
HETATM   36  O   UNL     1     -12.540  14.744  70.279  1.00  0.00    -0.341 OA 
BRANCH  36  37
HETATM   37  C   UNL     1     -12.459  13.753  71.299  1.00  0.00    -0.345 C  
BRANCH  37  38
HETATM   38  C   UNL     1     -12.269  12.389  70.650  1.00  0.00    -0.278 C  
BRANCH  38  39
HETATM   39  O   UNL     1     -12.086  12.561  69.247  1.00  0.00    -0.256 OA 
BRANCH  39  40
HETATM   40  C   UNL     1     -11.519  11.394  68.653  1.00  0.00    -0.296 C  
BRANCH  40  41
HETATM   41  C   UNL     1     -10.005  11.438  68.816  1.00  0.00    -0.177 C  
BRANCH  41  42
HETATM   42  O   UNL     1      -9.527  12.730  68.445  1.00  0.00    -0.214 OA 
HETATM   43  C   UNL     1      -8.462  12.638  67.510  1.00  0.00    -0.176 C  
ENDBRANCH  41  42
ENDBRANCH  40  41
ENDBRANCH  39  40
ENDBRANCH  38  39
ENDBRANCH  37  38
ENDBRANCH  36  37
ENDBRANCH  35  36
ENDBRANCH  34  35
ENDBRANCH  33  34
ENDBRANCH  32  33
ENDBRANCH  31  32
ENDBRANCH  30  31
ENDBRANCH  29  30
ENDBRANCH  28  29
ENDBRANCH  27  28
ENDBRANCH  26  27
ENDBRANCH  25  26
ENDBRANCH  24  25
ENDBRANCH  23  24
ENDBRANCH  22  23
ENDBRANCH  21  22
ENDBRANCH  20  21
ENDBRANCH  19  20
ENDBRANCH  18  19
ENDBRANCH  17  18
ENDBRANCH  16  17
ENDBRANCH  15  16
ENDBRANCH  13  15
ENDBRANCH  10  13
ENDBRANCH   5   7
ENDBRANCH   4   5
ENDBRANCH   3   4
ENDBRANCH   2   3
TORSDOF 33
ENDMDL
MODEL       33
REMARK 921   NORMALIZED FREE ENERGY PREDICTED BY IDOCK:   -4.23 KCAL/MOL
REMARK 922        TOTAL FREE ENERGY PREDICTED BY IDOCK:  -15.18 KCAL/MOL
REMARK 923 INTER-LIGAND FREE ENERGY PREDICTED BY IDOCK:  -11.68 KCAL/MOL
REMARK 924 INTRA-LIGAND FREE ENERGY PREDICTED BY IDOCK:   -3.50 KCAL/MOL
REMARK 927      BINDING AFFINITY PREDICTED BY RF-SCORE:    0.00 PKD
ROOT
HETATM    1  C   UNL     1      -6.037   3.031  64.674  1.00  0.00    -0.022 C  
HETATM    2  C   UNL     1      -7.327   3.346  65.407  1.00  0.00    -0.075 C  
ENDROOT
BRANCH   2   3
HETATM    3  C   UNL     1      -8.081   4.518  64.772  1.00  0.00    -0.101 C  
BRANCH   3   4
HETATM    4  C   UNL     1      -9.574   4.367  65.039  1.00  0.00    -0.170 C  
BRANCH   4   5
HETATM    5  N   UNL     1      -9.830   3.703  66.312  1.00  0.00    -0.412 NA 
HETATM    6  H   UNL     1      -9.885   2.687  66.375  1.00  0.00     0.000 HD 
BRANCH   5   7
HETATM    7  C   UNL     1      -9.999   4.511  67.449  1.00  0.00    -0.120 A  
HETATM    8  C   UNL     1      -9.681   4.083  68.745  1.00  0.00    -0.143 A  
HETATM    9  C   UNL     1      -9.932   4.882  69.860  1.00  0.00    -0.317 A  
HETATM   10  C   UNL     1     -10.544   6.129  69.714  1.00  0.00    -0.343 A  
HETATM   11  C   UNL     1     -10.630   5.756  67.314  1.00  0.00    -0.353 A  
HETATM   12  C   UNL     1     -10.898   6.565  68.432  1.00  0.00    -0.357 A  
BRANCH  10  13
HETATM   13  C   UNL     1     -10.809   6.906  70.951  1.00  0.00    -0.244 C  
HETATM   14  O   UNL     1     -10.253   6.678  72.016  1.00  0.00    -0.188 OA 
BRANCH  13  15
HETATM   15  O   UNL     1     -11.750   7.854  70.743  1.00  0.00    -0.284 OA 
BRANCH  15  16
HETATM   16  C   UNL     1     -12.940   7.704  71.540  1.00  0.00    -0.341 C  
BRANCH  16  17
HETATM   17  C   UNL     1     -13.549   9.061  71.892  1.00  0.00    -0.431 C  
BRANCH  17  18
HETATM   18  O   UNL     1     -12.506  10.038  71.973  1.00  0.00    -0.357 OA 
BRANCH  18  19
HETATM   19  C   UNL     1     -12.942  11.304  71.482  1.00  0.00    -0.415 C  
BRANCH  19  20
HETATM   20  C   UNL     1     -12.018  11.761  70.362  1.00  0.00    -0.332 C  
BRANCH  20  21
HETATM   21  O   UNL     1     -12.431  11.151  69.140  1.00  0.00    -0.418 OA 
BRANCH  21  22
HETATM   22  C   UNL     1     -11.384  10.372  68.567  1.00  0.00    -0.220 C  
BRANCH  22  23
HETATM   23  C   UNL     1     -10.051  10.818  69.154  1.00  0.00    -0.205 C  
BRANCH  23  24
HETATM   24  O   UNL     1      -9.198   9.683  69.292  1.00  0.00    -0.163 OA 
BRANCH  24  25
HETATM   25  C   UNL     1      -8.533   9.385  68.066  1.00  0.00    -0.120 C  
BRANCH  25  26
HETATM   26  C   UNL     1      -8.000  10.677  67.463  1.00  0.00    -0.110 C  
BRANCH  26  27
HETATM   27  O   UNL     1      -8.161  10.629  66.048  1.00  0.00    -0.148 OA 
BRANCH  27  28
HETATM   28  C   UNL     1      -9.234  11.466  65.622  1.00  0.00    -0.193 C  
BRANCH  28  29
HETATM   29  C   UNL     1     -10.309  10.604  64.978  1.00  0.00    -0.271 C  
BRANCH  29  30
HETATM   30  O   UNL     1     -10.358  10.894  63.584  1.00  0.00    -0.355 OA 
BRANCH  30  31
HETATM   31  C   UNL     1     -10.753  12.243  63.352  1.00  0.00    -0.391 C  
BRANCH  31  32
HETATM   32  C   UNL     1     -12.209  12.409  63.760  1.00  0.00    -0.533 C  
BRANCH  32  33
HETATM   33  O   UNL     1     -12.434  13.767  64.124  1.00  0.00    -0.652 OA 
BRANCH  33  34
HETATM   34  C   UNL     1     -12.611  13.898  65.532  1.00  0.00    -0.526 C  
BRANCH  34  35
HETATM   35  C   UNL     1     -11.363  14.532  66.129  1.00  0.00    -0.348 C  
BRANCH  35  36
HETATM   36  O   UNL     1     -11.230  14.107  67.483  1.00  0.00    -0.285 OA 
BRANCH  36  37
HETATM   37  C   UNL     1     -11.982  14.941  68.362  1.00  0.00    -0.221 C  
BRANCH  37  38
HETATM   38  C   UNL     1     -11.039  15.926  69.037  1.00  0.00    -0.294 C  
BRANCH  38  39
HETATM   39  O   UNL     1     -10.921  17.091  68.225  1.00  0.00    -0.365 OA 
BRANCH  39  40
HETATM   40  C   UNL     1      -9.564  17.520  68.129  1.00  0.00    -0.294 C  
BRANCH  40  41
HETATM   41  C   UNL     1      -8.648  16.351  68.465  1.00  0.00    -0.223 C  
BRANCH  41  42
HETATM   42  O   UNL     1      -8.031  15.875  67.270  1.00  0.00    -0.150 OA 
HETATM   43  C   UNL     1      -7.775  14.479  67.342  1.00  0.00    -0.192 C  
ENDBRANCH  41  42
ENDBRANCH  40  41
ENDBRANCH  39  40
ENDBRANCH  38  39
ENDBRANCH  37  38
ENDBRANCH  36  37
ENDBRANCH  35  36
ENDBRANCH  34  35
ENDBRANCH  33  34
ENDBRANCH  32  33
ENDBRANCH  31  32
ENDBRANCH  30  31
ENDBRANCH  29  30
ENDBRANCH  28  29
ENDBRANCH  27  28
ENDBRANCH  26  27
ENDBRANCH  25  26
ENDBRANCH  24  25
ENDBRANCH  23  24
ENDBRANCH  22  23
ENDBRANCH  21  22
ENDBRANCH  20  21
ENDBRANCH  19  20
ENDBRANCH  18  19
ENDBRANCH  17  18
ENDBRANCH  16  17
ENDBRANCH  15  16
ENDBRANCH  13  15
ENDBRANCH  10  13
ENDBRANCH   5   7
ENDBRANCH   4   5
ENDBRANCH   3   4
ENDBRANCH   2   3
TORSDOF 33
ENDMDL
MODEL       34
REMARK 921   NORMALIZED FREE ENERGY PREDICTED BY IDOCK:   -4.22 KCAL/MOL
REMARK 922        TOTAL FREE ENERGY PREDICTED BY IDOCK:  -15.17 KCAL/MOL
REMARK 923 INTER-LIGAND FREE ENERGY PREDICTED BY IDOCK:  -12.38 KCAL/MOL
REMARK 924 INTRA-LIGAND FREE ENERGY PREDICTED BY IDOCK:   -2.80 KCAL/MOL
REMARK 927      BINDING AFFINITY PREDICTED BY RF-SCORE:    0.00 PKD
ROOT
HETATM    1  C   UNL     1     -12.428  15.299  74.298  1.00  0.00    -0.706 C  
HETATM    2  C   UNL     1     -13.187  15.962  73.165  1.00  0.00    -0.692 C  
ENDROOT
BRANCH   2   3
HETATM    3  C   UNL     1     -12.404  15.932  71.850  1.00  0.00    -0.541 C  
BRANCH   3   4
HETATM    4  C   UNL     1     -13.070  14.959  70.883  1.00  0.00    -0.376 C  
BRANCH   4   5
HETATM    5  N   UNL     1     -12.097  14.070  70.257  1.00  0.00    -0.334 NA 
HETATM    6  H   UNL     1     -11.391  14.430  69.614  1.00  0.00     0.000 HD 
BRANCH   5   7
HETATM    7  C   UNL     1     -12.164  12.702  70.568  1.00  0.00    -0.299 A  
HETATM    8  C   UNL     1     -11.564  11.709  69.784  1.00  0.00    -0.389 A  
HETATM    9  C   UNL     1     -11.715  10.354  70.080  1.00  0.00    -0.366 A  
HETATM   10  C   UNL     1     -12.504   9.949  71.158  1.00  0.00    -0.464 A  
HETATM   11  C   UNL     1     -12.970  12.285  71.638  1.00  0.00    -0.416 A  
HETATM   12  C   UNL     1     -13.137  10.923  71.939  1.00  0.00    -0.537 A  
BRANCH  10  13
HETATM   13  C   UNL     1     -12.643   8.489  71.388  1.00  0.00    -0.283 C  
HETATM   14  O   UNL     1     -13.725   7.925  71.477  1.00  0.00    -0.348 OA 
BRANCH  13  15
HETATM   15  O   UNL     1     -11.435   7.894  71.512  1.00  0.00    -0.253 OA 
BRANCH  15  16
HETATM   16  C   UNL     1     -10.953   7.790  72.865  1.00  0.00    -0.407 C  
BRANCH  16  17
HETATM   17  C   UNL     1     -10.017   6.593  73.031  1.00  0.00    -0.174 C  
BRANCH  17  18
HETATM   18  O   UNL     1      -9.132   6.528  71.909  1.00  0.00    -0.148 OA 
BRANCH  18  19
HETATM   19  C   UNL     1      -7.915   5.865  72.247  1.00  0.00    -0.107 C  
BRANCH  19  20
HETATM   20  C   UNL     1      -8.225   4.622  73.069  1.00  0.00    -0.100 C  
BRANCH  20  21
HETATM   21  O   UNL     1      -8.224   3.484  72.209  1.00  0.00    -0.076 OA 
BRANCH  21  22
HETATM   22  C   UNL     1      -9.551   3.082  71.874  1.00  0.00    -0.152 C  
BRANCH  22  23
HETATM   23  C   UNL     1      -9.700   3.065  70.358  1.00  0.00    -0.009 C  
BRANCH  23  24
HETATM   24  O   UNL     1     -10.137   4.348  69.917  1.00  0.00    -0.222 OA 
BRANCH  24  25
HETATM   25  C   UNL     1      -9.614   4.656  68.627  1.00  0.00    -0.162 C  
BRANCH  25  26
HETATM   26  C   UNL     1      -9.723   6.156  68.392  1.00  0.00    -0.122 C  
BRANCH  26  27
HETATM   27  O   UNL     1      -8.435   6.668  68.060  1.00  0.00    -0.116 OA 
BRANCH  27  28
HETATM   28  C   UNL     1      -8.514   7.609  66.993  1.00  0.00    -0.125 C  
BRANCH  28  29
HETATM   29  C   UNL     1      -9.970   7.988  66.772  1.00  0.00    -0.274 C  
BRANCH  29  30
HETATM   30  O   UNL     1     -10.027   9.122  65.911  1.00  0.00    -0.295 OA 
BRANCH  30  31
HETATM   31  C   UNL     1      -8.863   9.933  66.052  1.00  0.00    -0.146 C  
BRANCH  31  32
HETATM   32  C   UNL     1      -9.278  11.312  66.540  1.00  0.00    -0.188 C  
BRANCH  32  33
HETATM   33  O   UNL     1     -10.639  11.537  66.186  1.00  0.00    -0.250 OA 
BRANCH  33  34
HETATM   34  C   UNL     1     -10.952  12.927  66.208  1.00  0.00    -0.281 C  
BRANCH  34  35
HETATM   35  C   UNL     1     -12.301  13.140  65.538  1.00  0.00    -0.474 C  
BRANCH  35  36
HETATM   36  O   UNL     1     -12.412  14.505  65.142  1.00  0.00    -0.378 OA 
BRANCH  36  37
HETATM   37  C   UNL     1     -11.127  15.097  64.968  1.00  0.00    -0.419 C  
BRANCH  37  38
HETATM   38  C   UNL     1     -11.261  16.610  65.080  1.00  0.00     0.022 C  
BRANCH  38  39
HETATM   39  O   UNL     1     -10.017  17.157  65.507  1.00  0.00    -0.565 OA 
BRANCH  39  40
HETATM   40  C   UNL     1     -10.166  18.512  65.930  1.00  0.00    -0.240 C  
BRANCH  40  41
HETATM   41  C   UNL     1      -9.673  18.643  67.364  1.00  0.00    -0.306 C  
BRANCH  41  42
HETATM   42  O   UNL     1     -10.618  18.040  68.246  1.00  0.00    -0.363 OA 
HETATM   43  C   UNL     1     -10.087  16.868  68.849  1.00  0.00    -0.297 C  
ENDBRANCH  41  42
ENDBRANCH  40  41
ENDBRANCH  39  40
ENDBRANCH  38  39
ENDBRANCH  37  38
ENDBRANCH  36  37
ENDBRANCH  35  36
ENDBRANCH  34  35
ENDBRANCH  33  34
ENDBRANCH  32  33
ENDBRANCH  31  32
ENDBRANCH  30  31
ENDBRANCH  29  30
ENDBRANCH  28  29
ENDBRANCH  27  28
ENDBRANCH  26  27
ENDBRANCH  25  26
ENDBRANCH  24  25
ENDBRANCH  23  24
ENDBRANCH  22  23
ENDBRANCH  21  22
ENDBRANCH  20  21
ENDBRANCH  19  20
ENDBRANCH  18  19
ENDBRANCH  17  18
ENDBRANCH  16  17
ENDBRANCH  15  16
ENDBRANCH  13  15
ENDBRANCH  10  13
ENDBRANCH   5   7
ENDBRANCH   4   5
ENDBRANCH   3   4
ENDBRANCH   2   3
TORSDOF 33
ENDMDL
MODEL       35
REMARK 921   NORMALIZED FREE ENERGY PREDICTED BY IDOCK:   -4.22 KCAL/MOL
REMARK 922        TOTAL FREE ENERGY PREDICTED BY IDOCK:  -15.15 KCAL/MOL
REMARK 923 INTER-LIGAND FREE ENERGY PREDICTED BY IDOCK:  -11.93 KCAL/MOL
REMARK 924 INTRA-LIGAND FREE ENERGY PREDICTED BY IDOCK:   -3.23 KCAL/MOL
REMARK 927      BINDING AFFINITY PREDICTED BY RF-SCORE:    0.00 PKD
ROOT
HETATM    1  C   UNL     1     -10.451   6.668  66.871  1.00  0.00    -0.349 C  
HETATM    2  C   UNL     1     -10.143   8.146  66.723  1.00  0.00    -0.365 C  
ENDROOT
BRANCH   2   3
HETATM    3  C   UNL     1      -8.687   8.394  66.321  1.00  0.00    -0.164 C  
BRANCH   3   4
HETATM    4  C   UNL     1      -7.947   9.061  67.476  1.00  0.00    -0.101 C  
BRANCH   4   5
HETATM    5  N   UNL     1      -7.086  10.143  67.012  1.00  0.00    -0.088 NA 
HETATM    6  H   UNL     1      -6.301   9.960  66.386  1.00  0.00     0.000 HD 
BRANCH   5   7
HETATM    7  C   UNL     1      -7.373  11.445  67.454  1.00  0.00    -0.119 A  
HETATM    8  C   UNL     1      -8.271  12.295  66.796  1.00  0.00    -0.058 A  
HETATM    9  C   UNL     1      -8.476  13.608  67.218  1.00  0.00    -0.203 A  
HETATM   10  C   UNL     1      -7.758  14.125  68.298  1.00  0.00    -0.139 A  
HETATM   11  C   UNL     1      -6.644  11.978  68.526  1.00  0.00    -0.062 A  
HETATM   12  C   UNL     1      -6.834  13.303  68.953  1.00  0.00    -0.103 A  
BRANCH  10  13
HETATM   13  C   UNL     1      -8.007  15.542  68.666  1.00  0.00    -0.146 C  
HETATM   14  O   UNL     1      -8.923  15.893  69.396  1.00  0.00    -0.248 OA 
BRANCH  13  15
HETATM   15  O   UNL     1      -7.120  16.368  68.067  1.00  0.00    -0.130 OA 
BRANCH  15  16
HETATM   16  C   UNL     1      -6.565  17.379  68.928  1.00  0.00    -0.218 C  
BRANCH  16  17
HETATM   17  C   UNL     1      -6.841  18.782  68.388  1.00  0.00    -0.249 C  
BRANCH  17  18
HETATM   18  O   UNL     1      -7.974  19.334  69.066  1.00  0.00    -0.340 OA 
BRANCH  18  19
HETATM   19  C   UNL     1      -9.126  19.344  68.227  1.00  0.00    -0.345 C  
BRANCH  19  20
HETATM   20  C   UNL     1      -8.717  19.709  66.806  1.00  0.00    -0.334 C  
BRANCH  20  21
HETATM   21  O   UNL     1      -9.311  18.783  65.898  1.00  0.00    -0.466 OA 
BRANCH  21  22
HETATM   22  C   UNL     1     -10.322  18.005  66.536  1.00  0.00    -0.373 C  
BRANCH  22  23
HETATM   23  C   UNL     1     -10.491  16.692  65.782  1.00  0.00    -0.311 C  
BRANCH  23  24
HETATM   24  O   UNL     1     -11.257  16.926  64.602  1.00  0.00    -0.915 OA 
BRANCH  24  25
HETATM   25  C   UNL     1     -11.795  15.711  64.086  1.00  0.00    -0.068 C  
BRANCH  25  26
HETATM   26  C   UNL     1     -11.116  14.535  64.774  1.00  0.00    -0.391 C  
BRANCH  26  27
HETATM   27  O   UNL     1     -11.223  13.385  63.940  1.00  0.00    -0.344 OA 
BRANCH  27  28
HETATM   28  C   UNL     1     -11.632  12.242  64.687  1.00  0.00    -0.344 C  
BRANCH  28  29
HETATM   29  C   UNL     1     -12.132  12.695  66.051  1.00  0.00    -0.364 C  
BRANCH  29  30
HETATM   30  O   UNL     1     -12.076  11.592  66.952  1.00  0.00    -0.512 OA 
BRANCH  30  31
HETATM   31  C   UNL     1     -11.478  11.969  68.189  1.00  0.00    -0.322 C  
BRANCH  31  32
HETATM   32  C   UNL     1     -11.726  13.451  68.427  1.00  0.00    -0.355 C  
BRANCH  32  33
HETATM   33  O   UNL     1     -12.156  13.637  69.772  1.00  0.00    -0.320 OA 
BRANCH  33  34
HETATM   34  C   UNL     1     -12.182  12.400  70.478  1.00  0.00    -0.295 C  
BRANCH  34  35
HETATM   35  C   UNL     1     -13.119  12.532  71.670  1.00  0.00    -0.315 C  
BRANCH  35  36
HETATM   36  O   UNL     1     -13.534  11.231  72.079  1.00  0.00    -0.389 OA 
BRANCH  36  37
HETATM   37  C   UNL     1     -12.755  10.218  71.448  1.00  0.00    -0.442 C  
BRANCH  37  38
HETATM   38  C   UNL     1     -12.765   8.971  72.319  1.00  0.00    -0.387 C  
BRANCH  38  39
HETATM   39  O   UNL     1     -13.526   7.955  71.671  1.00  0.00    -0.341 OA 
BRANCH  39  40
HETATM   40  C   UNL     1     -12.682   7.065  70.941  1.00  0.00    -0.167 C  
BRANCH  40  41
HETATM   41  C   UNL     1     -11.599   6.532  71.869  1.00  0.00    -0.312 C  
BRANCH  41  42
HETATM   42  O   UNL     1     -10.389   6.360  71.134  1.00  0.00    -0.199 OA 
HETATM   43  C   UNL     1     -10.246   5.021  70.680  1.00  0.00    -0.235 C  
ENDBRANCH  41  42
ENDBRANCH  40  41
ENDBRANCH  39  40
ENDBRANCH  38  39
ENDBRANCH  37  38
ENDBRANCH  36  37
ENDBRANCH  35  36
ENDBRANCH  34  35
ENDBRANCH  33  34
ENDBRANCH  32  33
ENDBRANCH  31  32
ENDBRANCH  30  31
ENDBRANCH  29  30
ENDBRANCH  28  29
ENDBRANCH  27  28
ENDBRANCH  26  27
ENDBRANCH  25  26
ENDBRANCH  24  25
ENDBRANCH  23  24
ENDBRANCH  22  23
ENDBRANCH  21  22
ENDBRANCH  20  21
ENDBRANCH  19  20
ENDBRANCH  18  19
ENDBRANCH  17  18
ENDBRANCH  16  17
ENDBRANCH  15  16
ENDBRANCH  13  15
ENDBRANCH  10  13
ENDBRANCH   5   7
ENDBRANCH   4   5
ENDBRANCH   3   4
ENDBRANCH   2   3
TORSDOF 33
ENDMDL
MODEL       36
REMARK 921   NORMALIZED FREE ENERGY PREDICTED BY IDOCK:   -4.22 KCAL/MOL
REMARK 922        TOTAL FREE ENERGY PREDICTED BY IDOCK:  -15.15 KCAL/MOL
REMARK 923 INTER-LIGAND FREE ENERGY PREDICTED BY IDOCK:  -12.41 KCAL/MOL
REMARK 924 INTRA-LIGAND FREE ENERGY PREDICTED BY IDOCK:   -2.74 KCAL/MOL
REMARK 927      BINDING AFFINITY PREDICTED BY RF-SCORE:    0.00 PKD
ROOT
HETATM    1  C   UNL     1      -9.277   3.152  72.601  1.00  0.00    -0.131 C  
HETATM    2  C   UNL     1     -10.160   4.245  72.030  1.00  0.00    -0.244 C  
ENDROOT
BRANCH   2   3
HETATM    3  C   UNL     1      -9.423   5.102  70.997  1.00  0.00    -0.214 C  
BRANCH   3   4
HETATM    4  C   UNL     1     -10.236   5.156  69.708  1.00  0.00    -0.287 C  
BRANCH   4   5
HETATM    5  N   UNL     1     -11.059   6.358  69.639  1.00  0.00    -0.366 NA 
HETATM    6  H   UNL     1     -11.966   6.402  70.103  1.00  0.00     0.000 HD 
BRANCH   5   7
HETATM    7  C   UNL     1     -10.560   7.452  68.914  1.00  0.00    -0.176 A  
HETATM    8  C   UNL     1     -10.553   7.503  67.514  1.00  0.00    -0.331 A  
HETATM    9  C   UNL     1      -9.980   8.572  66.825  1.00  0.00    -0.351 A  
HETATM   10  C   UNL     1      -9.363   9.614  67.521  1.00  0.00    -0.149 A  
HETATM   11  C   UNL     1      -9.921   8.494  69.604  1.00  0.00    -0.192 A  
HETATM   12  C   UNL     1      -9.332   9.570  68.920  1.00  0.00    -0.149 A  
BRANCH  10  13
HETATM   13  C   UNL     1      -8.747  10.698  66.716  1.00  0.00    -0.130 C  
HETATM   14  O   UNL     1      -9.129  10.999  65.594  1.00  0.00    -0.198 OA 
BRANCH  13  15
HETATM   15  O   UNL     1      -7.710  11.269  67.371  1.00  0.00    -0.116 OA 
BRANCH  15  16
HETATM   16  C   UNL     1      -8.073  12.370  68.224  1.00  0.00    -0.166 C  
BRANCH  16  17
HETATM   17  C   UNL     1      -8.101  13.687  67.449  1.00  0.00    -0.175 C  
BRANCH  17  18
HETATM   18  O   UNL     1      -9.071  14.560  68.038  1.00  0.00    -0.174 OA 
BRANCH  18  19
HETATM   19  C   UNL     1      -8.575  15.893  68.138  1.00  0.00    -0.169 C  
BRANCH  19  20
HETATM   20  C   UNL     1      -7.421  16.081  67.164  1.00  0.00    -0.218 C  
BRANCH  20  21
HETATM   21  O   UNL     1      -6.438  16.923  67.764  1.00  0.00    -0.133 OA 
BRANCH  21  22
HETATM   22  C   UNL     1      -6.850  17.365  69.055  1.00  0.00    -0.244 C  
BRANCH  22  23
HETATM   23  C   UNL     1      -6.684  18.877  69.142  1.00  0.00    -0.297 C  
BRANCH  23  24
HETATM   24  O   UNL     1      -7.904  19.504  68.751  1.00  0.00    -0.355 OA 
BRANCH  24  25
HETATM   25  C   UNL     1      -7.720  20.314  67.592  1.00  0.00    -0.293 C  
BRANCH  25  26
HETATM   26  C   UNL     1      -8.467  19.687  66.424  1.00  0.00    -0.356 C  
BRANCH  26  27
HETATM   27  O   UNL     1      -9.594  18.972  66.923  1.00  0.00    -0.300 OA 
BRANCH  27  28
HETATM   28  C   UNL     1     -10.572  18.776  65.906  1.00  0.00    -0.352 C  
BRANCH  28  29
HETATM   29  C   UNL     1     -10.836  17.286  65.753  1.00  0.00    -0.023 C  
BRANCH  29  30
HETATM   30  O   UNL     1     -11.124  17.006  64.385  1.00  0.00    -1.144 OA 
BRANCH  30  31
HETATM   31  C   UNL     1     -11.683  15.705  64.233  1.00  0.00    -0.169 C  
BRANCH  31  32
HETATM   32  C   UNL     1     -10.826  14.706  64.994  1.00  0.00    -0.417 C  
BRANCH  32  33
HETATM   33  O   UNL     1     -11.282  13.388  64.702  1.00  0.00    -0.330 OA 
BRANCH  33  34
HETATM   34  C   UNL     1     -12.391  13.036  65.523  1.00  0.00    -0.472 C  
BRANCH  34  35
HETATM   35  C   UNL     1     -12.057  13.362  66.971  1.00  0.00    -0.339 C  
BRANCH  35  36
HETATM   36  O   UNL     1     -11.735  12.154  67.656  1.00  0.00    -0.386 OA 
BRANCH  36  37
HETATM   37  C   UNL     1     -11.816  12.325  69.069  1.00  0.00    -0.305 C  
BRANCH  37  38
HETATM   38  C   UNL     1     -12.022  13.801  69.378  1.00  0.00    -0.347 C  
BRANCH  38  39
HETATM   39  O   UNL     1     -13.051  13.934  70.354  1.00  0.00    -0.144 OA 
BRANCH  39  40
HETATM   40  C   UNL     1     -13.142  15.277  70.830  1.00  0.00    -0.464 C  
BRANCH  40  41
HETATM   41  C   UNL     1     -13.893  15.286  72.154  1.00  0.00    -0.522 C  
BRANCH  41  42
HETATM   42  O   UNL     1     -13.268  16.206  73.047  1.00  0.00    -0.488 OA 
HETATM   43  C   UNL     1     -12.584  15.528  74.092  1.00  0.00    -0.595 C  
ENDBRANCH  41  42
ENDBRANCH  40  41
ENDBRANCH  39  40
ENDBRANCH  38  39
ENDBRANCH  37  38
ENDBRANCH  36  37
ENDBRANCH  35  36
ENDBRANCH  34  35
ENDBRANCH  33  34
ENDBRANCH  32  33
ENDBRANCH  31  32
ENDBRANCH  30  31
ENDBRANCH  29  30
ENDBRANCH  28  29
ENDBRANCH  27  28
ENDBRANCH  26  27
ENDBRANCH  25  26
ENDBRANCH  24  25
ENDBRANCH  23  24
ENDBRANCH  22  23
ENDBRANCH  21  22
ENDBRANCH  20  21
ENDBRANCH  19  20
ENDBRANCH  18  19
ENDBRANCH  17  18
ENDBRANCH  16  17
ENDBRANCH  15  16
ENDBRANCH  13  15
ENDBRANCH  10  13
ENDBRANCH   5   7
ENDBRANCH   4   5
ENDBRANCH   3   4
ENDBRANCH   2   3
TORSDOF 33
ENDMDL
MODEL       37
REMARK 921   NORMALIZED FREE ENERGY PREDICTED BY IDOCK:   -4.21 KCAL/MOL
REMARK 922        TOTAL FREE ENERGY PREDICTED BY IDOCK:  -15.13 KCAL/MOL
REMARK 923 INTER-LIGAND FREE ENERGY PREDICTED BY IDOCK:  -11.52 KCAL/MOL
REMARK 924 INTRA-LIGAND FREE ENERGY PREDICTED BY IDOCK:   -3.61 KCAL/MOL
REMARK 927      BINDING AFFINITY PREDICTED BY RF-SCORE:    0.00 PKD
ROOT
HETATM    1  C   UNL     1      -7.197   4.009  68.355  1.00  0.00    -0.055 C  
HETATM    2  C   UNL     1      -8.192   3.114  69.068  1.00  0.00    -0.077 C  
ENDROOT
BRANCH   2   3
HETATM    3  C   UNL     1      -9.385   2.754  68.179  1.00  0.00    -0.258 C  
BRANCH   3   4
HETATM    4  C   UNL     1      -9.034   3.026  66.721  1.00  0.00    -0.159 C  
BRANCH   4   5
HETATM    5  N   UNL     1     -10.009   3.905  66.086  1.00  0.00    -0.406 NA 
HETATM    6  H   UNL     1     -10.718   3.535  65.452  1.00  0.00     0.000 HD 
BRANCH   5   7
HETATM    7  C   UNL     1      -9.941   5.277  66.376  1.00  0.00    -0.203 A  
HETATM    8  C   UNL     1     -10.936   5.959  67.088  1.00  0.00    -0.289 A  
HETATM    9  C   UNL     1     -10.873   7.337  67.293  1.00  0.00    -0.354 A  
HETATM   10  C   UNL     1      -9.823   8.085  66.758  1.00  0.00    -0.327 A  
HETATM   11  C   UNL     1      -8.899   6.040  65.827  1.00  0.00    -0.143 A  
HETATM   12  C   UNL     1      -8.832   7.430  66.018  1.00  0.00    -0.173 A  
BRANCH  10  13
HETATM   13  C   UNL     1      -9.844   9.552  66.991  1.00  0.00    -0.190 C  
HETATM   14  O   UNL     1     -10.691  10.108  67.675  1.00  0.00    -0.246 OA 
BRANCH  13  15
HETATM   15  O   UNL     1      -8.839  10.169  66.329  1.00  0.00    -0.144 OA 
BRANCH  15  16
HETATM   16  C   UNL     1      -9.269  11.079  65.300  1.00  0.00    -0.207 C  
BRANCH  16  17
HETATM   17  C   UNL     1      -9.292  10.399  63.931  1.00  0.00    -0.279 C  
BRANCH  17  18
HETATM   18  O   UNL     1     -10.320  10.989  63.128  1.00  0.00    -0.325 OA 
BRANCH  18  19
HETATM   19  C   UNL     1     -10.903  12.115  63.780  1.00  0.00    -0.432 C  
BRANCH  19  20
HETATM   20  C   UNL     1     -12.415  12.082  63.597  1.00  0.00    -0.525 C  
BRANCH  20  21
HETATM   21  O   UNL     1     -13.037  12.582  64.779  1.00  0.00    -0.853 OA 
BRANCH  21  22
HETATM   22  C   UNL     1     -12.658  13.933  65.036  1.00  0.00    -0.390 C  
BRANCH  22  23
HETATM   23  C   UNL     1     -12.258  14.070  66.499  1.00  0.00    -0.451 C  
BRANCH  23  24
HETATM   24  O   UNL     1     -10.955  14.645  66.576  1.00  0.00    -0.307 OA 
BRANCH  24  25
HETATM   25  C   UNL     1     -10.827  15.483  67.722  1.00  0.00    -0.309 C  
BRANCH  25  26
HETATM   26  C   UNL     1     -11.904  15.113  68.731  1.00  0.00    -0.303 C  
BRANCH  26  27
HETATM   27  O   UNL     1     -11.886  16.059  69.797  1.00  0.00    -0.312 OA 
BRANCH  27  28
HETATM   28  C   UNL     1     -12.389  15.487  71.002  1.00  0.00    -0.416 C  
BRANCH  28  29
HETATM   29  C   UNL     1     -12.457  13.976  70.843  1.00  0.00    -0.369 C  
BRANCH  29  30
HETATM   30  O   UNL     1     -13.045  13.415  72.013  1.00  0.00    -0.373 OA 
BRANCH  30  31
HETATM   31  C   UNL     1     -13.174  12.000  71.897  1.00  0.00    -0.364 C  
BRANCH  31  32
HETATM   32  C   UNL     1     -12.234  11.506  70.809  1.00  0.00    -0.363 C  
BRANCH  32  33
HETATM   33  O   UNL     1     -12.557  10.154  70.498  1.00  0.00    -0.281 OA 
BRANCH  33  34
HETATM   34  C   UNL     1     -12.376   9.309  71.631  1.00  0.00    -0.372 C  
BRANCH  34  35
HETATM   35  C   UNL     1     -10.894   9.002  71.785  1.00  0.00    -0.367 C  
BRANCH  35  36
HETATM   36  O   UNL     1     -10.377   8.570  70.529  1.00  0.00    -0.193 OA 
BRANCH  36  37
HETATM   37  C   UNL     1      -8.988   8.264  70.621  1.00  0.00    -0.151 C  
BRANCH  37  38
HETATM   38  C   UNL     1      -8.186   9.447  70.097  1.00  0.00    -0.168 C  
BRANCH  38  39
HETATM   39  O   UNL     1      -7.335   9.003  69.044  1.00  0.00    -0.071 OA 
BRANCH  39  40
HETATM   40  C   UNL     1      -6.269   9.925  68.818  1.00  0.00    -0.041 C  
BRANCH  40  41
HETATM   41  C   UNL     1      -6.707  11.312  69.267  1.00  0.00    -0.110 C  
BRANCH  41  42
HETATM   42  O   UNL     1      -6.716  12.192  68.144  1.00  0.00    -0.061 OA 
HETATM   43  C   UNL     1      -6.961  13.534  68.541  1.00  0.00    -0.102 C  
ENDBRANCH  41  42
ENDBRANCH  40  41
ENDBRANCH  39  40
ENDBRANCH  38  39
ENDBRANCH  37  38
ENDBRANCH  36  37
ENDBRANCH  35  36
ENDBRANCH  34  35
ENDBRANCH  33  34
ENDBRANCH  32  33
ENDBRANCH  31  32
ENDBRANCH  30  31
ENDBRANCH  29  30
ENDBRANCH  28  29
ENDBRANCH  27  28
ENDBRANCH  26  27
ENDBRANCH  25  26
ENDBRANCH  24  25
ENDBRANCH  23  24
ENDBRANCH  22  23
ENDBRANCH  21  22
ENDBRANCH  20  21
ENDBRANCH  19  20
ENDBRANCH  18  19
ENDBRANCH  17  18
ENDBRANCH  16  17
ENDBRANCH  15  16
ENDBRANCH  13  15
ENDBRANCH  10  13
ENDBRANCH   5   7
ENDBRANCH   4   5
ENDBRANCH   3   4
ENDBRANCH   2   3
TORSDOF 33
ENDMDL
MODEL       38
REMARK 921   NORMALIZED FREE ENERGY PREDICTED BY IDOCK:   -4.19 KCAL/MOL
REMARK 922        TOTAL FREE ENERGY PREDICTED BY IDOCK:  -15.08 KCAL/MOL
REMARK 923 INTER-LIGAND FREE ENERGY PREDICTED BY IDOCK:  -12.13 KCAL/MOL
REMARK 924 INTRA-LIGAND FREE ENERGY PREDICTED BY IDOCK:   -2.95 KCAL/MOL
REMARK 927      BINDING AFFINITY PREDICTED BY RF-SCORE:    0.00 PKD
ROOT
HETATM    1  C   UNL     1     -12.816  15.397  73.582  1.00  0.00    -0.685 C  
HETATM    2  C   UNL     1     -13.606  14.822  72.422  1.00  0.00    -0.550 C  
ENDROOT
BRANCH   2   3
HETATM    3  C   UNL     1     -13.197  15.439  71.082  1.00  0.00    -0.583 C  
BRANCH   3   4
HETATM    4  C   UNL     1     -12.459  14.399  70.246  1.00  0.00    -0.354 C  
BRANCH   4   5
HETATM    5  N   UNL     1     -12.480  14.734  68.827  1.00  0.00    -0.545 NA 
HETATM    6  H   UNL     1     -12.941  15.580  68.492  1.00  0.00     0.000 HD 
BRANCH   5   7
HETATM    7  C   UNL     1     -11.845  13.853  67.937  1.00  0.00    -0.378 A  
HETATM    8  C   UNL     1     -11.385  14.242  66.672  1.00  0.00    -0.356 A  
HETATM    9  C   UNL     1     -10.828  13.324  65.782  1.00  0.00    -0.286 A  
HETATM   10  C   UNL     1     -10.744  11.972  66.121  1.00  0.00    -0.312 A  
HETATM   11  C   UNL     1     -11.773  12.490  68.260  1.00  0.00    -0.390 A  
HETATM   12  C   UNL     1     -11.223  11.554  67.368  1.00  0.00    -0.367 A  
BRANCH  10  13
HETATM   13  C   UNL     1     -10.169  11.051  65.108  1.00  0.00    -0.291 C  
HETATM   14  O   UNL     1      -9.702  11.434  64.045  1.00  0.00    -0.238 OA 
BRANCH  13  15
HETATM   15  O   UNL     1     -10.264   9.762  65.506  1.00  0.00    -0.256 OA 
BRANCH  15  16
HETATM   16  C   UNL     1      -9.000   9.107  65.720  1.00  0.00    -0.193 C  
BRANCH  16  17
HETATM   17  C   UNL     1      -9.123   7.988  66.755  1.00  0.00    -0.155 C  
BRANCH  17  18
HETATM   18  O   UNL     1     -10.508   7.703  66.979  1.00  0.00    -0.304 OA 
BRANCH  18  19
HETATM   19  C   UNL     1     -10.684   6.409  67.552  1.00  0.00    -0.319 C  
BRANCH  19  20
HETATM   20  C   UNL     1      -9.791   6.270  68.777  1.00  0.00    -0.137 C  
BRANCH  20  21
HETATM   21  O   UNL     1     -10.572   5.785  69.868  1.00  0.00    -0.261 OA 
BRANCH  21  22
HETATM   22  C   UNL     1     -11.649   6.669  70.171  1.00  0.00    -0.386 C  
BRANCH  22  23
HETATM   23  C   UNL     1     -11.721   6.868  71.680  1.00  0.00    -0.304 C  
BRANCH  23  24
HETATM   24  O   UNL     1     -11.854   8.260  71.962  1.00  0.00    -0.303 OA 
BRANCH  24  25
HETATM   25  C   UNL     1     -10.718   8.990  71.502  1.00  0.00    -0.351 C  
BRANCH  25  26
HETATM   26  C   UNL     1      -9.501   8.583  72.321  1.00  0.00    -0.295 C  
BRANCH  26  27
HETATM   27  O   UNL     1      -8.510   8.050  71.446  1.00  0.00    -0.108 OA 
BRANCH  27  28
HETATM   28  C   UNL     1      -7.240   8.655  71.676  1.00  0.00    -0.091 C  
BRANCH  28  29
HETATM   29  C   UNL     1      -6.852   9.472  70.453  1.00  0.00    -0.101 C  
BRANCH  29  30
HETATM   30  O   UNL     1      -6.615  10.818  70.855  1.00  0.00    -0.296 OA 
BRANCH  30  31
HETATM   31  C   UNL     1      -5.719  11.472  69.959  1.00  0.00    -0.120 C  
BRANCH  31  32
HETATM   32  C   UNL     1      -6.380  12.737  69.435  1.00  0.00    -0.110 C  
BRANCH  32  33
HETATM   33  O   UNL     1      -7.577  12.383  68.750  1.00  0.00    -0.106 OA 
BRANCH  33  34
HETATM   34  C   UNL     1      -8.087  13.485  68.003  1.00  0.00    -0.156 C  
BRANCH  34  35
HETATM   35  C   UNL     1      -7.631  14.779  68.661  1.00  0.00    -0.126 C  
BRANCH  35  36
HETATM   36  O   UNL     1      -8.765  15.442  69.214  1.00  0.00    -0.225 OA 
BRANCH  36  37
HETATM   37  C   UNL     1      -8.677  16.853  69.031  1.00  0.00    -0.150 C  
BRANCH  37  38
HETATM   38  C   UNL     1      -7.211  17.246  68.910  1.00  0.00    -0.243 C  
BRANCH  38  39
HETATM   39  O   UNL     1      -7.121  18.531  68.301  1.00  0.00    -0.241 OA 
BRANCH  39  40
HETATM   40  C   UNL     1      -8.415  19.042  67.980  1.00  0.00    -0.301 C  
BRANCH  40  41
HETATM   41  C   UNL     1      -8.275  20.103  66.897  1.00  0.00    -0.316 C  
BRANCH  41  42
HETATM   42  O   UNL     1      -9.423  20.070  66.051  1.00  0.00    -0.396 OA 
HETATM   43  C   UNL     1     -10.399  19.159  66.540  1.00  0.00    -0.442 C  
ENDBRANCH  41  42
ENDBRANCH  40  41
ENDBRANCH  39  40
ENDBRANCH  38  39
ENDBRANCH  37  38
ENDBRANCH  36  37
ENDBRANCH  35  36
ENDBRANCH  34  35
ENDBRANCH  33  34
ENDBRANCH  32  33
ENDBRANCH  31  32
ENDBRANCH  30  31
ENDBRANCH  29  30
ENDBRANCH  28  29
ENDBRANCH  27  28
ENDBRANCH  26  27
ENDBRANCH  25  26
ENDBRANCH  24  25
ENDBRANCH  23  24
ENDBRANCH  22  23
ENDBRANCH  21  22
ENDBRANCH  20  21
ENDBRANCH  19  20
ENDBRANCH  18  19
ENDBRANCH  17  18
ENDBRANCH  16  17
ENDBRANCH  15  16
ENDBRANCH  13  15
ENDBRANCH  10  13
ENDBRANCH   5   7
ENDBRANCH   4   5
ENDBRANCH   3   4
ENDBRANCH   2   3
TORSDOF 33
ENDMDL
MODEL       39
REMARK 921   NORMALIZED FREE ENERGY PREDICTED BY IDOCK:   -4.18 KCAL/MOL
REMARK 922        TOTAL FREE ENERGY PREDICTED BY IDOCK:  -15.05 KCAL/MOL
REMARK 923 INTER-LIGAND FREE ENERGY PREDICTED BY IDOCK:  -12.12 KCAL/MOL
REMARK 924 INTRA-LIGAND FREE ENERGY PREDICTED BY IDOCK:   -2.93 KCAL/MOL
REMARK 927      BINDING AFFINITY PREDICTED BY RF-SCORE:    0.00 PKD
ROOT
HETATM    1  C   UNL     1     -11.887  15.565  72.539  1.00  0.00    -0.572 C  
HETATM    2  C   UNL     1     -13.118  15.167  71.748  1.00  0.00    -0.464 C  
ENDROOT
BRANCH   2   3
HETATM    3  C   UNL     1     -13.802  13.927  72.329  1.00  0.00    -0.669 C  
BRANCH   3   4
HETATM    4  C   UNL     1     -13.188  12.673  71.716  1.00  0.00    -0.359 C  
BRANCH   4   5
HETATM    5  N   UNL     1     -13.764  11.458  72.282  1.00  0.00    -0.345 NA 
HETATM    6  H   UNL     1     -14.524  11.502  72.961  1.00  0.00     0.000 HD 
BRANCH   5   7
HETATM    7  C   UNL     1     -13.237  10.226  71.862  1.00  0.00    -0.445 A  
HETATM    8  C   UNL     1     -13.850   8.997  72.140  1.00  0.00    -0.526 A  
HETATM    9  C   UNL     1     -13.261   7.788  71.774  1.00  0.00    -0.354 A  
HETATM   10  C   UNL     1     -12.015   7.770  71.143  1.00  0.00    -0.312 A  
HETATM   11  C   UNL     1     -11.978  10.197  71.244  1.00  0.00    -0.473 A  
HETATM   12  C   UNL     1     -11.370   8.984  70.880  1.00  0.00    -0.351 A  
BRANCH  10  13
HETATM   13  C   UNL     1     -11.438   6.441  70.814  1.00  0.00    -0.353 C  
HETATM   14  O   UNL     1     -10.963   5.692  71.656  1.00  0.00    -0.253 OA 
BRANCH  13  15
HETATM   15  O   UNL     1     -11.483   6.201  69.484  1.00  0.00    -0.429 OA 
BRANCH  15  16
HETATM   16  C   UNL     1     -10.299   5.584  68.946  1.00  0.00    -0.218 C  
BRANCH  16  17
HETATM   17  C   UNL     1      -9.192   6.613  68.715  1.00  0.00    -0.129 C  
BRANCH  17  18
HETATM   18  O   UNL     1      -8.011   5.942  68.265  1.00  0.00    -0.106 OA 
BRANCH  18  19
HETATM   19  C   UNL     1      -7.980   4.590  68.715  1.00  0.00    -0.078 C  
BRANCH  19  20
HETATM   20  C   UNL     1      -7.402   3.702  67.621  1.00  0.00    -0.062 C  
BRANCH  20  21
HETATM   21  O   UNL     1      -8.471   3.035  66.951  1.00  0.00    -0.089 OA 
BRANCH  21  22
HETATM   22  C   UNL     1      -8.451   3.296  65.550  1.00  0.00    -0.106 C  
BRANCH  22  23
HETATM   23  C   UNL     1      -9.658   4.150  65.184  1.00  0.00    -0.185 C  
BRANCH  23  24
HETATM   24  O   UNL     1      -9.285   5.526  65.223  1.00  0.00    -0.084 OA 
BRANCH  24  25
HETATM   25  C   UNL     1      -8.069   5.752  64.513  1.00  0.00    -0.132 C  
BRANCH  25  26
HETATM   26  C   UNL     1      -7.691   7.221  64.630  1.00  0.00    -0.116 C  
BRANCH  26  27
HETATM   27  O   UNL     1      -8.697   7.902  65.375  1.00  0.00    -0.137 OA 
BRANCH  27  28
HETATM   28  C   UNL     1      -8.508   9.314  65.326  1.00  0.00    -0.154 C  
BRANCH  28  29
HETATM   29  C   UNL     1      -9.843  10.001  65.571  1.00  0.00    -0.303 C  
BRANCH  29  30
HETATM   30  O   UNL     1     -10.417   9.481  66.767  1.00  0.00    -0.239 OA 
BRANCH  30  31
HETATM   31  C   UNL     1     -11.114  10.495  67.486  1.00  0.00    -0.290 C  
BRANCH  31  32
HETATM   32  C   UNL     1     -10.103  11.389  68.186  1.00  0.00    -0.189 C  
BRANCH  32  33
HETATM   33  O   UNL     1     -10.624  12.713  68.251  1.00  0.00    -0.222 OA 
BRANCH  33  34
HETATM   34  C   UNL     1     -10.867  13.234  66.948  1.00  0.00    -0.276 C  
BRANCH  34  35
HETATM   35  C   UNL     1     -10.856  14.754  67.014  1.00  0.00    -0.315 C  
BRANCH  35  36
HETATM   36  O   UNL     1     -11.614  15.174  68.145  1.00  0.00    -0.333 OA 
BRANCH  36  37
HETATM   37  C   UNL     1     -11.148  16.426  68.643  1.00  0.00    -0.352 C  
BRANCH  37  38
HETATM   38  C   UNL     1     -10.486  17.194  67.507  1.00  0.00    -0.348 C  
BRANCH  38  39
HETATM   39  O   UNL     1     -10.932  18.547  67.538  1.00  0.00    -0.371 OA 
BRANCH  39  40
HETATM   40  C   UNL     1     -10.280  19.284  68.571  1.00  0.00    -0.383 C  
BRANCH  40  41
HETATM   41  C   UNL     1      -8.793  19.372  68.258  1.00  0.00    -0.337 C  
BRANCH  41  42
HETATM   42  O   UNL     1      -8.576  20.384  67.276  1.00  0.00    -0.341 OA 
HETATM   43  C   UNL     1      -7.786  19.898  66.200  1.00  0.00    -0.325 C  
ENDBRANCH  41  42
ENDBRANCH  40  41
ENDBRANCH  39  40
ENDBRANCH  38  39
ENDBRANCH  37  38
ENDBRANCH  36  37
ENDBRANCH  35  36
ENDBRANCH  34  35
ENDBRANCH  33  34
ENDBRANCH  32  33
ENDBRANCH  31  32
ENDBRANCH  30  31
ENDBRANCH  29  30
ENDBRANCH  28  29
ENDBRANCH  27  28
ENDBRANCH  26  27
ENDBRANCH  25  26
ENDBRANCH  24  25
ENDBRANCH  23  24
ENDBRANCH  22  23
ENDBRANCH  21  22
ENDBRANCH  20  21
ENDBRANCH  19  20
ENDBRANCH  18  19
ENDBRANCH  17  18
ENDBRANCH  16  17
ENDBRANCH  15  16
ENDBRANCH  13  15
ENDBRANCH  10  13
ENDBRANCH   5   7
ENDBRANCH   4   5
ENDBRANCH   3   4
ENDBRANCH   2   3
TORSDOF 33
ENDMDL
MODEL       40
REMARK 921   NORMALIZED FREE ENERGY PREDICTED BY IDOCK:   -4.18 KCAL/MOL
REMARK 922        TOTAL FREE ENERGY PREDICTED BY IDOCK:  -15.03 KCAL/MOL
REMARK 923 INTER-LIGAND FREE ENERGY PREDICTED BY IDOCK:  -12.53 KCAL/MOL
REMARK 924 INTRA-LIGAND FREE ENERGY PREDICTED BY IDOCK:   -2.51 KCAL/MOL
REMARK 927      BINDING AFFINITY PREDICTED BY RF-SCORE:    0.00 PKD
ROOT
HETATM    1  C   UNL     1      -6.519   3.444  64.013  1.00  0.00    -0.031 C  
HETATM    2  C   UNL     1      -7.910   3.811  63.534  1.00  0.00    -0.075 C  
ENDROOT
BRANCH   2   3
HETATM    3  C   UNL     1      -8.527   4.941  64.363  1.00  0.00    -0.137 C  
BRANCH   3   4
HETATM    4  C   UNL     1      -9.656   4.383  65.222  1.00  0.00    -0.182 C  
BRANCH   4   5
HETATM    5  N   UNL     1     -10.420   5.447  65.865  1.00  0.00    -0.466 NA 
HETATM    6  H   UNL     1     -10.886   6.168  65.314  1.00  0.00     0.000 HD 
BRANCH   5   7
HETATM    7  C   UNL     1     -10.494   5.444  67.267  1.00  0.00    -0.210 A  
HETATM    8  C   UNL     1     -11.161   6.435  68.000  1.00  0.00    -0.365 A  
HETATM    9  C   UNL     1     -11.150   6.444  69.395  1.00  0.00    -0.450 A  
HETATM   10  C   UNL     1     -10.438   5.474  70.103  1.00  0.00    -0.370 A  
HETATM   11  C   UNL     1      -9.767   4.485  67.988  1.00  0.00    -0.192 A  
HETATM   12  C   UNL     1      -9.740   4.490  69.392  1.00  0.00    -0.272 A  
BRANCH  10  13
HETATM   13  C   UNL     1     -10.447   5.570  71.585  1.00  0.00    -0.231 C  
HETATM   14  O   UNL     1     -11.473   5.657  72.244  1.00  0.00    -0.274 OA 
BRANCH  13  15
HETATM   15  O   UNL     1      -9.190   5.580  72.084  1.00  0.00    -0.143 OA 
BRANCH  15  16
HETATM   16  C   UNL     1      -8.459   6.797  71.846  1.00  0.00    -0.116 C  
BRANCH  16  17
HETATM   17  C   UNL     1      -8.987   7.940  72.713  1.00  0.00    -0.198 C  
BRANCH  17  18
HETATM   18  O   UNL     1      -9.050   9.137  71.930  1.00  0.00    -0.354 OA 
BRANCH  18  19
HETATM   19  C   UNL     1      -8.165   9.072  70.814  1.00  0.00    -0.181 C  
BRANCH  19  20
HETATM   20  C   UNL     1      -8.862   9.625  69.579  1.00  0.00    -0.190 C  
BRANCH  20  21
HETATM   21  O   UNL     1      -8.603   8.762  68.473  1.00  0.00    -0.132 OA 
BRANCH  21  22
HETATM   22  C   UNL     1      -8.162   9.494  67.332  1.00  0.00    -0.114 C  
BRANCH  22  23
HETATM   23  C   UNL     1      -8.581  10.951  67.482  1.00  0.00    -0.127 C  
BRANCH  23  24
HETATM   24  O   UNL     1      -8.535  11.584  66.205  1.00  0.00    -0.154 OA 
BRANCH  24  25
HETATM   25  C   UNL     1      -8.850  10.664  65.162  1.00  0.00    -0.193 C  
BRANCH  25  26
HETATM   26  C   UNL     1     -10.289  10.888  64.720  1.00  0.00    -0.323 C  
BRANCH  26  27
HETATM   27  O   UNL     1     -10.289  11.563  63.465  1.00  0.00    -0.354 OA 
BRANCH  27  28
HETATM   28  C   UNL     1     -11.112  12.727  63.506  1.00  0.00    -0.325 C  
BRANCH  28  29
HETATM   29  C   UNL     1     -12.540  12.313  63.827  1.00  0.00    -0.470 C  
BRANCH  29  30
HETATM   30  O   UNL     1     -13.041  13.150  64.865  1.00  0.00    -0.744 OA 
BRANCH  30  31
HETATM   31  C   UNL     1     -11.991  13.893  65.479  1.00  0.00    -0.383 C  
BRANCH  31  32
HETATM   32  C   UNL     1     -11.807  13.403  66.907  1.00  0.00    -0.403 C  
BRANCH  32  33
HETATM   33  O   UNL     1     -12.389  14.349  67.798  1.00  0.00    -0.236 OA 
BRANCH  33  34
HETATM   34  C   UNL     1     -11.448  15.354  68.165  1.00  0.00    -0.343 C  
BRANCH  34  35
HETATM   35  C   UNL     1     -11.226  15.296  69.670  1.00  0.00    -0.278 C  
BRANCH  35  36
HETATM   36  O   UNL     1     -12.443  15.636  70.331  1.00  0.00    -0.414 OA 
BRANCH  36  37
HETATM   37  C   UNL     1     -12.231  15.849  71.724  1.00  0.00    -0.481 C  
BRANCH  37  38
HETATM   38  C   UNL     1     -13.450  15.358  72.491  1.00  0.00    -0.504 C  
BRANCH  38  39
HETATM   39  O   UNL     1     -13.205  14.036  72.961  1.00  0.00    -0.588 OA 
BRANCH  39  40
HETATM   40  C   UNL     1     -13.842  13.065  72.131  1.00  0.00    -0.358 C  
BRANCH  40  41
HETATM   41  C   UNL     1     -12.803  12.060  71.654  1.00  0.00    -0.294 C  
BRANCH  41  42
HETATM   42  O   UNL     1     -13.230  10.742  71.992  1.00  0.00    -0.484 OA 
HETATM   43  C   UNL     1     -12.358   9.760  71.449  1.00  0.00    -0.388 C  
ENDBRANCH  41  42
ENDBRANCH  40  41
ENDBRANCH  39  40
ENDBRANCH  38  39
ENDBRANCH  37  38
ENDBRANCH  36  37
ENDBRANCH  35  36
ENDBRANCH  34  35
ENDBRANCH  33  34
ENDBRANCH  32  33
ENDBRANCH  31  32
ENDBRANCH  30  31
ENDBRANCH  29  30
ENDBRANCH  28  29
ENDBRANCH  27  28
ENDBRANCH  26  27
ENDBRANCH  25  26
ENDBRANCH  24  25
ENDBRANCH  23  24
ENDBRANCH  22  23
ENDBRANCH  21  22
ENDBRANCH  20  21
ENDBRANCH  19  20
ENDBRANCH  18  19
ENDBRANCH  17  18
ENDBRANCH  16  17
ENDBRANCH  15  16
ENDBRANCH  13  15
ENDBRANCH  10  13
ENDBRANCH   5   7
ENDBRANCH   4   5
ENDBRANCH   3   4
ENDBRANCH   2   3
TORSDOF 33
ENDMDL
MODEL       41
REMARK 921   NORMALIZED FREE ENERGY PREDICTED BY IDOCK:   -4.16 KCAL/MOL
REMARK 922        TOTAL FREE ENERGY PREDICTED BY IDOCK:  -15.00 KCAL/MOL
REMARK 923 INTER-LIGAND FREE ENERGY PREDICTED BY IDOCK:  -12.21 KCAL/MOL
REMARK 924 INTRA-LIGAND FREE ENERGY PREDICTED BY IDOCK:   -2.78 KCAL/MOL
REMARK 927      BINDING AFFINITY PREDICTED BY RF-SCORE:    0.00 PKD
ROOT
HETATM    1  C   UNL     1      -6.769   2.132  66.622  1.00  0.00    -0.039 C  
HETATM    2  C   UNL     1      -7.264   2.534  65.245  1.00  0.00    -0.058 C  
ENDROOT
BRANCH   2   3
HETATM    3  C   UNL     1      -7.180   4.046  65.020  1.00  0.00    -0.067 C  
BRANCH   3   4
HETATM    4  C   UNL     1      -8.577   4.600  64.759  1.00  0.00    -0.142 C  
BRANCH   4   5
HETATM    5  N   UNL     1      -9.574   3.974  65.620  1.00  0.00    -0.178 NA 
HETATM    6  H   UNL     1     -10.036   3.106  65.347  1.00  0.00     0.000 HD 
BRANCH   5   7
HETATM    7  C   UNL     1      -9.878   4.605  66.837  1.00  0.00    -0.213 A  
HETATM    8  C   UNL     1      -9.504   4.085  68.083  1.00  0.00    -0.215 A  
HETATM    9  C   UNL     1      -9.888   4.698  69.276  1.00  0.00    -0.260 A  
HETATM   10  C   UNL     1     -10.692   5.839  69.258  1.00  0.00    -0.386 A  
HETATM   11  C   UNL     1     -10.701   5.741  66.830  1.00  0.00    -0.381 A  
HETATM   12  C   UNL     1     -11.102   6.361  68.025  1.00  0.00    -0.365 A  
BRANCH  10  13
HETATM   13  C   UNL     1     -11.086   6.414  70.569  1.00  0.00    -0.328 C  
HETATM   14  O   UNL     1     -10.470   6.205  71.604  1.00  0.00    -0.211 OA 
BRANCH  13  15
HETATM   15  O   UNL     1     -12.212   7.156  70.461  1.00  0.00    -0.244 OA 
BRANCH  15  16
HETATM   16  C   UNL     1     -13.145   6.992  71.546  1.00  0.00    -0.339 C  
BRANCH  16  17
HETATM   17  C   UNL     1     -14.039   8.222  71.700  1.00  0.00    -0.418 C  
BRANCH  17  18
HETATM   18  O   UNL     1     -13.354   9.209  72.479  1.00  0.00    -0.458 OA 
BRANCH  18  19
HETATM   19  C   UNL     1     -13.263  10.448  71.781  1.00  0.00    -0.424 C  
BRANCH  19  20
HETATM   20  C   UNL     1     -11.915  10.540  71.079  1.00  0.00    -0.364 C  
BRANCH  20  21
HETATM   21  O   UNL     1     -12.131  10.757  69.685  1.00  0.00    -0.308 OA 
BRANCH  21  22
HETATM   22  C   UNL     1     -10.940  10.537  68.933  1.00  0.00    -0.246 C  
BRANCH  22  23
HETATM   23  C   UNL     1     -11.189  10.921  67.480  1.00  0.00    -0.293 C  
BRANCH  23  24
HETATM   24  O   UNL     1      -9.968  10.807  66.752  1.00  0.00    -0.193 OA 
BRANCH  24  25
HETATM   25  C   UNL     1      -9.986   9.670  65.891  1.00  0.00    -0.281 C  
BRANCH  25  26
HETATM   26  C   UNL     1      -9.551  10.095  64.496  1.00  0.00    -0.311 C  
BRANCH  26  27
HETATM   27  O   UNL     1      -9.689  11.508  64.378  1.00  0.00    -0.234 OA 
BRANCH  27  28
HETATM   28  C   UNL     1     -10.457  11.857  63.228  1.00  0.00    -0.379 C  
BRANCH  28  29
HETATM   29  C   UNL     1     -11.918  11.990  63.630  1.00  0.00    -0.515 C  
BRANCH  29  30
HETATM   30  O   UNL     1     -12.019  12.928  64.698  1.00  0.00    -0.351 OA 
BRANCH  30  31
HETATM   31  C   UNL     1     -12.038  14.266  64.207  1.00  0.00    -0.441 C  
BRANCH  31  32
HETATM   32  C   UNL     1     -11.160  15.132  65.098  1.00  0.00    -0.403 C  
BRANCH  32  33
HETATM   33  O   UNL     1     -10.434  14.291  65.988  1.00  0.00    -0.285 OA 
BRANCH  33  34
HETATM   34  C   UNL     1     -10.278  14.907  67.263  1.00  0.00    -0.241 C  
BRANCH  34  35
HETATM   35  C   UNL     1      -9.493  16.199  67.094  1.00  0.00    -0.223 C  
BRANCH  35  36
HETATM   36  O   UNL     1      -9.631  16.983  68.277  1.00  0.00    -0.255 OA 
BRANCH  36  37
HETATM   37  C   UNL     1     -10.442  18.132  68.042  1.00  0.00    -0.371 C  
BRANCH  37  38
HETATM   38  C   UNL     1     -10.366  18.498  66.567  1.00  0.00    -0.414 C  
BRANCH  38  39
HETATM   39  O   UNL     1      -9.944  19.853  66.444  1.00  0.00    -0.410 OA 
BRANCH  39  40
HETATM   40  C   UNL     1      -8.594  19.935  65.989  1.00  0.00    -0.251 C  
BRANCH  40  41
HETATM   41  C   UNL     1      -7.722  20.474  67.114  1.00  0.00    -0.322 C  
BRANCH  41  42
HETATM   42  O   UNL     1      -6.680  19.541  67.395  1.00  0.00    -0.200 OA 
HETATM   43  C   UNL     1      -6.599  18.540  66.390  1.00  0.00    -0.201 C  
ENDBRANCH  41  42
ENDBRANCH  40  41
ENDBRANCH  39  40
ENDBRANCH  38  39
ENDBRANCH  37  38
ENDBRANCH  36  37
ENDBRANCH  35  36
ENDBRANCH  34  35
ENDBRANCH  33  34
ENDBRANCH  32  33
ENDBRANCH  31  32
ENDBRANCH  30  31
ENDBRANCH  29  30
ENDBRANCH  28  29
ENDBRANCH  27  28
ENDBRANCH  26  27
ENDBRANCH  25  26
ENDBRANCH  24  25
ENDBRANCH  23  24
ENDBRANCH  22  23
ENDBRANCH  21  22
ENDBRANCH  20  21
ENDBRANCH  19  20
ENDBRANCH  18  19
ENDBRANCH  17  18
ENDBRANCH  16  17
ENDBRANCH  15  16
ENDBRANCH  13  15
ENDBRANCH  10  13
ENDBRANCH   5   7
ENDBRANCH   4   5
ENDBRANCH   3   4
ENDBRANCH   2   3
TORSDOF 33
ENDMDL
MODEL       42
REMARK 921   NORMALIZED FREE ENERGY PREDICTED BY IDOCK:   -4.16 KCAL/MOL
REMARK 922        TOTAL FREE ENERGY PREDICTED BY IDOCK:  -14.98 KCAL/MOL
REMARK 923 INTER-LIGAND FREE ENERGY PREDICTED BY IDOCK:  -12.28 KCAL/MOL
REMARK 924 INTRA-LIGAND FREE ENERGY PREDICTED BY IDOCK:   -2.70 KCAL/MOL
REMARK 927      BINDING AFFINITY PREDICTED BY RF-SCORE:    0.00 PKD
ROOT
HETATM    1  C   UNL     1     -11.006   6.160  71.020  1.00  0.00    -0.354 C  
HETATM    2  C   UNL     1     -12.293   6.958  70.940  1.00  0.00    -0.365 C  
ENDROOT
BRANCH   2   3
HETATM    3  C   UNL     1     -12.361   8.053  72.008  1.00  0.00    -0.366 C  
BRANCH   3   4
HETATM    4  C   UNL     1     -13.592   8.921  71.769  1.00  0.00    -0.412 C  
BRANCH   4   5
HETATM    5  N   UNL     1     -13.464  10.225  72.410  1.00  0.00    -0.575 NA 
HETATM    6  H   UNL     1     -13.668  10.347  73.402  1.00  0.00     0.000 HD 
BRANCH   5   7
HETATM    7  C   UNL     1     -13.051  11.308  71.616  1.00  0.00    -0.408 A  
HETATM    8  C   UNL     1     -12.282  11.155  70.454  1.00  0.00    -0.457 A  
HETATM    9  C   UNL     1     -11.824  12.256  69.732  1.00  0.00    -0.388 A  
HETATM   10  C   UNL     1     -12.096  13.553  70.171  1.00  0.00    -0.425 A  
HETATM   11  C   UNL     1     -13.303  12.614  72.059  1.00  0.00    -0.555 A  
HETATM   12  C   UNL     1     -12.837  13.731  71.345  1.00  0.00    -0.449 A  
BRANCH  10  13
HETATM   13  C   UNL     1     -11.545  14.673  69.366  1.00  0.00    -0.305 C  
HETATM   14  O   UNL     1     -11.667  15.848  69.682  1.00  0.00    -0.333 OA 
BRANCH  13  15
HETATM   15  O   UNL     1     -10.934  14.220  68.248  1.00  0.00    -0.236 OA 
BRANCH  15  16
HETATM   16  C   UNL     1     -11.589  14.581  67.018  1.00  0.00    -0.386 C  
BRANCH  16  17
HETATM   17  C   UNL     1     -10.627  15.288  66.063  1.00  0.00    -0.319 C  
BRANCH  17  18
HETATM   18  O   UNL     1     -10.483  16.654  66.465  1.00  0.00    -0.302 OA 
BRANCH  18  19
HETATM   19  C   UNL     1     -10.696  17.542  65.370  1.00  0.00    -0.004 C  
BRANCH  19  20
HETATM   20  C   UNL     1     -10.546  18.981  65.845  1.00  0.00    -0.393 C  
BRANCH  20  21
HETATM   21  O   UNL     1     -10.908  19.055  67.224  1.00  0.00    -0.472 OA 
BRANCH  21  22
HETATM   22  C   UNL     1     -10.057  19.949  67.938  1.00  0.00    -0.436 C  
BRANCH  22  23
HETATM   23  C   UNL     1      -9.114  19.141  68.821  1.00  0.00    -0.353 C  
BRANCH  23  24
HETATM   24  O   UNL     1      -7.848  19.032  68.175  1.00  0.00    -0.279 OA 
BRANCH  24  25
HETATM   25  C   UNL     1      -7.074  17.972  68.733  1.00  0.00    -0.276 C  
BRANCH  25  26
HETATM   26  C   UNL     1      -7.618  16.642  68.231  1.00  0.00    -0.181 C  
BRANCH  26  27
HETATM   27  O   UNL     1      -7.912  15.809  69.349  1.00  0.00    -0.229 OA 
BRANCH  27  28
HETATM   28  C   UNL     1      -7.427  14.484  69.147  1.00  0.00    -0.118 C  
BRANCH  28  29
HETATM   29  C   UNL     1      -7.558  14.128  67.674  1.00  0.00    -0.180 C  
BRANCH  29  30
HETATM   30  O   UNL     1      -6.783  12.961  67.410  1.00  0.00    -0.158 OA 
BRANCH  30  31
HETATM   31  C   UNL     1      -7.596  11.791  67.420  1.00  0.00    -0.143 C  
BRANCH  31  32
HETATM   32  C   UNL     1      -8.795  12.014  66.510  1.00  0.00    -0.172 C  
BRANCH  32  33
HETATM   33  O   UNL     1      -9.891  11.246  66.995  1.00  0.00    -0.188 OA 
BRANCH  33  34
HETATM   34  C   UNL     1      -9.456   9.980  67.482  1.00  0.00    -0.148 C  
BRANCH  34  35
HETATM   35  C   UNL     1     -10.547   8.951  67.228  1.00  0.00    -0.234 C  
BRANCH  35  36
HETATM   36  O   UNL     1     -10.059   7.659  67.583  1.00  0.00    -0.166 OA 
BRANCH  36  37
HETATM   37  C   UNL     1     -10.849   6.629  66.996  1.00  0.00    -0.397 C  
BRANCH  37  38
HETATM   38  C   UNL     1      -9.928   5.621  66.324  1.00  0.00    -0.115 C  
BRANCH  38  39
HETATM   39  O   UNL     1     -10.711   4.553  65.797  1.00  0.00    -0.280 OA 
BRANCH  39  40
HETATM   40  C   UNL     1      -9.977   3.804  64.829  1.00  0.00    -0.187 C  
BRANCH  40  41
HETATM   41  C   UNL     1     -10.824   3.650  63.572  1.00  0.00    -0.183 C  
BRANCH  41  42
HETATM   42  O   UNL     1     -10.929   2.267  63.239  1.00  0.00    -0.228 OA 
HETATM   43  C   UNL     1      -9.827   1.528  63.749  1.00  0.00    -0.130 C  
ENDBRANCH  41  42
ENDBRANCH  40  41
ENDBRANCH  39  40
ENDBRANCH  38  39
ENDBRANCH  37  38
ENDBRANCH  36  37
ENDBRANCH  35  36
ENDBRANCH  34  35
ENDBRANCH  33  34
ENDBRANCH  32  33
ENDBRANCH  31  32
ENDBRANCH  30  31
ENDBRANCH  29  30
ENDBRANCH  28  29
ENDBRANCH  27  28
ENDBRANCH  26  27
ENDBRANCH  25  26
ENDBRANCH  24  25
ENDBRANCH  23  24
ENDBRANCH  22  23
ENDBRANCH  21  22
ENDBRANCH  20  21
ENDBRANCH  19  20
ENDBRANCH  18  19
ENDBRANCH  17  18
ENDBRANCH  16  17
ENDBRANCH  15  16
ENDBRANCH  13  15
ENDBRANCH  10  13
ENDBRANCH   5   7
ENDBRANCH   4   5
ENDBRANCH   3   4
ENDBRANCH   2   3
TORSDOF 33
ENDMDL
MODEL       43
REMARK 921   NORMALIZED FREE ENERGY PREDICTED BY IDOCK:   -4.14 KCAL/MOL
REMARK 922        TOTAL FREE ENERGY PREDICTED BY IDOCK:  -14.93 KCAL/MOL
REMARK 923 INTER-LIGAND FREE ENERGY PREDICTED BY IDOCK:  -11.67 KCAL/MOL
REMARK 924 INTRA-LIGAND FREE ENERGY PREDICTED BY IDOCK:   -3.26 KCAL/MOL
REMARK 927      BINDING AFFINITY PREDICTED BY RF-SCORE:    0.00 PKD
ROOT
HETATM    1  C   UNL     1     -12.527  12.001  63.565  1.00  0.00    -0.654 C  
HETATM    2  C   UNL     1     -11.417  12.150  64.588  1.00  0.00    -0.388 C  
ENDROOT
BRANCH   2   3
HETATM    3  C   UNL     1     -10.653  13.466  64.425  1.00  0.00    -0.423 C  
BRANCH   3   4
HETATM    4  C   UNL     1     -11.468  14.606  65.025  1.00  0.00    -0.386 C  
BRANCH   4   5
HETATM    5  N   UNL     1     -10.655  15.453  65.891  1.00  0.00    -0.322 NA 
HETATM    6  H   UNL     1      -9.861  15.975  65.522  1.00  0.00     0.000 HD 
BRANCH   5   7
HETATM    7  C   UNL     1     -11.003  15.524  67.250  1.00  0.00    -0.303 A  
HETATM    8  C   UNL     1     -10.529  16.524  68.110  1.00  0.00    -0.313 A  
HETATM    9  C   UNL     1     -10.833  16.521  69.471  1.00  0.00    -0.315 A  
HETATM   10  C   UNL     1     -11.598  15.492  70.023  1.00  0.00    -0.356 A  
HETATM   11  C   UNL     1     -11.756  14.485  67.818  1.00  0.00    -0.403 A  
HETATM   12  C   UNL     1     -12.059  14.467  69.189  1.00  0.00    -0.316 A  
BRANCH  10  13
HETATM   13  C   UNL     1     -11.850  15.542  71.486  1.00  0.00    -0.406 C  
HETATM   14  O   UNL     1     -11.883  16.585  72.124  1.00  0.00    -0.501 OA 
BRANCH  13  15
HETATM   15  O   UNL     1     -12.003  14.301  72.000  1.00  0.00    -0.155 OA 
BRANCH  15  16
HETATM   16  C   UNL     1     -13.336  13.999  72.453  1.00  0.00    -0.518 C  
BRANCH  16  17
HETATM   17  C   UNL     1     -13.739  12.572  72.083  1.00  0.00    -0.243 C  
BRANCH  17  18
HETATM   18  O   UNL     1     -12.622  11.907  71.483  1.00  0.00    -0.291 OA 
BRANCH  18  19
HETATM   19  C   UNL     1     -13.018  10.686  70.864  1.00  0.00    -0.340 C  
BRANCH  19  20
HETATM   20  C   UNL     1     -11.978  10.279  69.829  1.00  0.00    -0.106 C  
BRANCH  20  21
HETATM   21  O   UNL     1     -11.358   9.064  70.247  1.00  0.00    -0.251 OA 
BRANCH  21  22
HETATM   22  C   UNL     1     -11.929   8.577  71.459  1.00  0.00    -0.303 C  
BRANCH  22  23
HETATM   23  C   UNL     1     -10.810   8.200  72.422  1.00  0.00    -0.339 C  
BRANCH  23  24
HETATM   24  O   UNL     1     -11.207   7.054  73.173  1.00  0.00    -0.253 OA 
BRANCH  24  25
HETATM   25  C   UNL     1     -10.184   6.652  74.081  1.00  0.00    -0.363 C  
BRANCH  25  26
HETATM   26  C   UNL     1     -10.380   5.185  74.434  1.00  0.00    -0.279 C  
BRANCH  26  27
HETATM   27  O   UNL     1     -11.326   4.614  73.533  1.00  0.00    -0.321 OA 
BRANCH  27  28
HETATM   28  C   UNL     1     -10.944   3.294  73.154  1.00  0.00    -0.103 C  
BRANCH  28  29
HETATM   29  C   UNL     1      -9.749   3.373  72.217  1.00  0.00    -0.152 C  
BRANCH  29  30
HETATM   30  O   UNL     1     -10.062   4.257  71.145  1.00  0.00    -0.179 OA 
BRANCH  30  31
HETATM   31  C   UNL     1      -9.008   5.191  70.925  1.00  0.00    -0.135 C  
BRANCH  31  32
HETATM   32  C   UNL     1      -9.373   6.079  69.744  1.00  0.00    -0.149 C  
BRANCH  32  33
HETATM   33  O   UNL     1     -10.661   5.705  69.266  1.00  0.00    -0.267 OA 
BRANCH  33  34
HETATM   34  C   UNL     1     -10.816   6.045  67.891  1.00  0.00    -0.290 C  
BRANCH  34  35
HETATM   35  C   UNL     1      -9.940   7.249  67.579  1.00  0.00    -0.169 C  
BRANCH  35  36
HETATM   36  O   UNL     1     -10.735   8.249  66.946  1.00  0.00    -0.299 OA 
BRANCH  36  37
HETATM   37  C   UNL     1      -9.976   9.428  66.694  1.00  0.00    -0.258 C  
BRANCH  37  38
HETATM   38  C   UNL     1      -8.527   9.178  67.088  1.00  0.00    -0.120 C  
BRANCH  38  39
HETATM   39  O   UNL     1      -8.035  10.311  67.800  1.00  0.00    -0.101 OA 
BRANCH  39  40
HETATM   40  C   UNL     1      -8.135  10.119  69.210  1.00  0.00    -0.149 C  
BRANCH  40  41
HETATM   41  C   UNL     1      -6.763   9.761  69.763  1.00  0.00    -0.069 C  
BRANCH  41  42
HETATM   42  O   UNL     1      -6.837   9.660  71.184  1.00  0.00    -0.287 OA 
HETATM   43  C   UNL     1      -7.285   8.373  71.587  1.00  0.00    -0.091 C  
ENDBRANCH  41  42
ENDBRANCH  40  41
ENDBRANCH  39  40
ENDBRANCH  38  39
ENDBRANCH  37  38
ENDBRANCH  36  37
ENDBRANCH  35  36
ENDBRANCH  34  35
ENDBRANCH  33  34
ENDBRANCH  32  33
ENDBRANCH  31  32
ENDBRANCH  30  31
ENDBRANCH  29  30
ENDBRANCH  28  29
ENDBRANCH  27  28
ENDBRANCH  26  27
ENDBRANCH  25  26
ENDBRANCH  24  25
ENDBRANCH  23  24
ENDBRANCH  22  23
ENDBRANCH  21  22
ENDBRANCH  20  21
ENDBRANCH  19  20
ENDBRANCH  18  19
ENDBRANCH  17  18
ENDBRANCH  16  17
ENDBRANCH  15  16
ENDBRANCH  13  15
ENDBRANCH  10  13
ENDBRANCH   5   7
ENDBRANCH   4   5
ENDBRANCH   3   4
ENDBRANCH   2   3
TORSDOF 33
ENDMDL
MODEL       44
REMARK 921   NORMALIZED FREE ENERGY PREDICTED BY IDOCK:   -4.14 KCAL/MOL
REMARK 922        TOTAL FREE ENERGY PREDICTED BY IDOCK:  -14.93 KCAL/MOL
REMARK 923 INTER-LIGAND FREE ENERGY PREDICTED BY IDOCK:  -12.31 KCAL/MOL
REMARK 924 INTRA-LIGAND FREE ENERGY PREDICTED BY IDOCK:   -2.61 KCAL/MOL
REMARK 927      BINDING AFFINITY PREDICTED BY RF-SCORE:    0.00 PKD
ROOT
HETATM    1  C   UNL     1      -5.398  10.732  62.801  1.00  0.00    -0.177 C  
HETATM    2  C   UNL     1      -5.515   9.233  62.601  1.00  0.00    -0.084 C  
ENDROOT
BRANCH   2   3
HETATM    3  C   UNL     1      -6.944   8.730  62.821  1.00  0.00    -0.089 C  
BRANCH   3   4
HETATM    4  C   UNL     1      -7.820   9.882  63.301  1.00  0.00    -0.146 C  
BRANCH   4   5
HETATM    5  N   UNL     1      -9.048   9.402  63.925  1.00  0.00    -0.422 NA 
HETATM    6  H   UNL     1      -9.253   8.405  63.985  1.00  0.00     0.000 HD 
BRANCH   5   7
HETATM    7  C   UNL     1      -9.937  10.359  64.442  1.00  0.00    -0.318 A  
HETATM    8  C   UNL     1     -10.585  11.311  63.644  1.00  0.00    -0.453 A  
HETATM    9  C   UNL     1     -11.402  12.295  64.199  1.00  0.00    -0.442 A  
HETATM   10  C   UNL     1     -11.571  12.377  65.582  1.00  0.00    -0.441 A  
HETATM   11  C   UNL     1     -10.099  10.460  65.831  1.00  0.00    -0.326 A  
HETATM   12  C   UNL     1     -10.911  11.454  66.402  1.00  0.00    -0.315 A  
BRANCH  10  13
HETATM   13  C   UNL     1     -12.430  13.472  66.099  1.00  0.00    -0.365 C  
HETATM   14  O   UNL     1     -13.147  14.156  65.382  1.00  0.00    -0.743 OA 
BRANCH  13  15
HETATM   15  O   UNL     1     -12.286  13.621  67.436  1.00  0.00    -0.350 OA 
BRANCH  15  16
HETATM   16  C   UNL     1     -11.718  14.880  67.841  1.00  0.00    -0.321 C  
BRANCH  16  17
HETATM   17  C   UNL     1     -11.329  14.864  69.319  1.00  0.00    -0.296 C  
BRANCH  17  18
HETATM   18  O   UNL     1     -11.982  15.945  69.991  1.00  0.00    -0.342 OA 
BRANCH  18  19
HETATM   19  C   UNL     1     -13.030  15.473  70.836  1.00  0.00    -0.467 C  
BRANCH  19  20
HETATM   20  C   UNL     1     -12.584  15.549  72.290  1.00  0.00    -0.396 C  
BRANCH  20  21
HETATM   21  O   UNL     1     -12.929  14.330  72.946  1.00  0.00    -0.476 OA 
BRANCH  21  22
HETATM   22  C   UNL     1     -13.765  13.517  72.126  1.00  0.00    -0.559 C  
BRANCH  22  23
HETATM   23  C   UNL     1     -13.135  12.137  71.985  1.00  0.00    -0.357 C  
BRANCH  23  24
HETATM   24  O   UNL     1     -12.341  12.105  70.801  1.00  0.00    -0.376 OA 
BRANCH  24  25
HETATM   25  C   UNL     1     -12.182  10.772  70.321  1.00  0.00    -0.348 C  
BRANCH  25  26
HETATM   26  C   UNL     1     -12.380   9.801  71.476  1.00  0.00    -0.405 C  
BRANCH  26  27
HETATM   27  O   UNL     1     -11.164   9.092  71.700  1.00  0.00    -0.333 OA 
BRANCH  27  28
HETATM   28  C   UNL     1     -11.374   7.961  72.541  1.00  0.00    -0.390 C  
BRANCH  28  29
HETATM   29  C   UNL     1     -12.118   6.891  71.756  1.00  0.00    -0.346 C  
BRANCH  29  30
HETATM   30  O   UNL     1     -11.814   5.615  72.313  1.00  0.00    -0.226 OA 
BRANCH  30  31
HETATM   31  C   UNL     1     -10.652   5.677  73.136  1.00  0.00    -0.247 C  
BRANCH  31  32
HETATM   32  C   UNL     1      -9.626   4.680  72.618  1.00  0.00    -0.136 C  
BRANCH  32  33
HETATM   33  O   UNL     1      -9.100   5.159  71.384  1.00  0.00    -0.140 OA 
BRANCH  33  34
HETATM   34  C   UNL     1      -7.804   4.621  71.135  1.00  0.00    -0.082 C  
BRANCH  34  35
HETATM   35  C   UNL     1      -7.713   4.210  69.673  1.00  0.00    -0.053 C  
BRANCH  35  36
HETATM   36  O   UNL     1      -8.971   4.446  69.046  1.00  0.00    -0.096 OA 
BRANCH  36  37
HETATM   37  C   UNL     1      -8.967   3.993  67.695  1.00  0.00    -0.129 C  
BRANCH  37  38
HETATM   38  C   UNL     1      -9.986   4.797  66.900  1.00  0.00    -0.217 C  
BRANCH  38  39
HETATM   39  O   UNL     1     -10.807   5.533  67.803  1.00  0.00    -0.171 OA 
BRANCH  39  40
HETATM   40  C   UNL     1     -11.000   6.873  67.351  1.00  0.00    -0.304 C  
BRANCH  40  41
HETATM   41  C   UNL     1     -10.471   7.835  68.406  1.00  0.00    -0.166 C  
BRANCH  41  42
HETATM   42  O   UNL     1      -9.063   7.991  68.241  1.00  0.00    -0.136 OA 
HETATM   43  C   UNL     1      -8.475   8.611  69.376  1.00  0.00    -0.126 C  
ENDBRANCH  41  42
ENDBRANCH  40  41
ENDBRANCH  39  40
ENDBRANCH  38  39
ENDBRANCH  37  38
ENDBRANCH  36  37
ENDBRANCH  35  36
ENDBRANCH  34  35
ENDBRANCH  33  34
ENDBRANCH  32  33
ENDBRANCH  31  32
ENDBRANCH  30  31
ENDBRANCH  29  30
ENDBRANCH  28  29
ENDBRANCH  27  28
ENDBRANCH  26  27
ENDBRANCH  25  26
ENDBRANCH  24  25
ENDBRANCH  23  24
ENDBRANCH  22  23
ENDBRANCH  21  22
ENDBRANCH  20  21
ENDBRANCH  19  20
ENDBRANCH  18  19
ENDBRANCH  17  18
ENDBRANCH  16  17
ENDBRANCH  15  16
ENDBRANCH  13  15
ENDBRANCH  10  13
ENDBRANCH   5   7
ENDBRANCH   4   5
ENDBRANCH   3   4
ENDBRANCH   2   3
TORSDOF 33
ENDMDL
MODEL       45
REMARK 921   NORMALIZED FREE ENERGY PREDICTED BY IDOCK:   -4.14 KCAL/MOL
REMARK 922        TOTAL FREE ENERGY PREDICTED BY IDOCK:  -14.92 KCAL/MOL
REMARK 923 INTER-LIGAND FREE ENERGY PREDICTED BY IDOCK:  -12.06 KCAL/MOL
REMARK 924 INTRA-LIGAND FREE ENERGY PREDICTED BY IDOCK:   -2.86 KCAL/MOL
REMARK 927      BINDING AFFINITY PREDICTED BY RF-SCORE:    0.00 PKD
ROOT
HETATM    1  C   UNL     1     -11.969  16.052  72.277  1.00  0.00    -0.633 C  
HETATM    2  C   UNL     1     -13.074  15.383  71.483  1.00  0.00    -0.545 C  
ENDROOT
BRANCH   2   3
HETATM    3  C   UNL     1     -13.681  14.192  72.229  1.00  0.00    -0.623 C  
BRANCH   3   4
HETATM    4  C   UNL     1     -13.062  12.898  71.711  1.00  0.00    -0.360 C  
BRANCH   4   5
HETATM    5  N   UNL     1     -13.652  11.726  72.347  1.00  0.00    -0.449 NA 
HETATM    6  H   UNL     1     -14.359  11.821  73.076  1.00  0.00     0.000 HD 
BRANCH   5   7
HETATM    7  C   UNL     1     -13.213  10.460  71.923  1.00  0.00    -0.429 A  
HETATM    8  C   UNL     1     -13.855   9.268  72.283  1.00  0.00    -0.492 A  
HETATM    9  C   UNL     1     -13.349   8.024  71.907  1.00  0.00    -0.336 A  
HETATM   10  C   UNL     1     -12.159   7.934  71.183  1.00  0.00    -0.294 A  
HETATM   11  C   UNL     1     -12.009  10.358  71.211  1.00  0.00    -0.425 A  
HETATM   12  C   UNL     1     -11.484   9.110  70.837  1.00  0.00    -0.357 A  
BRANCH  10  13
HETATM   13  C   UNL     1     -11.667   6.573  70.849  1.00  0.00    -0.356 C  
HETATM   14  O   UNL     1     -11.252   5.787  71.689  1.00  0.00    -0.259 OA 
BRANCH  13  15
HETATM   15  O   UNL     1     -11.714   6.346  69.517  1.00  0.00    -0.366 OA 
BRANCH  15  16
HETATM   16  C   UNL     1     -10.553   5.688  68.979  1.00  0.00    -0.246 C  
BRANCH  16  17
HETATM   17  C   UNL     1      -9.349   6.630  68.940  1.00  0.00    -0.128 C  
BRANCH  17  18
HETATM   18  O   UNL     1      -8.157   5.883  69.206  1.00  0.00    -0.103 OA 
BRANCH  18  19
HETATM   19  C   UNL     1      -8.458   4.531  69.542  1.00  0.00    -0.076 C  
BRANCH  19  20
HETATM   20  C   UNL     1      -7.595   3.596  68.706  1.00  0.00    -0.053 C  
BRANCH  20  21
HETATM   21  O   UNL     1      -8.429   2.885  67.793  1.00  0.00    -0.079 OA 
BRANCH  21  22
HETATM   22  C   UNL     1      -8.031   3.106  66.442  1.00  0.00    -0.084 C  
BRANCH  22  23
HETATM   23  C   UNL     1      -9.025   4.050  65.777  1.00  0.00    -0.131 C  
BRANCH  23  24
HETATM   24  O   UNL     1      -8.475   5.366  65.753  1.00  0.00    -0.121 OA 
BRANCH  24  25
HETATM   25  C   UNL     1      -8.100   5.744  64.430  1.00  0.00    -0.133 C  
BRANCH  25  26
HETATM   26  C   UNL     1      -7.755   7.226  64.417  1.00  0.00    -0.120 C  
BRANCH  26  27
HETATM   27  O   UNL     1      -7.696   7.701  65.759  1.00  0.00    -0.091 OA 
BRANCH  27  28
HETATM   28  C   UNL     1      -7.529   9.117  65.798  1.00  0.00    -0.090 C  
BRANCH  28  29
HETATM   29  C   UNL     1      -8.670   9.729  66.597  1.00  0.00    -0.131 C  
BRANCH  29  30
HETATM   30  O   UNL     1      -8.178  10.124  67.874  1.00  0.00    -0.109 OA 
BRANCH  30  31
HETATM   31  C   UNL     1      -8.719  11.382  68.267  1.00  0.00    -0.160 C  
BRANCH  31  32
HETATM   32  C   UNL     1      -8.349  12.427  67.225  1.00  0.00    -0.184 C  
BRANCH  32  33
HETATM   33  O   UNL     1      -9.484  13.248  66.972  1.00  0.00    -0.227 OA 
BRANCH  33  34
HETATM   34  C   UNL     1     -10.238  13.463  68.162  1.00  0.00    -0.246 C  
BRANCH  34  35
HETATM   35  C   UNL     1     -11.630  13.946  67.784  1.00  0.00    -0.347 C  
BRANCH  35  36
HETATM   36  O   UNL     1     -11.566  14.601  66.520  1.00  0.00    -0.361 OA 
BRANCH  36  37
HETATM   37  C   UNL     1     -12.602  14.150  65.651  1.00  0.00    -0.470 C  
BRANCH  37  38
HETATM   38  C   UNL     1     -12.519  12.635  65.527  1.00  0.00    -0.276 C  
BRANCH  38  39
HETATM   39  O   UNL     1     -13.170  12.229  64.326  1.00  0.00    -0.785 OA 
BRANCH  39  40
HETATM   40  C   UNL     1     -12.228  12.006  63.278  1.00  0.00    -0.421 C  
BRANCH  40  41
HETATM   41  C   UNL     1     -10.881  11.643  63.888  1.00  0.00    -0.405 C  
BRANCH  41  42
HETATM   42  O   UNL     1     -10.279  10.602  63.121  1.00  0.00    -0.250 OA 
HETATM   43  C   UNL     1      -8.920  10.895  62.827  1.00  0.00    -0.305 C  
ENDBRANCH  41  42
ENDBRANCH  40  41
ENDBRANCH  39  40
ENDBRANCH  38  39
ENDBRANCH  37  38
ENDBRANCH  36  37
ENDBRANCH  35  36
ENDBRANCH  34  35
ENDBRANCH  33  34
ENDBRANCH  32  33
ENDBRANCH  31  32
ENDBRANCH  30  31
ENDBRANCH  29  30
ENDBRANCH  28  29
ENDBRANCH  27  28
ENDBRANCH  26  27
ENDBRANCH  25  26
ENDBRANCH  24  25
ENDBRANCH  23  24
ENDBRANCH  22  23
ENDBRANCH  21  22
ENDBRANCH  20  21
ENDBRANCH  19  20
ENDBRANCH  18  19
ENDBRANCH  17  18
ENDBRANCH  16  17
ENDBRANCH  15  16
ENDBRANCH  13  15
ENDBRANCH  10  13
ENDBRANCH   5   7
ENDBRANCH   4   5
ENDBRANCH   3   4
ENDBRANCH   2   3
TORSDOF 33
ENDMDL
MODEL       46
REMARK 921   NORMALIZED FREE ENERGY PREDICTED BY IDOCK:   -4.11 KCAL/MOL
REMARK 922        TOTAL FREE ENERGY PREDICTED BY IDOCK:  -14.83 KCAL/MOL
REMARK 923 INTER-LIGAND FREE ENERGY PREDICTED BY IDOCK:  -12.26 KCAL/MOL
REMARK 924 INTRA-LIGAND FREE ENERGY PREDICTED BY IDOCK:   -2.58 KCAL/MOL
REMARK 927      BINDING AFFINITY PREDICTED BY RF-SCORE:    0.00 PKD
ROOT
HETATM    1  C   UNL     1      -5.954  19.229  64.946  1.00  0.00    -0.306 C  
HETATM    2  C   UNL     1      -7.075  20.063  65.535  1.00  0.00    -0.336 C  
ENDROOT
BRANCH   2   3
HETATM    3  C   UNL     1      -6.666  20.737  66.848  1.00  0.00    -0.366 C  
BRANCH   3   4
HETATM    4  C   UNL     1      -7.538  20.212  67.983  1.00  0.00    -0.243 C  
BRANCH   4   5
HETATM    5  N   UNL     1      -7.206  18.834  68.326  1.00  0.00    -0.252 NA 
HETATM    6  H   UNL     1      -6.237  18.543  68.458  1.00  0.00     0.000 HD 
BRANCH   5   7
HETATM    7  C   UNL     1      -8.264  17.921  68.469  1.00  0.00    -0.295 A  
HETATM    8  C   UNL     1      -8.085  16.608  68.923  1.00  0.00    -0.235 A  
HETATM    9  C   UNL     1      -9.146  15.704  68.980  1.00  0.00    -0.241 A  
HETATM   10  C   UNL     1     -10.420  16.081  68.551  1.00  0.00    -0.258 A  
HETATM   11  C   UNL     1      -9.543  18.284  68.023  1.00  0.00    -0.314 A  
HETATM   12  C   UNL     1     -10.617  17.379  68.066  1.00  0.00    -0.389 A  
BRANCH  10  13
HETATM   13  C   UNL     1     -11.490  15.052  68.611  1.00  0.00    -0.311 C  
HETATM   14  O   UNL     1     -11.702  14.365  69.600  1.00  0.00    -0.272 OA 
BRANCH  13  15
HETATM   15  O   UNL     1     -12.156  14.967  67.438  1.00  0.00    -0.246 OA 
BRANCH  15  16
HETATM   16  C   UNL     1     -11.866  13.785  66.668  1.00  0.00    -0.412 C  
BRANCH  16  17
HETATM   17  C   UNL     1     -12.500  13.857  65.279  1.00  0.00    -0.478 C  
BRANCH  17  18
HETATM   18  O   UNL     1     -12.996  12.564  64.919  1.00  0.00    -0.821 OA 
BRANCH  18  19
HETATM   19  C   UNL     1     -12.533  12.172  63.629  1.00  0.00    -0.549 C  
BRANCH  19  20
HETATM   20  C   UNL     1     -11.014  12.061  63.646  1.00  0.00    -0.448 C  
BRANCH  20  21
HETATM   21  O   UNL     1     -10.639  10.947  64.455  1.00  0.00    -0.360 OA 
BRANCH  21  22
HETATM   22  C   UNL     1      -9.464  10.313  63.954  1.00  0.00    -0.302 C  
BRANCH  22  23
HETATM   23  C   UNL     1      -8.678   9.726  65.119  1.00  0.00    -0.168 C  
BRANCH  23  24
HETATM   24  O   UNL     1      -8.366   8.364  64.834  1.00  0.00    -0.158 OA 
BRANCH  24  25
HETATM   25  C   UNL     1      -8.009   7.657  66.020  1.00  0.00    -0.112 C  
BRANCH  25  26
HETATM   26  C   UNL     1      -9.255   7.454  66.871  1.00  0.00    -0.152 C  
BRANCH  26  27
HETATM   27  O   UNL     1      -8.881   6.840  68.101  1.00  0.00    -0.122 OA 
BRANCH  27  28
HETATM   28  C   UNL     1      -9.923   6.004  68.598  1.00  0.00    -0.149 C  
BRANCH  28  29
HETATM   29  C   UNL     1      -9.870   5.995  70.118  1.00  0.00    -0.173 C  
BRANCH  29  30
HETATM   30  O   UNL     1     -11.109   5.503  70.620  1.00  0.00    -0.198 OA 
BRANCH  30  31
HETATM   31  C   UNL     1     -11.433   6.104  71.871  1.00  0.00    -0.300 C  
BRANCH  31  32
HETATM   32  C   UNL     1     -12.597   7.062  71.673  1.00  0.00    -0.380 C  
BRANCH  32  33
HETATM   33  O   UNL     1     -12.347   8.252  72.414  1.00  0.00    -0.353 OA 
BRANCH  33  34
HETATM   34  C   UNL     1     -13.475   9.122  72.383  1.00  0.00    -0.476 C  
BRANCH  34  35
HETATM   35  C   UNL     1     -13.036  10.480  71.856  1.00  0.00    -0.447 C  
BRANCH  35  36
HETATM   36  O   UNL     1     -12.897  10.405  70.440  1.00  0.00    -0.314 OA 
BRANCH  36  37
HETATM   37  C   UNL     1     -11.645  10.939  70.015  1.00  0.00    -0.341 C  
BRANCH  37  38
HETATM   38  C   UNL     1     -11.577  10.891  68.495  1.00  0.00    -0.290 C  
BRANCH  38  39
HETATM   39  O   UNL     1     -10.218  10.739  68.094  1.00  0.00    -0.163 OA 
BRANCH  39  40
HETATM   40  C   UNL     1      -9.455  11.906  68.399  1.00  0.00    -0.189 C  
BRANCH  40  41
HETATM   41  C   UNL     1      -7.973  11.573  68.291  1.00  0.00    -0.142 C  
BRANCH  41  42
HETATM   42  O   UNL     1      -7.565  10.849  69.449  1.00  0.00    -0.142 OA 
HETATM   43  C   UNL     1      -6.995   9.595  69.101  1.00  0.00    -0.050 C  
ENDBRANCH  41  42
ENDBRANCH  40  41
ENDBRANCH  39  40
ENDBRANCH  38  39
ENDBRANCH  37  38
ENDBRANCH  36  37
ENDBRANCH  35  36
ENDBRANCH  34  35
ENDBRANCH  33  34
ENDBRANCH  32  33
ENDBRANCH  31  32
ENDBRANCH  30  31
ENDBRANCH  29  30
ENDBRANCH  28  29
ENDBRANCH  27  28
ENDBRANCH  26  27
ENDBRANCH  25  26
ENDBRANCH  24  25
ENDBRANCH  23  24
ENDBRANCH  22  23
ENDBRANCH  21  22
ENDBRANCH  20  21
ENDBRANCH  19  20
ENDBRANCH  18  19
ENDBRANCH  17  18
ENDBRANCH  16  17
ENDBRANCH  15  16
ENDBRANCH  13  15
ENDBRANCH  10  13
ENDBRANCH   5   7
ENDBRANCH   4   5
ENDBRANCH   3   4
ENDBRANCH   2   3
TORSDOF 33
ENDMDL
MODEL       47
REMARK 921   NORMALIZED FREE ENERGY PREDICTED BY IDOCK:   -4.09 KCAL/MOL
REMARK 922        TOTAL FREE ENERGY PREDICTED BY IDOCK:  -14.78 KCAL/MOL
REMARK 923 INTER-LIGAND FREE ENERGY PREDICTED BY IDOCK:  -11.54 KCAL/MOL
REMARK 924 INTRA-LIGAND FREE ENERGY PREDICTED BY IDOCK:   -3.23 KCAL/MOL
REMARK 927      BINDING AFFINITY PREDICTED BY RF-SCORE:    0.00 PKD
ROOT
HETATM    1  C   UNL     1     -10.359   5.346  74.474  1.00  0.00    -0.272 C  
HETATM    2  C   UNL     1     -11.025   4.791  73.229  1.00  0.00    -0.390 C  
ENDROOT
BRANCH   2   3
HETATM    3  C   UNL     1     -10.198   3.679  72.579  1.00  0.00    -0.229 C  
BRANCH   3   4
HETATM    4  C   UNL     1      -9.762   4.117  71.185  1.00  0.00    -0.188 C  
BRANCH   4   5
HETATM    5  N   UNL     1     -10.644   5.145  70.643  1.00  0.00    -0.199 NA 
HETATM    6  H   UNL     1     -11.538   5.359  71.084  1.00  0.00     0.000 HD 
BRANCH   5   7
HETATM    7  C   UNL     1     -10.220   5.830  69.492  1.00  0.00    -0.239 A  
HETATM    8  C   UNL     1     -11.108   6.403  68.572  1.00  0.00    -0.385 A  
HETATM    9  C   UNL     1     -10.655   7.010  67.401  1.00  0.00    -0.372 A  
HETATM   10  C   UNL     1      -9.293   7.033  67.097  1.00  0.00    -0.166 A  
HETATM   11  C   UNL     1      -8.855   5.843  69.169  1.00  0.00    -0.117 A  
HETATM   12  C   UNL     1      -8.389   6.442  67.987  1.00  0.00    -0.115 A  
BRANCH  10  13
HETATM   13  C   UNL     1      -8.892   7.668  65.816  1.00  0.00    -0.100 C  
HETATM   14  O   UNL     1      -8.087   7.168  65.044  1.00  0.00    -0.125 OA 
BRANCH  13  15
HETATM   15  O   UNL     1      -9.506   8.861  65.646  1.00  0.00    -0.229 OA 
BRANCH  15  16
HETATM   16  C   UNL     1      -9.108   9.578  64.463  1.00  0.00    -0.197 C  
BRANCH  16  17
HETATM   17  C   UNL     1      -9.661  11.003  64.463  1.00  0.00    -0.273 C  
BRANCH  17  18
HETATM   18  O   UNL     1     -10.405  11.221  63.260  1.00  0.00    -0.362 OA 
BRANCH  18  19
HETATM   19  C   UNL     1     -11.248  12.365  63.373  1.00  0.00    -0.422 C  
BRANCH  19  20
HETATM   20  C   UNL     1     -12.664  11.922  63.716  1.00  0.00    -0.350 C  
BRANCH  20  21
HETATM   21  O   UNL     1     -13.146  12.709  64.805  1.00  0.00    -0.852 OA 
BRANCH  21  22
HETATM   22  C   UNL     1     -12.185  13.682  65.209  1.00  0.00    -0.439 C  
BRANCH  22  23
HETATM   23  C   UNL     1     -12.184  13.779  66.730  1.00  0.00    -0.397 C  
BRANCH  23  24
HETATM   24  O   UNL     1     -10.891  13.428  67.219  1.00  0.00    -0.264 OA 
BRANCH  24  25
HETATM   25  C   UNL     1     -10.763  13.735  68.605  1.00  0.00    -0.256 C  
BRANCH  25  26
HETATM   26  C   UNL     1     -11.893  14.668  69.014  1.00  0.00    -0.310 C  
BRANCH  26  27
HETATM   27  O   UNL     1     -11.885  14.813  70.432  1.00  0.00    -0.262 OA 
BRANCH  27  28
HETATM   28  C   UNL     1     -13.067  15.465  70.891  1.00  0.00    -0.468 C  
BRANCH  28  29
HETATM   29  C   UNL     1     -13.833  14.518  71.801  1.00  0.00    -0.441 C  
BRANCH  29  30
HETATM   30  O   UNL     1     -12.940  13.519  72.284  1.00  0.00    -0.335 OA 
BRANCH  30  31
HETATM   31  C   UNL     1     -13.513  12.219  72.173  1.00  0.00    -0.327 C  
BRANCH  31  32
HETATM   32  C   UNL     1     -12.621  11.359  71.289  1.00  0.00    -0.374 C  
BRANCH  32  33
HETATM   33  O   UNL     1     -12.569  10.042  71.829  1.00  0.00    -0.384 OA 
BRANCH  33  34
HETATM   34  C   UNL     1     -11.588   9.253  71.162  1.00  0.00    -0.327 C  
BRANCH  34  35
HETATM   35  C   UNL     1     -10.789  10.147  70.225  1.00  0.00    -0.310 C  
BRANCH  35  36
HETATM   36  O   UNL     1      -9.705   9.398  69.682  1.00  0.00    -0.171 OA 
BRANCH  36  37
HETATM   37  C   UNL     1      -8.455   9.854  70.192  1.00  0.00    -0.111 C  
BRANCH  37  38
HETATM   38  C   UNL     1      -7.816   8.739  71.006  1.00  0.00    -0.123 C  
BRANCH  38  39
HETATM   39  O   UNL     1      -8.147   8.916  72.381  1.00  0.00    -0.381 OA 
BRANCH  39  40
HETATM   40  C   UNL     1      -7.361   8.065  73.215  1.00  0.00    -0.128 C  
BRANCH  40  41
HETATM   41  C   UNL     1      -7.439   6.640  72.686  1.00  0.00    -0.092 C  
BRANCH  41  42
HETATM   42  O   UNL     1      -6.123   6.098  72.591  1.00  0.00    -0.043 OA 
HETATM   43  C   UNL     1      -6.156   4.709  72.297  1.00  0.00    -0.017 C  
ENDBRANCH  41  42
ENDBRANCH  40  41
ENDBRANCH  39  40
ENDBRANCH  38  39
ENDBRANCH  37  38
ENDBRANCH  36  37
ENDBRANCH  35  36
ENDBRANCH  34  35
ENDBRANCH  33  34
ENDBRANCH  32  33
ENDBRANCH  31  32
ENDBRANCH  30  31
ENDBRANCH  29  30
ENDBRANCH  28  29
ENDBRANCH  27  28
ENDBRANCH  26  27
ENDBRANCH  25  26
ENDBRANCH  24  25
ENDBRANCH  23  24
ENDBRANCH  22  23
ENDBRANCH  21  22
ENDBRANCH  20  21
ENDBRANCH  19  20
ENDBRANCH  18  19
ENDBRANCH  17  18
ENDBRANCH  16  17
ENDBRANCH  15  16
ENDBRANCH  13  15
ENDBRANCH  10  13
ENDBRANCH   5   7
ENDBRANCH   4   5
ENDBRANCH   3   4
ENDBRANCH   2   3
TORSDOF 33
ENDMDL
MODEL       48
REMARK 921   NORMALIZED FREE ENERGY PREDICTED BY IDOCK:   -4.08 KCAL/MOL
REMARK 922        TOTAL FREE ENERGY PREDICTED BY IDOCK:  -14.76 KCAL/MOL
REMARK 923 INTER-LIGAND FREE ENERGY PREDICTED BY IDOCK:  -12.70 KCAL/MOL
REMARK 924 INTRA-LIGAND FREE ENERGY PREDICTED BY IDOCK:   -2.07 KCAL/MOL
REMARK 927      BINDING AFFINITY PREDICTED BY RF-SCORE:    0.00 PKD
ROOT
HETATM    1  C   UNL     1      -9.320   1.663  64.570  1.00  0.00    -0.129 C  
HETATM    2  C   UNL     1     -10.227   2.161  63.461  1.00  0.00    -0.148 C  
ENDROOT
BRANCH   2   3
HETATM    3  C   UNL     1     -10.753   3.573  63.735  1.00  0.00    -0.263 C  
BRANCH   3   4
HETATM    4  C   UNL     1      -9.991   4.181  64.907  1.00  0.00    -0.199 C  
BRANCH   4   5
HETATM    5  N   UNL     1     -10.807   5.141  65.641  1.00  0.00    -0.681 NA 
HETATM    6  H   UNL     1     -11.545   5.670  65.176  1.00  0.00     0.000 HD 
BRANCH   5   7
HETATM    7  C   UNL     1     -10.543   5.314  67.010  1.00  0.00    -0.184 A  
HETATM    8  C   UNL     1      -9.807   4.395  67.769  1.00  0.00    -0.152 A  
HETATM    9  C   UNL     1      -9.629   4.559  69.142  1.00  0.00    -0.251 A  
HETATM   10  C   UNL     1     -10.215   5.637  69.808  1.00  0.00    -0.321 A  
HETATM   11  C   UNL     1     -11.143   6.384  67.691  1.00  0.00    -0.388 A  
HETATM   12  C   UNL     1     -10.979   6.552  69.076  1.00  0.00    -0.378 A  
BRANCH  10  13
HETATM   13  C   UNL     1     -10.008   5.724  71.276  1.00  0.00    -0.191 C  
HETATM   14  O   UNL     1     -10.673   5.092  72.084  1.00  0.00    -0.213 OA 
BRANCH  13  15
HETATM   15  O   UNL     1      -9.025   6.601  71.582  1.00  0.00    -0.141 OA 
BRANCH  15  16
HETATM   16  C   UNL     1      -9.488   7.905  71.981  1.00  0.00    -0.174 C  
BRANCH  16  17
HETATM   17  C   UNL     1     -10.350   7.828  73.241  1.00  0.00    -0.300 C  
BRANCH  17  18
HETATM   18  O   UNL     1     -11.675   8.273  72.935  1.00  0.00    -0.348 OA 
BRANCH  18  19
HETATM   19  C   UNL     1     -11.706   9.001  71.709  1.00  0.00    -0.369 C  
BRANCH  19  20
HETATM   20  C   UNL     1     -12.945   9.886  71.675  1.00  0.00    -0.434 C  
BRANCH  20  21
HETATM   21  O   UNL     1     -12.843  10.786  70.573  1.00  0.00    -0.326 OA 
BRANCH  21  22
HETATM   22  C   UNL     1     -11.490  10.938  70.149  1.00  0.00    -0.319 C  
BRANCH  22  23
HETATM   23  C   UNL     1     -11.440  10.920  68.626  1.00  0.00    -0.311 C  
BRANCH  23  24
HETATM   24  O   UNL     1     -10.596   9.853  68.199  1.00  0.00    -0.200 OA 
BRANCH  24  25
HETATM   25  C   UNL     1     -10.295   9.958  66.809  1.00  0.00    -0.217 C  
BRANCH  25  26
HETATM   26  C   UNL     1      -9.598  11.286  66.551  1.00  0.00    -0.191 C  
BRANCH  26  27
HETATM   27  O   UNL     1      -8.662  11.120  65.489  1.00  0.00    -0.176 OA 
BRANCH  27  28
HETATM   28  C   UNL     1      -9.285  10.562  64.335  1.00  0.00    -0.245 C  
BRANCH  28  29
HETATM   29  C   UNL     1      -9.963  11.675  63.551  1.00  0.00    -0.405 C  
BRANCH  29  30
HETATM   30  O   UNL     1     -11.313  11.300  63.292  1.00  0.00    -0.197 OA 
BRANCH  30  31
HETATM   31  C   UNL     1     -12.181  12.428  63.352  1.00  0.00    -0.523 C  
BRANCH  31  32
HETATM   32  C   UNL     1     -12.679  12.593  64.780  1.00  0.00    -0.379 C  
BRANCH  32  33
HETATM   33  O   UNL     1     -12.621  13.972  65.133  1.00  0.00    -0.529 OA 
BRANCH  33  34
HETATM   34  C   UNL     1     -11.398  14.281  65.794  1.00  0.00    -0.326 C  
BRANCH  34  35
HETATM   35  C   UNL     1     -10.610  15.264  64.941  1.00  0.00    -0.351 C  
BRANCH  35  36
HETATM   36  O   UNL     1      -9.806  16.076  65.792  1.00  0.00    -0.313 OA 
BRANCH  36  37
HETATM   37  C   UNL     1     -10.358  17.383  65.930  1.00  0.00    -0.269 C  
BRANCH  37  38
HETATM   38  C   UNL     1     -10.365  17.764  67.404  1.00  0.00    -0.369 C  
BRANCH  38  39
HETATM   39  O   UNL     1     -10.156  19.169  67.523  1.00  0.00    -0.335 OA 
BRANCH  39  40
HETATM   40  C   UNL     1      -9.688  19.728  66.297  1.00  0.00    -0.435 C  
BRANCH  40  41
HETATM   41  C   UNL     1      -8.195  20.000  66.411  1.00  0.00    -0.302 C  
BRANCH  41  42
HETATM   42  O   UNL     1      -7.511  19.341  65.346  1.00  0.00    -0.430 OA 
HETATM   43  C   UNL     1      -6.734  18.253  65.826  1.00  0.00    -0.282 C  
ENDBRANCH  41  42
ENDBRANCH  40  41
ENDBRANCH  39  40
ENDBRANCH  38  39
ENDBRANCH  37  38
ENDBRANCH  36  37
ENDBRANCH  35  36
ENDBRANCH  34  35
ENDBRANCH  33  34
ENDBRANCH  32  33
ENDBRANCH  31  32
ENDBRANCH  30  31
ENDBRANCH  29  30
ENDBRANCH  28  29
ENDBRANCH  27  28
ENDBRANCH  26  27
ENDBRANCH  25  26
ENDBRANCH  24  25
ENDBRANCH  23  24
ENDBRANCH  22  23
ENDBRANCH  21  22
ENDBRANCH  20  21
ENDBRANCH  19  20
ENDBRANCH  18  19
ENDBRANCH  17  18
ENDBRANCH  16  17
ENDBRANCH  15  16
ENDBRANCH  13  15
ENDBRANCH  10  13
ENDBRANCH   5   7
ENDBRANCH   4   5
ENDBRANCH   3   4
ENDBRANCH   2   3
TORSDOF 33
ENDMDL
MODEL       49
REMARK 921   NORMALIZED FREE ENERGY PREDICTED BY IDOCK:   -4.08 KCAL/MOL
REMARK 922        TOTAL FREE ENERGY PREDICTED BY IDOCK:  -14.76 KCAL/MOL
REMARK 923 INTER-LIGAND FREE ENERGY PREDICTED BY IDOCK:  -11.99 KCAL/MOL
REMARK 924 INTRA-LIGAND FREE ENERGY PREDICTED BY IDOCK:   -2.77 KCAL/MOL
REMARK 927      BINDING AFFINITY PREDICTED BY RF-SCORE:    0.00 PKD
ROOT
HETATM    1  C   UNL     1      -6.058   5.343  71.044  1.00  0.00    -0.029 C  
HETATM    2  C   UNL     1      -6.048   5.347  69.528  1.00  0.00    -0.021 C  
ENDROOT
BRANCH   2   3
HETATM    3  C   UNL     1      -7.372   5.848  68.943  1.00  0.00    -0.084 C  
BRANCH   3   4
HETATM    4  C   UNL     1      -8.214   4.657  68.497  1.00  0.00    -0.083 C  
BRANCH   4   5
HETATM    5  N   UNL     1      -9.051   4.152  69.579  1.00  0.00    -0.107 NA 
HETATM    6  H   UNL     1      -8.913   3.216  69.959  1.00  0.00     0.000 HD 
BRANCH   5   7
HETATM    7  C   UNL     1     -10.052   4.999  70.082  1.00  0.00    -0.268 A  
HETATM    8  C   UNL     1     -10.844   5.817  69.264  1.00  0.00    -0.374 A  
HETATM    9  C   UNL     1     -11.778   6.702  69.802  1.00  0.00    -0.279 A  
HETATM   10  C   UNL     1     -11.924   6.822  71.185  1.00  0.00    -0.421 A  
HETATM   11  C   UNL     1     -10.194   5.140  71.470  1.00  0.00    -0.274 A  
HETATM   12  C   UNL     1     -11.124   6.036  72.023  1.00  0.00    -0.325 A  
BRANCH  10  13
HETATM   13  C   UNL     1     -12.915   7.810  71.681  1.00  0.00    -0.345 C  
HETATM   14  O   UNL     1     -14.124   7.632  71.627  1.00  0.00    -0.401 OA 
BRANCH  13  15
HETATM   15  O   UNL     1     -12.306   8.919  72.159  1.00  0.00    -0.357 OA 
BRANCH  15  16
HETATM   16  C   UNL     1     -12.786  10.156  71.601  1.00  0.00    -0.454 C  
BRANCH  16  17
HETATM   17  C   UNL     1     -11.959  10.576  70.386  1.00  0.00    -0.335 C  
BRANCH  17  18
HETATM   18  O   UNL     1     -10.597  10.184  70.584  1.00  0.00    -0.272 OA 
BRANCH  18  19
HETATM   19  C   UNL     1      -9.884  10.145  69.350  1.00  0.00    -0.229 C  
BRANCH  19  20
HETATM   20  C   UNL     1      -9.873  11.534  68.726  1.00  0.00    -0.141 C  
BRANCH  20  21
HETATM   21  O   UNL     1      -8.538  11.861  68.345  1.00  0.00    -0.164 OA 
BRANCH  21  22
HETATM   22  C   UNL     1      -8.420  13.236  67.989  1.00  0.00    -0.170 C  
BRANCH  22  23
HETATM   23  C   UNL     1      -7.104  13.781  68.530  1.00  0.00    -0.106 C  
BRANCH  23  24
HETATM   24  O   UNL     1      -6.582  14.740  67.612  1.00  0.00    -0.163 OA 
BRANCH  24  25
HETATM   25  C   UNL     1      -7.122  16.037  67.858  1.00  0.00    -0.136 C  
BRANCH  25  26
HETATM   26  C   UNL     1      -6.934  16.382  69.328  1.00  0.00    -0.223 C  
BRANCH  26  27
HETATM   27  O   UNL     1      -6.616  17.767  69.442  1.00  0.00    -0.252 OA 
BRANCH  27  28
HETATM   28  C   UNL     1      -7.121  18.505  68.333  1.00  0.00    -0.272 C  
BRANCH  28  29
HETATM   29  C   UNL     1      -6.855  19.986  68.561  1.00  0.00    -0.301 C  
BRANCH  29  30
HETATM   30  O   UNL     1      -7.695  20.744  67.695  1.00  0.00    -0.274 OA 
BRANCH  30  31
HETATM   31  C   UNL     1      -8.420  19.895  66.808  1.00  0.00    -0.328 C  
BRANCH  31  32
HETATM   32  C   UNL     1      -9.893  20.270  66.859  1.00  0.00    -0.457 C  
BRANCH  32  33
HETATM   33  O   UNL     1     -10.625  19.189  67.427  1.00  0.00    -0.433 OA 
BRANCH  33  34
HETATM   34  C   UNL     1     -10.387  17.978  66.716  1.00  0.00    -0.367 C  
BRANCH  34  35
HETATM   35  C   UNL     1     -10.612  16.802  67.655  1.00  0.00    -0.325 C  
BRANCH  35  36
HETATM   36  O   UNL     1     -10.784  15.617  66.880  1.00  0.00    -0.311 OA 
BRANCH  36  37
HETATM   37  C   UNL     1     -11.688  14.715  67.512  1.00  0.00    -0.379 C  
BRANCH  37  38
HETATM   38  C   UNL     1     -11.815  15.090  68.982  1.00  0.00    -0.300 C  
BRANCH  38  39
HETATM   39  O   UNL     1     -12.270  13.955  69.714  1.00  0.00    -0.330 OA 
BRANCH  39  40
HETATM   40  C   UNL     1     -12.240  14.202  71.120  1.00  0.00    -0.358 C  
BRANCH  40  41
HETATM   41  C   UNL     1     -12.631  15.650  71.379  1.00  0.00    -0.457 C  
BRANCH  41  42
HETATM   42  O   UNL     1     -11.835  16.172  72.441  1.00  0.00    -0.492 OA 
HETATM   43  C   UNL     1     -12.333  15.767  73.708  1.00  0.00    -0.597 C  
ENDBRANCH  41  42
ENDBRANCH  40  41
ENDBRANCH  39  40
ENDBRANCH  38  39
ENDBRANCH  37  38
ENDBRANCH  36  37
ENDBRANCH  35  36
ENDBRANCH  34  35
ENDBRANCH  33  34
ENDBRANCH  32  33
ENDBRANCH  31  32
ENDBRANCH  30  31
ENDBRANCH  29  30
ENDBRANCH  28  29
ENDBRANCH  27  28
ENDBRANCH  26  27
ENDBRANCH  25  26
ENDBRANCH  24  25
ENDBRANCH  23  24
ENDBRANCH  22  23
ENDBRANCH  21  22
ENDBRANCH  20  21
ENDBRANCH  19  20
ENDBRANCH  18  19
ENDBRANCH  17  18
ENDBRANCH  16  17
ENDBRANCH  15  16
ENDBRANCH  13  15
ENDBRANCH  10  13
ENDBRANCH   5   7
ENDBRANCH   4   5
ENDBRANCH   3   4
ENDBRANCH   2   3
TORSDOF 33
ENDMDL
MODEL       50
REMARK 921   NORMALIZED FREE ENERGY PREDICTED BY IDOCK:   -4.06 KCAL/MOL
REMARK 922        TOTAL FREE ENERGY PREDICTED BY IDOCK:  -14.70 KCAL/MOL
REMARK 923 INTER-LIGAND FREE ENERGY PREDICTED BY IDOCK:  -11.31 KCAL/MOL
REMARK 924 INTRA-LIGAND FREE ENERGY PREDICTED BY IDOCK:   -3.39 KCAL/MOL
REMARK 927      BINDING AFFINITY PREDICTED BY RF-SCORE:    0.00 PKD
ROOT
HETATM    1  C   UNL     1     -10.368   6.551  73.860  1.00  0.00    -0.356 C  
HETATM    2  C   UNL     1     -11.248   5.527  73.168  1.00  0.00    -0.321 C  
ENDROOT
BRANCH   2   3
HETATM    3  C   UNL     1     -10.433   4.390  72.548  1.00  0.00    -0.235 C  
BRANCH   3   4
HETATM    4  C   UNL     1      -9.854   4.848  71.214  1.00  0.00    -0.186 C  
BRANCH   4   5
HETATM    5  N   UNL     1     -10.870   5.465  70.368  1.00  0.00    -0.207 NA 
HETATM    6  H   UNL     1     -11.861   5.272  70.509  1.00  0.00     0.000 HD 
BRANCH   5   7
HETATM    7  C   UNL     1     -10.437   6.335  69.354  1.00  0.00    -0.243 A  
HETATM    8  C   UNL     1     -11.066   6.428  68.106  1.00  0.00    -0.358 A  
HETATM    9  C   UNL     1     -10.564   7.247  67.094  1.00  0.00    -0.416 A  
HETATM   10  C   UNL     1      -9.390   7.977  67.292  1.00  0.00    -0.177 A  
HETATM   11  C   UNL     1      -9.249   7.058  69.536  1.00  0.00    -0.149 A  
HETATM   12  C   UNL     1      -8.728   7.878  68.521  1.00  0.00    -0.131 A  
BRANCH  10  13
HETATM   13  C   UNL     1      -8.902   8.799  66.155  1.00  0.00    -0.168 C  
HETATM   14  O   UNL     1      -7.717   8.923  65.881  1.00  0.00    -0.095 OA 
BRANCH  13  15
HETATM   15  O   UNL     1      -9.926   9.397  65.506  1.00  0.00    -0.281 OA 
BRANCH  15  16
HETATM   16  C   UNL     1      -9.537  10.164  64.351  1.00  0.00    -0.302 C  
BRANCH  16  17
HETATM   17  C   UNL     1     -10.149  11.564  64.382  1.00  0.00    -0.282 C  
BRANCH  17  18
HETATM   18  O   UNL     1     -10.990  11.738  63.237  1.00  0.00    -0.367 OA 
BRANCH  18  19
HETATM   19  C   UNL     1     -12.142  12.516  63.553  1.00  0.00    -0.562 C  
BRANCH  19  20
HETATM   20  C   UNL     1     -12.292  12.610  65.065  1.00  0.00    -0.497 C  
BRANCH  20  21
HETATM   21  O   UNL     1     -12.593  13.959  65.419  1.00  0.00    -0.476 OA 
BRANCH  21  22
HETATM   22  C   UNL     1     -12.484  14.829  64.294  1.00  0.00    -0.197 C  
BRANCH  22  23
HETATM   23  C   UNL     1     -11.613  16.021  64.668  1.00  0.00    -0.169 C  
BRANCH  23  24
HETATM   24  O   UNL     1     -10.251  15.603  64.732  1.00  0.00    -0.380 OA 
BRANCH  24  25
HETATM   25  C   UNL     1      -9.588  16.176  65.857  1.00  0.00    -0.324 C  
BRANCH  25  26
HETATM   26  C   UNL     1     -10.410  17.347  66.376  1.00  0.00    -0.317 C  
BRANCH  26  27
HETATM   27  O   UNL     1      -9.849  18.561  65.886  1.00  0.00    -0.507 OA 
BRANCH  27  28
HETATM   28  C   UNL     1      -9.396  19.388  66.956  1.00  0.00    -0.326 C  
BRANCH  28  29
HETATM   29  C   UNL     1      -7.875  19.422  66.945  1.00  0.00    -0.259 C  
BRANCH  29  30
HETATM   30  O   UNL     1      -7.419  19.251  65.606  1.00  0.00    -0.428 OA 
BRANCH  30  31
HETATM   31  C   UNL     1      -6.282  18.393  65.556  1.00  0.00    -0.262 C  
BRANCH  31  32
HETATM   32  C   UNL     1      -6.069  17.774  66.929  1.00  0.00    -0.152 C  
BRANCH  32  33
HETATM   33  O   UNL     1      -6.008  16.357  66.792  1.00  0.00    -0.326 OA 
BRANCH  33  34
HETATM   34  C   UNL     1      -6.314  15.709  68.023  1.00  0.00    -0.134 C  
BRANCH  34  35
HETATM   35  C   UNL     1      -6.403  14.209  67.782  1.00  0.00    -0.156 C  
BRANCH  35  36
HETATM   36  O   UNL     1      -7.773  13.843  67.640  1.00  0.00    -0.154 OA 
BRANCH  36  37
HETATM   37  C   UNL     1      -7.906  12.465  67.301  1.00  0.00    -0.166 C  
BRANCH  37  38
HETATM   38  C   UNL     1      -8.755  11.775  68.359  1.00  0.00    -0.155 C  
BRANCH  38  39
HETATM   39  O   UNL     1     -10.108  11.730  67.915  1.00  0.00    -0.178 OA 
BRANCH  39  40
HETATM   40  C   UNL     1     -10.915  12.672  68.620  1.00  0.00    -0.256 C  
BRANCH  40  41
HETATM   41  C   UNL     1     -12.080  11.941  69.272  1.00  0.00    -0.210 C  
BRANCH  41  42
HETATM   42  O   UNL     1     -11.935  10.538  69.062  1.00  0.00    -0.229 OA 
HETATM   43  C   UNL     1     -11.703   9.853  70.285  1.00  0.00    -0.216 C  
ENDBRANCH  41  42
ENDBRANCH  40  41
ENDBRANCH  39  40
ENDBRANCH  38  39
ENDBRANCH  37  38
ENDBRANCH  36  37
ENDBRANCH  35  36
ENDBRANCH  34  35
ENDBRANCH  33  34
ENDBRANCH  32  33
ENDBRANCH  31  32
ENDBRANCH  30  31
ENDBRANCH  29  30
ENDBRANCH  28  29
ENDBRANCH  27  28
ENDBRANCH  26  27
ENDBRANCH  25  26
ENDBRANCH  24  25
ENDBRANCH  23  24
ENDBRANCH  22  23
ENDBRANCH  21  22
ENDBRANCH  20  21
ENDBRANCH  19  20
ENDBRANCH  18  19
ENDBRANCH  17  18
ENDBRANCH  16  17
ENDBRANCH  15  16
ENDBRANCH  13  15
ENDBRANCH  10  13
ENDBRANCH   5   7
ENDBRANCH   4   5
ENDBRANCH   3   4
ENDBRANCH   2   3
TORSDOF 33
ENDMDL
MODEL       51
REMARK 921   NORMALIZED FREE ENERGY PREDICTED BY IDOCK:   -4.06 KCAL/MOL
REMARK 922        TOTAL FREE ENERGY PREDICTED BY IDOCK:  -14.68 KCAL/MOL
REMARK 923 INTER-LIGAND FREE ENERGY PREDICTED BY IDOCK:  -12.76 KCAL/MOL
REMARK 924 INTRA-LIGAND FREE ENERGY PREDICTED BY IDOCK:   -1.92 KCAL/MOL
REMARK 927      BINDING AFFINITY PREDICTED BY RF-SCORE:    0.00 PKD
ROOT
HETATM    1  C   UNL     1      -5.210   9.907  64.091  1.00  0.00    -0.078 C  
HETATM    2  C   UNL     1      -5.508   8.893  63.003  1.00  0.00    -0.069 C  
ENDROOT
BRANCH   2   3
HETATM    3  C   UNL     1      -6.991   8.869  62.626  1.00  0.00    -0.093 C  
BRANCH   3   4
HETATM    4  C   UNL     1      -7.740   9.919  63.439  1.00  0.00    -0.145 C  
BRANCH   4   5
HETATM    5  N   UNL     1      -9.126   9.530  63.677  1.00  0.00    -0.404 NA 
HETATM    6  H   UNL     1      -9.456   8.591  63.450  1.00  0.00     0.000 HD 
BRANCH   5   7
HETATM    7  C   UNL     1      -9.990  10.489  64.229  1.00  0.00    -0.331 A  
HETATM    8  C   UNL     1     -10.620  11.481  63.466  1.00  0.00    -0.487 A  
HETATM    9  C   UNL     1     -11.412  12.465  64.057  1.00  0.00    -0.479 A  
HETATM   10  C   UNL     1     -11.570  12.507  65.444  1.00  0.00    -0.416 A  
HETATM   11  C   UNL     1     -10.141  10.551  65.622  1.00  0.00    -0.333 A  
HETATM   12  C   UNL     1     -10.927  11.544  66.230  1.00  0.00    -0.328 A  
BRANCH  10  13
HETATM   13  C   UNL     1     -12.401  13.605  66.000  1.00  0.00    -0.445 C  
HETATM   14  O   UNL     1     -13.151  14.288  65.318  1.00  0.00    -0.707 OA 
BRANCH  13  15
HETATM   15  O   UNL     1     -12.190  13.756  67.327  1.00  0.00    -0.375 OA 
BRANCH  15  16
HETATM   16  C   UNL     1     -11.472  14.951  67.688  1.00  0.00    -0.352 C  
BRANCH  16  17
HETATM   17  C   UNL     1     -10.499  14.689  68.838  1.00  0.00    -0.248 C  
BRANCH  17  18
HETATM   18  O   UNL     1     -10.587  15.760  69.783  1.00  0.00    -0.264 OA 
BRANCH  18  19
HETATM   19  C   UNL     1     -11.918  15.911  70.272  1.00  0.00    -0.305 C  
BRANCH  19  20
HETATM   20  C   UNL     1     -11.896  15.992  71.792  1.00  0.00    -0.519 C  
BRANCH  20  21
HETATM   21  O   UNL     1     -13.236  15.949  72.280  1.00  0.00    -0.453 OA 
BRANCH  21  22
HETATM   22  C   UNL     1     -14.017  14.990  71.570  1.00  0.00    -0.501 C  
BRANCH  22  23
HETATM   23  C   UNL     1     -13.858  13.628  72.233  1.00  0.00    -0.590 C  
BRANCH  23  24
HETATM   24  O   UNL     1     -13.082  12.784  71.385  1.00  0.00    -0.329 OA 
BRANCH  24  25
HETATM   25  C   UNL     1     -13.214  11.414  71.759  1.00  0.00    -0.367 C  
BRANCH  25  26
HETATM   26  C   UNL     1     -12.174  10.592  71.012  1.00  0.00    -0.393 C  
BRANCH  26  27
HETATM   27  O   UNL     1     -12.699   9.291  70.767  1.00  0.00    -0.134 OA 
BRANCH  27  28
HETATM   28  C   UNL     1     -11.688   8.294  70.896  1.00  0.00    -0.239 C  
BRANCH  28  29
HETATM   29  C   UNL     1     -10.872   8.575  72.149  1.00  0.00    -0.357 C  
BRANCH  29  30
HETATM   30  O   UNL     1     -11.363   7.761  73.211  1.00  0.00    -0.321 OA 
BRANCH  30  31
HETATM   31  C   UNL     1     -10.326   6.954  73.763  1.00  0.00    -0.376 C  
BRANCH  31  32
HETATM   32  C   UNL     1     -10.662   5.489  73.527  1.00  0.00    -0.283 C  
BRANCH  32  33
HETATM   33  O   UNL     1     -10.795   5.266  72.127  1.00  0.00    -0.225 OA 
BRANCH  33  34
HETATM   34  C   UNL     1      -9.948   4.206  71.693  1.00  0.00    -0.170 C  
BRANCH  34  35
HETATM   35  C   UNL     1      -9.557   4.449  70.243  1.00  0.00    -0.193 C  
BRANCH  35  36
HETATM   36  O   UNL     1     -10.574   5.224  69.612  1.00  0.00    -0.294 OA 
BRANCH  36  37
HETATM   37  C   UNL     1     -10.022   6.093  68.627  1.00  0.00    -0.148 C  
BRANCH  37  38
HETATM   38  C   UNL     1     -11.065   6.339  67.545  1.00  0.00    -0.279 C  
BRANCH  38  39
HETATM   39  O   UNL     1     -10.528   5.949  66.283  1.00  0.00    -0.133 OA 
BRANCH  39  40
HETATM   40  C   UNL     1      -9.660   4.825  66.416  1.00  0.00    -0.177 C  
BRANCH  40  41
HETATM   41  C   UNL     1      -9.845   3.908  65.214  1.00  0.00    -0.178 C  
BRANCH  41  42
HETATM   42  O   UNL     1      -8.999   2.769  65.354  1.00  0.00    -0.130 OA 
HETATM   43  C   UNL     1      -8.970   2.308  66.698  1.00  0.00    -0.113 C  
ENDBRANCH  41  42
ENDBRANCH  40  41
ENDBRANCH  39  40
ENDBRANCH  38  39
ENDBRANCH  37  38
ENDBRANCH  36  37
ENDBRANCH  35  36
ENDBRANCH  34  35
ENDBRANCH  33  34
ENDBRANCH  32  33
ENDBRANCH  31  32
ENDBRANCH  30  31
ENDBRANCH  29  30
ENDBRANCH  28  29
ENDBRANCH  27  28
ENDBRANCH  26  27
ENDBRANCH  25  26
ENDBRANCH  24  25
ENDBRANCH  23  24
ENDBRANCH  22  23
ENDBRANCH  21  22
ENDBRANCH  20  21
ENDBRANCH  19  20
ENDBRANCH  18  19
ENDBRANCH  17  18
ENDBRANCH  16  17
ENDBRANCH  15  16
ENDBRANCH  13  15
ENDBRANCH  10  13
ENDBRANCH   5   7
ENDBRANCH   4   5
ENDBRANCH   3   4
ENDBRANCH   2   3
TORSDOF 33
ENDMDL
MODEL       52
REMARK 921   NORMALIZED FREE ENERGY PREDICTED BY IDOCK:   -4.05 KCAL/MOL
REMARK 922        TOTAL FREE ENERGY PREDICTED BY IDOCK:  -14.67 KCAL/MOL
REMARK 923 INTER-LIGAND FREE ENERGY PREDICTED BY IDOCK:  -11.51 KCAL/MOL
REMARK 924 INTRA-LIGAND FREE ENERGY PREDICTED BY IDOCK:   -3.15 KCAL/MOL
REMARK 927      BINDING AFFINITY PREDICTED BY RF-SCORE:    0.00 PKD
ROOT
HETATM    1  C   UNL     1      -7.191  19.457  69.042  1.00  0.00    -0.397 C  
HETATM    2  C   UNL     1      -8.228  18.723  68.213  1.00  0.00    -0.355 C  
ENDROOT
BRANCH   2   3
HETATM    3  C   UNL     1      -9.614  19.365  68.323  1.00  0.00    -0.454 C  
BRANCH   3   4
HETATM    4  C   UNL     1     -10.652  18.445  67.689  1.00  0.00    -0.408 C  
BRANCH   4   5
HETATM    5  N   UNL     1     -10.378  17.042  67.979  1.00  0.00    -0.324 NA 
HETATM    6  H   UNL     1      -9.836  16.770  68.799  1.00  0.00     0.000 HD 
BRANCH   5   7
HETATM    7  C   UNL     1     -10.887  16.079  67.093  1.00  0.00    -0.239 A  
HETATM    8  C   UNL     1     -11.589  14.943  67.518  1.00  0.00    -0.355 A  
HETATM    9  C   UNL     1     -12.014  13.967  66.616  1.00  0.00    -0.473 A  
HETATM   10  C   UNL     1     -11.717  14.083  65.257  1.00  0.00    -0.349 A  
HETATM   11  C   UNL     1     -10.578  16.177  65.728  1.00  0.00    -0.347 A  
HETATM   12  C   UNL     1     -10.992  15.194  64.813  1.00  0.00    -0.394 A  
BRANCH  10  13
HETATM   13  C   UNL     1     -12.175  12.987  64.365  1.00  0.00    -0.406 C  
HETATM   14  O   UNL     1     -13.190  12.338  64.570  1.00  0.00    -0.799 OA 
BRANCH  13  15
HETATM   15  O   UNL     1     -11.312  12.795  63.341  1.00  0.00    -0.472 OA 
BRANCH  15  16
HETATM   16  C   UNL     1     -10.060  12.192  63.716  1.00  0.00    -0.379 C  
BRANCH  16  17
HETATM   17  C   UNL     1     -10.244  10.725  64.106  1.00  0.00    -0.344 C  
BRANCH  17  18
HETATM   18  O   UNL     1      -9.083  10.275  64.811  1.00  0.00    -0.183 OA 
BRANCH  18  19
HETATM   19  C   UNL     1      -8.388   9.270  64.077  1.00  0.00    -0.178 C  
BRANCH  19  20
HETATM   20  C   UNL     1      -7.794   8.254  65.043  1.00  0.00    -0.126 C  
BRANCH  20  21
HETATM   21  O   UNL     1      -8.815   7.341  65.443  1.00  0.00    -0.044 OA 
BRANCH  21  22
HETATM   22  C   UNL     1      -9.036   7.391  66.850  1.00  0.00    -0.141 C  
BRANCH  22  23
HETATM   23  C   UNL     1      -7.692   7.376  67.568  1.00  0.00    -0.111 C  
BRANCH  23  24
HETATM   24  O   UNL     1      -7.624   8.491  68.455  1.00  0.00    -0.093 OA 
BRANCH  24  25
HETATM   25  C   UNL     1      -6.810   8.199  69.588  1.00  0.00    -0.041 C  
BRANCH  25  26
HETATM   26  C   UNL     1      -5.867   9.368  69.837  1.00  0.00    -0.035 C  
BRANCH  26  27
HETATM   27  O   UNL     1      -6.551  10.362  70.596  1.00  0.00    -0.290 OA 
BRANCH  27  28
HETATM   28  C   UNL     1      -6.135  11.673  70.221  1.00  0.00    -0.128 C  
BRANCH  28  29
HETATM   29  C   UNL     1      -5.846  11.693  68.727  1.00  0.00    -0.047 C  
BRANCH  29  30
HETATM   30  O   UNL     1      -6.814  12.514  68.081  1.00  0.00    -0.069 OA 
BRANCH  30  31
HETATM   31  C   UNL     1      -7.848  11.727  67.494  1.00  0.00    -0.148 C  
BRANCH  31  32
HETATM   32  C   UNL     1      -9.180  12.120  68.114  1.00  0.00    -0.197 C  
BRANCH  32  33
HETATM   33  O   UNL     1      -9.614  11.074  68.977  1.00  0.00    -0.190 OA 
BRANCH  33  34
HETATM   34  C   UNL     1     -10.941  10.664  68.659  1.00  0.00    -0.246 C  
BRANCH  34  35
HETATM   35  C   UNL     1     -11.905  11.303  69.648  1.00  0.00    -0.360 C  
BRANCH  35  36
HETATM   36  O   UNL     1     -12.765  10.295  70.174  1.00  0.00    -0.197 OA 
BRANCH  36  37
HETATM   37  C   UNL     1     -12.940  10.448  71.580  1.00  0.00    -0.475 C  
BRANCH  37  38
HETATM   38  C   UNL     1     -12.991   9.070  72.226  1.00  0.00    -0.424 C  
BRANCH  38  39
HETATM   39  O   UNL     1     -11.669   8.670  72.576  1.00  0.00    -0.361 OA 
BRANCH  39  40
HETATM   40  C   UNL     1     -11.475   7.274  72.349  1.00  0.00    -0.287 C  
BRANCH  40  41
HETATM   41  C   UNL     1     -10.269   7.081  71.440  1.00  0.00    -0.196 C  
BRANCH  41  42
HETATM   42  O   UNL     1     -10.619   7.446  70.107  1.00  0.00    -0.219 OA 
HETATM   43  C   UNL     1     -11.610   6.577  69.575  1.00  0.00    -0.233 C  
ENDBRANCH  41  42
ENDBRANCH  40  41
ENDBRANCH  39  40
ENDBRANCH  38  39
ENDBRANCH  37  38
ENDBRANCH  36  37
ENDBRANCH  35  36
ENDBRANCH  34  35
ENDBRANCH  33  34
ENDBRANCH  32  33
ENDBRANCH  31  32
ENDBRANCH  30  31
ENDBRANCH  29  30
ENDBRANCH  28  29
ENDBRANCH  27  28
ENDBRANCH  26  27
ENDBRANCH  25  26
ENDBRANCH  24  25
ENDBRANCH  23  24
ENDBRANCH  22  23
ENDBRANCH  21  22
ENDBRANCH  20  21
ENDBRANCH  19  20
ENDBRANCH  18  19
ENDBRANCH  17  18
ENDBRANCH  16  17
ENDBRANCH  15  16
ENDBRANCH  13  15
ENDBRANCH  10  13
ENDBRANCH   5   7
ENDBRANCH   4   5
ENDBRANCH   3   4
ENDBRANCH   2   3
TORSDOF 33
ENDMDL
MODEL       53
REMARK 921   NORMALIZED FREE ENERGY PREDICTED BY IDOCK:   -4.04 KCAL/MOL
REMARK 922        TOTAL FREE ENERGY PREDICTED BY IDOCK:  -14.64 KCAL/MOL
REMARK 923 INTER-LIGAND FREE ENERGY PREDICTED BY IDOCK:  -11.92 KCAL/MOL
REMARK 924 INTRA-LIGAND FREE ENERGY PREDICTED BY IDOCK:   -2.72 KCAL/MOL
REMARK 927      BINDING AFFINITY PREDICTED BY RF-SCORE:    0.00 PKD
ROOT
HETATM    1  C   UNL     1      -9.107   1.904  63.310  1.00  0.00    -0.088 C  
HETATM    2  C   UNL     1      -9.335   3.382  63.566  1.00  0.00    -0.100 C  
ENDROOT
BRANCH   2   3
HETATM    3  C   UNL     1      -9.247   3.730  65.055  1.00  0.00    -0.149 C  
BRANCH   3   4
HETATM    4  C   UNL     1     -10.512   4.466  65.481  1.00  0.00    -0.199 C  
BRANCH   4   5
HETATM    5  N   UNL     1     -10.204   5.683  66.223  1.00  0.00    -0.374 NA 
HETATM    6  H   UNL     1      -9.861   6.517  65.748  1.00  0.00     0.000 HD 
BRANCH   5   7
HETATM    7  C   UNL     1     -10.397   5.668  67.614  1.00  0.00    -0.212 A  
HETATM    8  C   UNL     1     -11.144   6.639  68.294  1.00  0.00    -0.283 A  
HETATM    9  C   UNL     1     -11.251   6.637  69.685  1.00  0.00    -0.397 A  
HETATM   10  C   UNL     1     -10.582   5.675  70.445  1.00  0.00    -0.364 A  
HETATM   11  C   UNL     1      -9.713   4.718  68.388  1.00  0.00    -0.209 A  
HETATM   12  C   UNL     1      -9.806   4.712  69.789  1.00  0.00    -0.296 A  
BRANCH  10  13
HETATM   13  C   UNL     1     -10.718   5.760  71.921  1.00  0.00    -0.242 C  
HETATM   14  O   UNL     1     -11.793   5.896  72.487  1.00  0.00    -0.295 OA 
BRANCH  13  15
HETATM   15  O   UNL     1      -9.512   5.698  72.530  1.00  0.00    -0.145 OA 
BRANCH  15  16
HETATM   16  C   UNL     1      -8.671   6.846  72.314  1.00  0.00    -0.126 C  
BRANCH  16  17
HETATM   17  C   UNL     1      -9.323   8.121  72.850  1.00  0.00    -0.273 C  
BRANCH  17  18
HETATM   18  O   UNL     1      -9.343   9.110  71.816  1.00  0.00    -0.328 OA 
BRANCH  18  19
HETATM   19  C   UNL     1      -8.476   8.756  70.742  1.00  0.00    -0.173 C  
BRANCH  19  20
HETATM   20  C   UNL     1      -8.742   9.666  69.551  1.00  0.00    -0.185 C  
BRANCH  20  21
HETATM   21  O   UNL     1     -10.140   9.944  69.483  1.00  0.00    -0.193 OA 
BRANCH  21  22
HETATM   22  C   UNL     1     -10.463  10.707  68.322  1.00  0.00    -0.187 C  
BRANCH  22  23
HETATM   23  C   UNL     1      -9.629  11.981  68.315  1.00  0.00    -0.204 C  
BRANCH  23  24
HETATM   24  O   UNL     1     -10.326  12.992  67.589  1.00  0.00    -0.218 OA 
BRANCH  24  25
HETATM   25  C   UNL     1     -11.116  12.425  66.545  1.00  0.00    -0.301 C  
BRANCH  25  26
HETATM   26  C   UNL     1     -12.331  13.309  66.306  1.00  0.00    -0.317 C  
BRANCH  26  27
HETATM   27  O   UNL     1     -12.571  13.399  64.904  1.00  0.00    -0.562 OA 
BRANCH  27  28
HETATM   28  C   UNL     1     -11.617  14.248  64.271  1.00  0.00    -0.282 C  
BRANCH  28  29
HETATM   29  C   UNL     1     -12.108  15.685  64.342  1.00  0.00    -0.084 C  
BRANCH  29  30
HETATM   30  O   UNL     1     -10.995  16.542  64.579  1.00  0.00    -0.827 OA 
BRANCH  30  31
HETATM   31  C   UNL     1     -10.237  16.103  65.703  1.00  0.00    -0.364 C  
BRANCH  31  32
HETATM   32  C   UNL     1     -10.810  16.735  66.963  1.00  0.00    -0.066 C  
BRANCH  32  33
HETATM   33  O   UNL     1      -9.751  16.966  67.886  1.00  0.00    -0.245 OA 
BRANCH  33  34
HETATM   34  C   UNL     1     -10.257  17.223  69.193  1.00  0.00    -0.283 C  
BRANCH  34  35
HETATM   35  C   UNL     1     -10.733  15.913  69.804  1.00  0.00    -0.324 C  
BRANCH  35  36
HETATM   36  O   UNL     1     -11.549  16.199  70.937  1.00  0.00    -0.400 OA 
BRANCH  36  37
HETATM   37  C   UNL     1     -11.975  15.002  71.582  1.00  0.00    -0.366 C  
BRANCH  37  38
HETATM   38  C   UNL     1     -12.718  14.134  70.575  1.00  0.00    -0.309 C  
BRANCH  38  39
HETATM   39  O   UNL     1     -12.269  12.788  70.699  1.00  0.00    -0.370 OA 
BRANCH  39  40
HETATM   40  C   UNL     1     -13.073  12.058  71.625  1.00  0.00    -0.318 C  
BRANCH  40  41
HETATM   41  C   UNL     1     -13.035  10.580  71.260  1.00  0.00    -0.433 C  
BRANCH  41  42
HETATM   42  O   UNL     1     -13.715   9.828  72.263  1.00  0.00    -0.393 OA 
HETATM   43  C   UNL     1     -13.961   8.496  71.833  1.00  0.00    -0.437 C  
ENDBRANCH  41  42
ENDBRANCH  40  41
ENDBRANCH  39  40
ENDBRANCH  38  39
ENDBRANCH  37  38
ENDBRANCH  36  37
ENDBRANCH  35  36
ENDBRANCH  34  35
ENDBRANCH  33  34
ENDBRANCH  32  33
ENDBRANCH  31  32
ENDBRANCH  30  31
ENDBRANCH  29  30
ENDBRANCH  28  29
ENDBRANCH  27  28
ENDBRANCH  26  27
ENDBRANCH  25  26
ENDBRANCH  24  25
ENDBRANCH  23  24
ENDBRANCH  22  23
ENDBRANCH  21  22
ENDBRANCH  20  21
ENDBRANCH  19  20
ENDBRANCH  18  19
ENDBRANCH  17  18
ENDBRANCH  16  17
ENDBRANCH  15  16
ENDBRANCH  13  15
ENDBRANCH  10  13
ENDBRANCH   5   7
ENDBRANCH   4   5
ENDBRANCH   3   4
ENDBRANCH   2   3
TORSDOF 33
ENDMDL
MODEL       54
REMARK 921   NORMALIZED FREE ENERGY PREDICTED BY IDOCK:   -4.04 KCAL/MOL
REMARK 922        TOTAL FREE ENERGY PREDICTED BY IDOCK:  -14.64 KCAL/MOL
REMARK 923 INTER-LIGAND FREE ENERGY PREDICTED BY IDOCK:  -11.58 KCAL/MOL
REMARK 924 INTRA-LIGAND FREE ENERGY PREDICTED BY IDOCK:   -3.06 KCAL/MOL
REMARK 927      BINDING AFFINITY PREDICTED BY RF-SCORE:    0.00 PKD
ROOT
HETATM    1  C   UNL     1      -8.270   2.393  64.670  1.00  0.00    -0.086 C  
HETATM    2  C   UNL     1      -8.901   2.057  66.008  1.00  0.00    -0.118 C  
ENDROOT
BRANCH   2   3
HETATM    3  C   UNL     1      -9.225   3.311  66.825  1.00  0.00    -0.187 C  
BRANCH   3   4
HETATM    4  C   UNL     1      -9.282   2.952  68.306  1.00  0.00    -0.193 C  
BRANCH   4   5
HETATM    5  N   UNL     1      -8.881   4.074  69.148  1.00  0.00    -0.091 NA 
HETATM    6  H   UNL     1      -7.897   4.296  69.295  1.00  0.00     0.000 HD 
BRANCH   5   7
HETATM    7  C   UNL     1      -9.895   4.837  69.749  1.00  0.00    -0.218 A  
HETATM    8  C   UNL     1     -10.704   5.732  69.036  1.00  0.00    -0.354 A  
HETATM    9  C   UNL     1     -11.651   6.530  69.677  1.00  0.00    -0.348 A  
HETATM   10  C   UNL     1     -11.794   6.482  71.065  1.00  0.00    -0.390 A  
HETATM   11  C   UNL     1     -10.035   4.809  71.144  1.00  0.00    -0.273 A  
HETATM   12  C   UNL     1     -10.978   5.617  71.801  1.00  0.00    -0.290 A  
BRANCH  10  13
HETATM   13  C   UNL     1     -12.800   7.387  71.676  1.00  0.00    -0.367 C  
HETATM   14  O   UNL     1     -13.998   7.313  71.441  1.00  0.00    -0.398 OA 
BRANCH  13  15
HETATM   15  O   UNL     1     -12.213   8.299  72.484  1.00  0.00    -0.370 OA 
BRANCH  15  16
HETATM   16  C   UNL     1     -11.313   9.201  71.815  1.00  0.00    -0.381 C  
BRANCH  16  17
HETATM   17  C   UNL     1     -12.069  10.164  70.899  1.00  0.00    -0.356 C  
BRANCH  17  18
HETATM   18  O   UNL     1     -11.449  10.174  69.609  1.00  0.00    -0.241 OA 
BRANCH  18  19
HETATM   19  C   UNL     1     -10.037  10.008  69.712  1.00  0.00    -0.248 C  
BRANCH  19  20
HETATM   20  C   UNL     1      -9.512   9.329  68.454  1.00  0.00    -0.138 C  
BRANCH  20  21
HETATM   21  O   UNL     1     -10.457   9.508  67.400  1.00  0.00    -0.244 OA 
BRANCH  21  22
HETATM   22  C   UNL     1      -9.919   9.103  66.144  1.00  0.00    -0.268 C  
BRANCH  22  23
HETATM   23  C   UNL     1      -8.450   8.740  66.324  1.00  0.00    -0.124 C  
BRANCH  23  24
HETATM   24  O   UNL     1      -7.709   9.228  65.207  1.00  0.00    -0.099 OA 
BRANCH  24  25
HETATM   25  C   UNL     1      -7.881   8.388  64.067  1.00  0.00    -0.146 C  
BRANCH  25  26
HETATM   26  C   UNL     1      -7.626   9.202  62.807  1.00  0.00    -0.107 C  
BRANCH  26  27
HETATM   27  O   UNL     1      -8.045  10.546  63.030  1.00  0.00    -0.154 OA 
BRANCH  27  28
HETATM   28  C   UNL     1      -9.388  10.746  62.597  1.00  0.00    -0.313 C  
BRANCH  28  29
HETATM   29  C   UNL     1     -10.036  11.812  63.467  1.00  0.00    -0.438 C  
BRANCH  29  30
HETATM   30  O   UNL     1     -11.378  11.425  63.749  1.00  0.00    -0.382 OA 
BRANCH  30  31
HETATM   31  C   UNL     1     -12.264  12.538  63.664  1.00  0.00    -0.550 C  
BRANCH  31  32
HETATM   32  C   UNL     1     -12.353  13.205  65.029  1.00  0.00    -0.459 C  
BRANCH  32  33
HETATM   33  O   UNL     1     -12.224  12.208  66.038  1.00  0.00    -0.609 OA 
BRANCH  33  34
HETATM   34  C   UNL     1     -11.584  12.732  67.198  1.00  0.00    -0.364 C  
BRANCH  34  35
HETATM   35  C   UNL     1     -12.186  14.091  67.523  1.00  0.00    -0.223 C  
BRANCH  35  36
HETATM   36  O   UNL     1     -12.253  14.241  68.939  1.00  0.00    -0.306 OA 
BRANCH  36  37
HETATM   37  C   UNL     1     -10.959  14.152  69.529  1.00  0.00    -0.136 C  
BRANCH  37  38
HETATM   38  C   UNL     1     -10.425  15.557  69.767  1.00  0.00    -0.301 C  
BRANCH  38  39
HETATM   39  O   UNL     1      -9.033  15.584  69.463  1.00  0.00    -0.268 OA 
BRANCH  39  40
HETATM   40  C   UNL     1      -8.763  16.440  68.354  1.00  0.00    -0.213 C  
BRANCH  40  41
HETATM   41  C   UNL     1      -8.103  15.628  67.248  1.00  0.00    -0.195 C  
BRANCH  41  42
HETATM   42  O   UNL     1      -9.081  15.278  66.271  1.00  0.00    -0.288 OA 
HETATM   43  C   UNL     1      -9.944  16.371  65.987  1.00  0.00    -0.345 C  
ENDBRANCH  41  42
ENDBRANCH  40  41
ENDBRANCH  39  40
ENDBRANCH  38  39
ENDBRANCH  37  38
ENDBRANCH  36  37
ENDBRANCH  35  36
ENDBRANCH  34  35
ENDBRANCH  33  34
ENDBRANCH  32  33
ENDBRANCH  31  32
ENDBRANCH  30  31
ENDBRANCH  29  30
ENDBRANCH  28  29
ENDBRANCH  27  28
ENDBRANCH  26  27
ENDBRANCH  25  26
ENDBRANCH  24  25
ENDBRANCH  23  24
ENDBRANCH  22  23
ENDBRANCH  21  22
ENDBRANCH  20  21
ENDBRANCH  19  20
ENDBRANCH  18  19
ENDBRANCH  17  18
ENDBRANCH  16  17
ENDBRANCH  15  16
ENDBRANCH  13  15
ENDBRANCH  10  13
ENDBRANCH   5   7
ENDBRANCH   4   5
ENDBRANCH   3   4
ENDBRANCH   2   3
TORSDOF 33
ENDMDL
MODEL       55
REMARK 921   NORMALIZED FREE ENERGY PREDICTED BY IDOCK:   -4.03 KCAL/MOL
REMARK 922        TOTAL FREE ENERGY PREDICTED BY IDOCK:  -14.61 KCAL/MOL
REMARK 923 INTER-LIGAND FREE ENERGY PREDICTED BY IDOCK:  -11.44 KCAL/MOL
REMARK 924 INTRA-LIGAND FREE ENERGY PREDICTED BY IDOCK:   -3.16 KCAL/MOL
REMARK 927      BINDING AFFINITY PREDICTED BY RF-SCORE:    0.00 PKD
ROOT
HETATM    1  C   UNL     1     -10.028   5.563  68.052  1.00  0.00    -0.189 C  
HETATM    2  C   UNL     1     -10.325   6.455  66.861  1.00  0.00    -0.306 C  
ENDROOT
BRANCH   2   3
HETATM    3  C   UNL     1      -9.054   6.854  66.107  1.00  0.00    -0.144 C  
BRANCH   3   4
HETATM    4  C   UNL     1      -8.674   8.285  66.472  1.00  0.00    -0.141 C  
BRANCH   4   5
HETATM    5  N   UNL     1      -7.449   8.333  67.262  1.00  0.00    -0.088 NA 
HETATM    6  H   UNL     1      -6.535   8.390  66.813  1.00  0.00     0.000 HD 
BRANCH   5   7
HETATM    7  C   UNL     1      -7.570   8.300  68.661  1.00  0.00    -0.099 A  
HETATM    8  C   UNL     1      -6.968   7.317  69.457  1.00  0.00    -0.057 A  
HETATM    9  C   UNL     1      -7.171   7.269  70.836  1.00  0.00    -0.069 A  
HETATM   10  C   UNL     1      -8.016   8.189  71.459  1.00  0.00    -0.135 A  
HETATM   11  C   UNL     1      -8.431   9.208  69.293  1.00  0.00    -0.132 A  
HETATM   12  C   UNL     1      -8.651   9.163  70.680  1.00  0.00    -0.266 A  
BRANCH  10  13
HETATM   13  C   UNL     1      -8.208   8.052  72.926  1.00  0.00    -0.167 C  
HETATM   14  O   UNL     1      -7.911   8.929  73.724  1.00  0.00    -0.380 OA 
BRANCH  13  15
HETATM   15  O   UNL     1      -8.715   6.839  73.243  1.00  0.00    -0.122 OA 
BRANCH  15  16
HETATM   16  C   UNL     1     -10.116   6.842  73.572  1.00  0.00    -0.268 C  
BRANCH  16  17
HETATM   17  C   UNL     1     -10.791   5.540  73.141  1.00  0.00    -0.285 C  
BRANCH  17  18
HETATM   18  O   UNL     1     -11.121   5.618  71.750  1.00  0.00    -0.256 OA 
BRANCH  18  19
HETATM   19  C   UNL     1     -11.554   6.929  71.394  1.00  0.00    -0.299 C  
BRANCH  19  20
HETATM   20  C   UNL     1     -13.067   7.022  71.541  1.00  0.00    -0.339 C  
BRANCH  20  21
HETATM   21  O   UNL     1     -13.383   8.093  72.429  1.00  0.00    -0.194 OA 
BRANCH  21  22
HETATM   22  C   UNL     1     -13.929   9.207  71.727  1.00  0.00    -0.314 C  
BRANCH  22  23
HETATM   23  C   UNL     1     -13.128  10.456  72.073  1.00  0.00    -0.416 C  
BRANCH  23  24
HETATM   24  O   UNL     1     -11.826  10.348  71.501  1.00  0.00    -0.301 OA 
BRANCH  24  25
HETATM   25  C   UNL     1     -11.767  10.986  70.227  1.00  0.00    -0.355 C  
BRANCH  25  26
HETATM   26  C   UNL     1     -12.329  12.396  70.351  1.00  0.00    -0.227 C  
BRANCH  26  27
HETATM   27  O   UNL     1     -11.449  13.305  69.694  1.00  0.00    -0.258 OA 
BRANCH  27  28
HETATM   28  C   UNL     1     -11.882  13.570  68.362  1.00  0.00    -0.373 C  
BRANCH  28  29
HETATM   29  C   UNL     1     -11.191  12.602  67.414  1.00  0.00    -0.290 C  
BRANCH  29  30
HETATM   30  O   UNL     1     -12.170  12.007  66.567  1.00  0.00    -0.548 OA 
BRANCH  30  31
HETATM   31  C   UNL     1     -12.355  12.773  65.379  1.00  0.00    -0.470 C  
BRANCH  31  32
HETATM   32  C   UNL     1     -11.139  12.596  64.482  1.00  0.00    -0.327 C  
BRANCH  32  33
HETATM   33  O   UNL     1     -10.528  13.866  64.278  1.00  0.00    -0.313 OA 
BRANCH  33  34
HETATM   34  C   UNL     1     -11.434  14.925  64.573  1.00  0.00    -0.325 C  
BRANCH  34  35
HETATM   35  C   UNL     1     -10.657  16.084  65.180  1.00  0.00    -0.370 C  
BRANCH  35  36
HETATM   36  O   UNL     1      -9.296  15.695  65.343  1.00  0.00    -0.244 OA 
BRANCH  36  37
HETATM   37  C   UNL     1      -8.699  16.361  66.453  1.00  0.00    -0.319 C  
BRANCH  37  38
HETATM   38  C   UNL     1      -9.672  16.342  67.623  1.00  0.00    -0.238 C  
BRANCH  38  39
HETATM   39  O   UNL     1      -9.100  17.055  68.717  1.00  0.00    -0.265 OA 
BRANCH  39  40
HETATM   40  C   UNL     1      -8.814  18.407  68.359  1.00  0.00    -0.320 C  
BRANCH  40  41
HETATM   41  C   UNL     1      -9.949  19.300  68.840  1.00  0.00    -0.427 C  
BRANCH  41  42
HETATM   42  O   UNL     1     -10.472  20.035  67.736  1.00  0.00    -0.383 OA 
HETATM   43  C   UNL     1      -9.580  20.010  66.629  1.00  0.00    -0.425 C  
ENDBRANCH  41  42
ENDBRANCH  40  41
ENDBRANCH  39  40
ENDBRANCH  38  39
ENDBRANCH  37  38
ENDBRANCH  36  37
ENDBRANCH  35  36
ENDBRANCH  34  35
ENDBRANCH  33  34
ENDBRANCH  32  33
ENDBRANCH  31  32
ENDBRANCH  30  31
ENDBRANCH  29  30
ENDBRANCH  28  29
ENDBRANCH  27  28
ENDBRANCH  26  27
ENDBRANCH  25  26
ENDBRANCH  24  25
ENDBRANCH  23  24
ENDBRANCH  22  23
ENDBRANCH  21  22
ENDBRANCH  20  21
ENDBRANCH  19  20
ENDBRANCH  18  19
ENDBRANCH  17  18
ENDBRANCH  16  17
ENDBRANCH  15  16
ENDBRANCH  13  15
ENDBRANCH  10  13
ENDBRANCH   5   7
ENDBRANCH   4   5
ENDBRANCH   3   4
ENDBRANCH   2   3
TORSDOF 33
ENDMDL
MODEL       56
REMARK 921   NORMALIZED FREE ENERGY PREDICTED BY IDOCK:   -4.02 KCAL/MOL
REMARK 922        TOTAL FREE ENERGY PREDICTED BY IDOCK:  -14.58 KCAL/MOL
REMARK 923 INTER-LIGAND FREE ENERGY PREDICTED BY IDOCK:  -11.56 KCAL/MOL
REMARK 924 INTRA-LIGAND FREE ENERGY PREDICTED BY IDOCK:   -3.02 KCAL/MOL
REMARK 927      BINDING AFFINITY PREDICTED BY RF-SCORE:    0.00 PKD
ROOT
HETATM    1  C   UNL     1      -6.903   4.140  65.231  1.00  0.00    -0.053 C  
HETATM    2  C   UNL     1      -8.128   3.763  66.042  1.00  0.00    -0.100 C  
ENDROOT
BRANCH   2   3
HETATM    3  C   UNL     1      -7.799   3.552  67.522  1.00  0.00    -0.078 C  
BRANCH   3   4
HETATM    4  C   UNL     1      -9.057   3.119  68.267  1.00  0.00    -0.164 C  
BRANCH   4   5
HETATM    5  N   UNL     1      -9.004   3.490  69.677  1.00  0.00    -0.097 NA 
HETATM    6  H   UNL     1      -8.315   3.078  70.305  1.00  0.00     0.000 HD 
BRANCH   5   7
HETATM    7  C   UNL     1      -9.934   4.435  70.141  1.00  0.00    -0.179 A  
HETATM    8  C   UNL     1     -10.657   5.280  69.288  1.00  0.00    -0.188 A  
HETATM    9  C   UNL     1     -11.515   6.260  69.786  1.00  0.00    -0.449 A  
HETATM   10  C   UNL     1     -11.653   6.446  71.163  1.00  0.00    -0.378 A  
HETATM   11  C   UNL     1     -10.066   4.642  71.522  1.00  0.00    -0.255 A  
HETATM   12  C   UNL     1     -10.920   5.633  72.034  1.00  0.00    -0.302 A  
BRANCH  10  13
HETATM   13  C   UNL     1     -12.561   7.531  71.615  1.00  0.00    -0.348 C  
HETATM   14  O   UNL     1     -13.742   7.589  71.303  1.00  0.00    -0.339 OA 
BRANCH  13  15
HETATM   15  O   UNL     1     -11.903   8.437  72.374  1.00  0.00    -0.372 OA 
BRANCH  15  16
HETATM   16  C   UNL     1     -10.805   9.091  71.712  1.00  0.00    -0.367 C  
BRANCH  16  17
HETATM   17  C   UNL     1     -11.301  10.066  70.644  1.00  0.00    -0.348 C  
BRANCH  17  18
HETATM   18  O   UNL     1     -10.376  10.081  69.552  1.00  0.00    -0.204 OA 
BRANCH  18  19
HETATM   19  C   UNL     1      -9.067   9.708  69.978  1.00  0.00    -0.237 C  
BRANCH  19  20
HETATM   20  C   UNL     1      -8.288   9.149  68.795  1.00  0.00    -0.121 C  
BRANCH  20  21
HETATM   21  O   UNL     1      -9.134   8.269  68.056  1.00  0.00    -0.137 OA 
BRANCH  21  22
HETATM   22  C   UNL     1      -8.379   7.429  67.186  1.00  0.00    -0.118 C  
BRANCH  22  23
HETATM   23  C   UNL     1      -6.896   7.602  67.488  1.00  0.00    -0.069 C  
BRANCH  23  24
HETATM   24  O   UNL     1      -6.254   8.185  66.356  1.00  0.00    -0.045 OA 
BRANCH  24  25
HETATM   25  C   UNL     1      -7.140   8.258  65.241  1.00  0.00    -0.074 C  
BRANCH  25  26
HETATM   26  C   UNL     1      -6.843   9.525  64.452  1.00  0.00    -0.100 C  
BRANCH  26  27
HETATM   27  O   UNL     1      -7.653  10.585  64.953  1.00  0.00    -0.112 OA 
BRANCH  27  28
HETATM   28  C   UNL     1      -8.987  10.492  64.459  1.00  0.00    -0.209 C  
BRANCH  28  29
HETATM   29  C   UNL     1      -9.954  10.886  65.565  1.00  0.00    -0.260 C  
BRANCH  29  30
HETATM   30  O   UNL     1     -11.098  11.502  64.980  1.00  0.00    -0.275 OA 
BRANCH  30  31
HETATM   31  C   UNL     1     -10.719  12.541  64.081  1.00  0.00    -0.391 C  
BRANCH  31  32
HETATM   32  C   UNL     1     -11.970  13.265  63.607  1.00  0.00    -0.486 C  
BRANCH  32  33
HETATM   33  O   UNL     1     -12.508  14.015  64.691  1.00  0.00    -0.568 OA 
BRANCH  33  34
HETATM   34  C   UNL     1     -11.521  14.866  65.266  1.00  0.00    -0.336 C  
BRANCH  34  35
HETATM   35  C   UNL     1     -11.642  14.809  66.782  1.00  0.00    -0.324 C  
BRANCH  35  36
HETATM   36  O   UNL     1     -12.366  13.636  67.145  1.00  0.00    -0.336 OA 
BRANCH  36  37
HETATM   37  C   UNL     1     -11.894  13.100  68.378  1.00  0.00    -0.351 C  
BRANCH  37  38
HETATM   38  C   UNL     1     -11.687  14.239  69.366  1.00  0.00    -0.316 C  
BRANCH  38  39
HETATM   39  O   UNL     1     -12.626  14.111  70.429  1.00  0.00    -0.343 OA 
BRANCH  39  40
HETATM   40  C   UNL     1     -13.208  15.372  70.759  1.00  0.00    -0.387 C  
BRANCH  40  41
HETATM   41  C   UNL     1     -14.198  15.180  71.900  1.00  0.00    -0.579 C  
BRANCH  41  42
HETATM   42  O   UNL     1     -13.529  14.590  73.013  1.00  0.00    -0.583 OA 
HETATM   43  C   UNL     1     -12.648  15.516  73.635  1.00  0.00    -0.582 C  
ENDBRANCH  41  42
ENDBRANCH  40  41
ENDBRANCH  39  40
ENDBRANCH  38  39
ENDBRANCH  37  38
ENDBRANCH  36  37
ENDBRANCH  35  36
ENDBRANCH  34  35
ENDBRANCH  33  34
ENDBRANCH  32  33
ENDBRANCH  31  32
ENDBRANCH  30  31
ENDBRANCH  29  30
ENDBRANCH  28  29
ENDBRANCH  27  28
ENDBRANCH  26  27
ENDBRANCH  25  26
ENDBRANCH  24  25
ENDBRANCH  23  24
ENDBRANCH  22  23
ENDBRANCH  21  22
ENDBRANCH  20  21
ENDBRANCH  19  20
ENDBRANCH  18  19
ENDBRANCH  17  18
ENDBRANCH  16  17
ENDBRANCH  15  16
ENDBRANCH  13  15
ENDBRANCH  10  13
ENDBRANCH   5   7
ENDBRANCH   4   5
ENDBRANCH   3   4
ENDBRANCH   2   3
TORSDOF 33
ENDMDL
MODEL       57
REMARK 921   NORMALIZED FREE ENERGY PREDICTED BY IDOCK:   -4.01 KCAL/MOL
REMARK 922        TOTAL FREE ENERGY PREDICTED BY IDOCK:  -14.54 KCAL/MOL
REMARK 923 INTER-LIGAND FREE ENERGY PREDICTED BY IDOCK:  -11.76 KCAL/MOL
REMARK 924 INTRA-LIGAND FREE ENERGY PREDICTED BY IDOCK:   -2.79 KCAL/MOL
REMARK 927      BINDING AFFINITY PREDICTED BY RF-SCORE:    0.00 PKD
ROOT
HETATM    1  C   UNL     1      -9.116   3.482  70.839  1.00  0.00    -0.182 C  
HETATM    2  C   UNL     1      -9.872   4.748  71.194  1.00  0.00    -0.260 C  
ENDROOT
BRANCH   2   3
HETATM    3  C   UNL     1     -10.464   5.433  69.960  1.00  0.00    -0.373 C  
BRANCH   3   4
HETATM    4  C   UNL     1      -9.871   4.813  68.700  1.00  0.00    -0.138 C  
BRANCH   4   5
HETATM    5  N   UNL     1     -10.544   5.288  67.496  1.00  0.00    -0.132 NA 
HETATM    6  H   UNL     1     -11.457   4.923  67.225  1.00  0.00     0.000 HD 
BRANCH   5   7
HETATM    7  C   UNL     1      -9.894   6.264  66.724  1.00  0.00    -0.164 A  
HETATM    8  C   UNL     1      -8.749   5.998  65.961  1.00  0.00    -0.154 A  
HETATM    9  C   UNL     1      -8.085   7.008  65.266  1.00  0.00    -0.134 A  
HETATM   10  C   UNL     1      -8.529   8.330  65.341  1.00  0.00    -0.189 A  
HETATM   11  C   UNL     1     -10.322   7.597  66.808  1.00  0.00    -0.343 A  
HETATM   12  C   UNL     1      -9.654   8.624  66.120  1.00  0.00    -0.305 A  
BRANCH  10  13
HETATM   13  C   UNL     1      -7.748   9.353  64.600  1.00  0.00    -0.117 C  
HETATM   14  O   UNL     1      -7.163  10.275  65.150  1.00  0.00    -0.139 OA 
BRANCH  13  15
HETATM   15  O   UNL     1      -7.803   9.142  63.266  1.00  0.00    -0.119 OA 
BRANCH  15  16
HETATM   16  C   UNL     1      -8.147  10.303  62.488  1.00  0.00    -0.152 C  
BRANCH  16  17
HETATM   17  C   UNL     1      -9.631  10.643  62.625  1.00  0.00    -0.257 C  
BRANCH  17  18
HETATM   18  O   UNL     1      -9.776  11.789  63.471  1.00  0.00    -0.330 OA 
BRANCH  18  19
HETATM   19  C   UNL     1     -10.814  11.598  64.429  1.00  0.00    -0.339 C  
BRANCH  19  20
HETATM   20  C   UNL     1     -12.073  12.316  63.964  1.00  0.00    -0.471 C  
BRANCH  20  21
HETATM   21  O   UNL     1     -12.820  12.732  65.107  1.00  0.00    -0.726 OA 
BRANCH  21  22
HETATM   22  C   UNL     1     -12.529  14.084  65.455  1.00  0.00    -0.498 C  
BRANCH  22  23
HETATM   23  C   UNL     1     -12.169  14.152  66.934  1.00  0.00    -0.365 C  
BRANCH  23  24
HETATM   24  O   UNL     1     -11.085  15.062  67.109  1.00  0.00    -0.320 OA 
BRANCH  24  25
HETATM   25  C   UNL     1     -11.395  16.052  68.087  1.00  0.00    -0.289 C  
BRANCH  25  26
HETATM   26  C   UNL     1     -11.772  15.362  69.390  1.00  0.00    -0.351 C  
BRANCH  26  27
HETATM   27  O   UNL     1     -11.420  16.208  70.482  1.00  0.00    -0.367 OA 
BRANCH  27  28
HETATM   28  C   UNL     1     -12.235  15.946  71.621  1.00  0.00    -0.479 C  
BRANCH  28  29
HETATM   29  C   UNL     1     -13.146  14.765  71.318  1.00  0.00    -0.368 C  
BRANCH  29  30
HETATM   30  O   UNL     1     -13.343  14.016  72.514  1.00  0.00    -0.464 OA 
BRANCH  30  31
HETATM   31  C   UNL     1     -13.564  12.638  72.228  1.00  0.00    -0.409 C  
BRANCH  31  32
HETATM   32  C   UNL     1     -12.735  12.247  71.013  1.00  0.00    -0.225 C  
BRANCH  32  33
HETATM   33  O   UNL     1     -12.095  11.002  71.274  1.00  0.00    -0.295 OA 
BRANCH  33  34
HETATM   34  C   UNL     1     -13.042   9.939  71.328  1.00  0.00    -0.400 C  
BRANCH  34  35
HETATM   35  C   UNL     1     -12.345   8.682  71.829  1.00  0.00    -0.346 C  
BRANCH  35  36
HETATM   36  O   UNL     1     -11.063   9.036  72.341  1.00  0.00    -0.209 OA 
BRANCH  36  37
HETATM   37  C   UNL     1     -10.446   7.931  72.996  1.00  0.00    -0.343 C  
BRANCH  37  38
HETATM   38  C   UNL     1      -8.938   8.138  73.002  1.00  0.00    -0.266 C  
BRANCH  38  39
HETATM   39  O   UNL     1      -8.590   9.066  71.979  1.00  0.00    -0.367 OA 
BRANCH  39  40
HETATM   40  C   UNL     1      -8.265   8.396  70.762  1.00  0.00    -0.124 C  
BRANCH  40  41
HETATM   41  C   UNL     1      -8.550   9.326  69.590  1.00  0.00    -0.150 C  
BRANCH  41  42
HETATM   42  O   UNL     1      -7.328   9.908  69.140  1.00  0.00    -0.073 OA 
HETATM   43  C   UNL     1      -7.298  11.306  69.393  1.00  0.00    -0.025 C  
ENDBRANCH  41  42
ENDBRANCH  40  41
ENDBRANCH  39  40
ENDBRANCH  38  39
ENDBRANCH  37  38
ENDBRANCH  36  37
ENDBRANCH  35  36
ENDBRANCH  34  35
ENDBRANCH  33  34
ENDBRANCH  32  33
ENDBRANCH  31  32
ENDBRANCH  30  31
ENDBRANCH  29  30
ENDBRANCH  28  29
ENDBRANCH  27  28
ENDBRANCH  26  27
ENDBRANCH  25  26
ENDBRANCH  24  25
ENDBRANCH  23  24
ENDBRANCH  22  23
ENDBRANCH  21  22
ENDBRANCH  20  21
ENDBRANCH  19  20
ENDBRANCH  18  19
ENDBRANCH  17  18
ENDBRANCH  16  17
ENDBRANCH  15  16
ENDBRANCH  13  15
ENDBRANCH  10  13
ENDBRANCH   5   7
ENDBRANCH   4   5
ENDBRANCH   3   4
ENDBRANCH   2   3
TORSDOF 33
ENDMDL
MODEL       58
REMARK 921   NORMALIZED FREE ENERGY PREDICTED BY IDOCK:   -4.01 KCAL/MOL
REMARK 922        TOTAL FREE ENERGY PREDICTED BY IDOCK:  -14.53 KCAL/MOL
REMARK 923 INTER-LIGAND FREE ENERGY PREDICTED BY IDOCK:  -11.41 KCAL/MOL
REMARK 924 INTRA-LIGAND FREE ENERGY PREDICTED BY IDOCK:   -3.13 KCAL/MOL
REMARK 927      BINDING AFFINITY PREDICTED BY RF-SCORE:    0.00 PKD
ROOT
HETATM    1  C   UNL     1     -10.106  10.479  64.449  1.00  0.00    -0.395 C  
HETATM    2  C   UNL     1     -10.194  11.409  63.254  1.00  0.00    -0.430 C  
ENDROOT
BRANCH   2   3
HETATM    3  C   UNL     1     -11.317  12.439  63.404  1.00  0.00    -0.507 C  
BRANCH   3   4
HETATM    4  C   UNL     1     -12.026  12.228  64.737  1.00  0.00    -0.362 C  
BRANCH   4   5
HETATM    5  N   UNL     1     -12.071  13.455  65.524  1.00  0.00    -0.401 NA 
HETATM    6  H   UNL     1     -12.949  13.950  65.678  1.00  0.00     0.000 HD 
BRANCH   5   7
HETATM    7  C   UNL     1     -10.865  13.931  66.064  1.00  0.00    -0.290 A  
HETATM    8  C   UNL     1     -10.218  15.081  65.593  1.00  0.00    -0.386 A  
HETATM    9  C   UNL     1      -8.983  15.483  66.100  1.00  0.00    -0.329 A  
HETATM   10  C   UNL     1      -8.338  14.723  67.078  1.00  0.00    -0.228 A  
HETATM   11  C   UNL     1     -10.201  13.165  67.033  1.00  0.00    -0.250 A  
HETATM   12  C   UNL     1      -8.952  13.555  67.543  1.00  0.00    -0.210 A  
BRANCH  10  13
HETATM   13  C   UNL     1      -7.010  15.199  67.543  1.00  0.00    -0.192 C  
HETATM   14  O   UNL     1      -5.983  14.549  67.411  1.00  0.00    -0.344 OA 
BRANCH  13  15
HETATM   15  O   UNL     1      -7.104  16.406  68.145  1.00  0.00    -0.134 OA 
BRANCH  15  16
HETATM   16  C   UNL     1      -5.922  16.815  68.859  1.00  0.00    -0.156 C  
BRANCH  16  17
HETATM   17  C   UNL     1      -5.907  18.326  69.089  1.00  0.00    -0.222 C  
BRANCH  17  18
HETATM   18  O   UNL     1      -7.240  18.834  68.976  1.00  0.00    -0.309 OA 
BRANCH  18  19
HETATM   19  C   UNL     1      -7.266  20.063  68.254  1.00  0.00    -0.277 C  
BRANCH  19  20
HETATM   20  C   UNL     1      -7.492  19.780  66.775  1.00  0.00    -0.249 C  
BRANCH  20  21
HETATM   21  O   UNL     1      -8.594  18.885  66.636  1.00  0.00    -0.286 OA 
BRANCH  21  22
HETATM   22  C   UNL     1      -9.821  19.593  66.471  1.00  0.00    -0.420 C  
BRANCH  22  23
HETATM   23  C   UNL     1     -10.882  18.967  67.368  1.00  0.00    -0.409 C  
BRANCH  23  24
HETATM   24  O   UNL     1     -10.250  18.095  68.302  1.00  0.00    -0.357 OA 
BRANCH  24  25
HETATM   25  C   UNL     1     -11.055  16.947  68.563  1.00  0.00    -0.213 C  
BRANCH  25  26
HETATM   26  C   UNL     1     -10.554  16.267  69.829  1.00  0.00    -0.316 C  
BRANCH  26  27
HETATM   27  O   UNL     1     -11.632  16.160  70.755  1.00  0.00    -0.392 OA 
BRANCH  27  28
HETATM   28  C   UNL     1     -11.440  15.062  71.644  1.00  0.00    -0.313 C  
BRANCH  28  29
HETATM   29  C   UNL     1     -12.554  14.048  71.427  1.00  0.00    -0.372 C  
BRANCH  29  30
HETATM   30  O   UNL     1     -12.042  12.956  70.667  1.00  0.00    -0.349 OA 
BRANCH  30  31
HETATM   31  C   UNL     1     -12.750  11.753  70.954  1.00  0.00    -0.235 C  
BRANCH  31  32
HETATM   32  C   UNL     1     -12.043  10.590  70.275  1.00  0.00    -0.318 C  
BRANCH  32  33
HETATM   33  O   UNL     1     -11.109  10.022  71.188  1.00  0.00    -0.333 OA 
BRANCH  33  34
HETATM   34  C   UNL     1     -11.038   8.607  71.035  1.00  0.00    -0.264 C  
BRANCH  34  35
HETATM   35  C   UNL     1      -9.582   8.202  70.860  1.00  0.00    -0.162 C  
BRANCH  35  36
HETATM   36  O   UNL     1      -9.377   7.780  69.514  1.00  0.00    -0.150 OA 
BRANCH  36  37
HETATM   37  C   UNL     1     -10.258   6.714  69.168  1.00  0.00    -0.179 C  
BRANCH  37  38
HETATM   38  C   UNL     1     -10.412   6.671  67.654  1.00  0.00    -0.227 C  
BRANCH  38  39
HETATM   39  O   UNL     1      -9.223   7.172  67.050  1.00  0.00    -0.134 OA 
BRANCH  39  40
HETATM   40  C   UNL     1      -8.844   6.383  65.923  1.00  0.00    -0.131 C  
BRANCH  40  41
HETATM   41  C   UNL     1      -7.856   5.315  66.372  1.00  0.00    -0.103 C  
BRANCH  41  42
HETATM   42  O   UNL     1      -6.578   5.584  65.800  1.00  0.00    -0.039 OA 
HETATM   43  C   UNL     1      -6.493   5.093  64.470  1.00  0.00    -0.034 C  
ENDBRANCH  41  42
ENDBRANCH  40  41
ENDBRANCH  39  40
ENDBRANCH  38  39
ENDBRANCH  37  38
ENDBRANCH  36  37
ENDBRANCH  35  36
ENDBRANCH  34  35
ENDBRANCH  33  34
ENDBRANCH  32  33
ENDBRANCH  31  32
ENDBRANCH  30  31
ENDBRANCH  29  30
ENDBRANCH  28  29
ENDBRANCH  27  28
ENDBRANCH  26  27
ENDBRANCH  25  26
ENDBRANCH  24  25
ENDBRANCH  23  24
ENDBRANCH  22  23
ENDBRANCH  21  22
ENDBRANCH  20  21
ENDBRANCH  19  20
ENDBRANCH  18  19
ENDBRANCH  17  18
ENDBRANCH  16  17
ENDBRANCH  15  16
ENDBRANCH  13  15
ENDBRANCH  10  13
ENDBRANCH   5   7
ENDBRANCH   4   5
ENDBRANCH   3   4
ENDBRANCH   2   3
TORSDOF 33
ENDMDL
MODEL       59
REMARK 921   NORMALIZED FREE ENERGY PREDICTED BY IDOCK:   -4.00 KCAL/MOL
REMARK 922        TOTAL FREE ENERGY PREDICTED BY IDOCK:  -14.51 KCAL/MOL
REMARK 923 INTER-LIGAND FREE ENERGY PREDICTED BY IDOCK:  -12.25 KCAL/MOL
REMARK 924 INTRA-LIGAND FREE ENERGY PREDICTED BY IDOCK:   -2.26 KCAL/MOL
REMARK 927      BINDING AFFINITY PREDICTED BY RF-SCORE:    0.00 PKD
ROOT
HETATM    1  C   UNL     1      -9.400   1.680  64.292  1.00  0.00    -0.128 C  
HETATM    2  C   UNL     1     -10.340   2.454  63.387  1.00  0.00    -0.170 C  
ENDROOT
BRANCH   2   3
HETATM    3  C   UNL     1     -10.729   3.810  63.981  1.00  0.00    -0.256 C  
BRANCH   3   4
HETATM    4  C   UNL     1      -9.826   4.122  65.170  1.00  0.00    -0.205 C  
BRANCH   4   5
HETATM    5  N   UNL     1     -10.207   5.370  65.822  1.00  0.00    -0.420 NA 
HETATM    6  H   UNL     1     -10.455   6.195  65.277  1.00  0.00     0.000 HD 
BRANCH   5   7
HETATM    7  C   UNL     1     -10.219   5.397  67.226  1.00  0.00    -0.214 A  
HETATM    8  C   UNL     1      -9.474   4.511  68.016  1.00  0.00    -0.197 A  
HETATM    9  C   UNL     1      -9.569   4.516  69.407  1.00  0.00    -0.264 A  
HETATM   10  C   UNL     1     -10.444   5.391  70.054  1.00  0.00    -0.373 A  
HETATM   11  C   UNL     1     -11.108   6.260  67.884  1.00  0.00    -0.360 A  
HETATM   12  C   UNL     1     -11.220   6.266  69.285  1.00  0.00    -0.458 A  
BRANCH  10  13
HETATM   13  C   UNL     1     -10.513   5.313  71.535  1.00  0.00    -0.210 C  
HETATM   14  O   UNL     1     -11.504   5.633  72.176  1.00  0.00    -0.258 OA 
BRANCH  13  15
HETATM   15  O   UNL     1      -9.345   4.878  72.059  1.00  0.00    -0.137 OA 
BRANCH  15  16
HETATM   16  C   UNL     1      -8.473   5.922  72.530  1.00  0.00    -0.116 C  
BRANCH  16  17
HETATM   17  C   UNL     1      -8.892   6.413  73.915  1.00  0.00    -0.127 C  
BRANCH  17  18
HETATM   18  O   UNL     1      -9.424   7.737  73.806  1.00  0.00    -0.284 OA 
BRANCH  18  19
HETATM   19  C   UNL     1      -9.023   8.357  72.586  1.00  0.00    -0.234 C  
BRANCH  19  20
HETATM   20  C   UNL     1     -10.249   8.902  71.865  1.00  0.00    -0.333 C  
BRANCH  20  21
HETATM   21  O   UNL     1      -9.836   9.520  70.648  1.00  0.00    -0.263 OA 
BRANCH  21  22
HETATM   22  C   UNL     1      -8.564   9.034  70.223  1.00  0.00    -0.178 C  
BRANCH  22  23
HETATM   23  C   UNL     1      -8.262   9.578  68.832  1.00  0.00    -0.116 C  
BRANCH  23  24
HETATM   24  O   UNL     1      -8.616   8.598  67.860  1.00  0.00    -0.135 OA 
BRANCH  24  25
HETATM   25  C   UNL     1      -8.679   9.166  66.553  1.00  0.00    -0.128 C  
BRANCH  25  26
HETATM   26  C   UNL     1     -10.138   9.334  66.154  1.00  0.00    -0.233 C  
BRANCH  26  27
HETATM   27  O   UNL     1     -10.289  10.567  65.456  1.00  0.00    -0.270 OA 
BRANCH  27  28
HETATM   28  C   UNL     1      -9.746  10.485  64.141  1.00  0.00    -0.327 C  
BRANCH  28  29
HETATM   29  C   UNL     1     -10.391  11.555  63.272  1.00  0.00    -0.384 C  
BRANCH  29  30
HETATM   30  O   UNL     1     -11.653  11.906  63.833  1.00  0.00    -0.395 OA 
BRANCH  30  31
HETATM   31  C   UNL     1     -12.074  13.193  63.387  1.00  0.00    -0.486 C  
BRANCH  31  32
HETATM   32  C   UNL     1     -11.994  14.169  64.551  1.00  0.00    -0.458 C  
BRANCH  32  33
HETATM   33  O   UNL     1     -10.629  14.502  64.782  1.00  0.00    -0.425 OA 
BRANCH  33  34
HETATM   34  C   UNL     1     -10.511  15.774  65.412  1.00  0.00    -0.414 C  
BRANCH  34  35
HETATM   35  C   UNL     1     -10.872  15.633  66.883  1.00  0.00    -0.282 C  
BRANCH  35  36
HETATM   36  O   UNL     1     -10.696  16.892  67.527  1.00  0.00    -0.329 OA 
BRANCH  36  37
HETATM   37  C   UNL     1     -10.530  16.734  68.933  1.00  0.00    -0.332 C  
BRANCH  37  38
HETATM   38  C   UNL     1     -10.626  15.255  69.279  1.00  0.00    -0.256 C  
BRANCH  38  39
HETATM   39  O   UNL     1     -11.318  15.109  70.517  1.00  0.00    -0.267 OA 
BRANCH  39  40
HETATM   40  C   UNL     1     -12.722  15.302  70.350  1.00  0.00    -0.356 C  
BRANCH  40  41
HETATM   41  C   UNL     1     -13.444  14.806  71.595  1.00  0.00    -0.384 C  
BRANCH  41  42
HETATM   42  O   UNL     1     -13.630  15.894  72.498  1.00  0.00    -0.497 OA 
HETATM   43  C   UNL     1     -12.799  15.764  73.643  1.00  0.00    -0.592 C  
ENDBRANCH  41  42
ENDBRANCH  40  41
ENDBRANCH  39  40
ENDBRANCH  38  39
ENDBRANCH  37  38
ENDBRANCH  36  37
ENDBRANCH  35  36
ENDBRANCH  34  35
ENDBRANCH  33  34
ENDBRANCH  32  33
ENDBRANCH  31  32
ENDBRANCH  30  31
ENDBRANCH  29  30
ENDBRANCH  28  29
ENDBRANCH  27  28
ENDBRANCH  26  27
ENDBRANCH  25  26
ENDBRANCH  24  25
ENDBRANCH  23  24
ENDBRANCH  22  23
ENDBRANCH  21  22
ENDBRANCH  20  21
ENDBRANCH  19  20
ENDBRANCH  18  19
ENDBRANCH  17  18
ENDBRANCH  16  17
ENDBRANCH  15  16
ENDBRANCH  13  15
ENDBRANCH  10  13
ENDBRANCH   5   7
ENDBRANCH   4   5
ENDBRANCH   3   4
ENDBRANCH   2   3
TORSDOF 33
ENDMDL
MODEL       60
REMARK 921   NORMALIZED FREE ENERGY PREDICTED BY IDOCK:   -3.99 KCAL/MOL
REMARK 922        TOTAL FREE ENERGY PREDICTED BY IDOCK:  -14.50 KCAL/MOL
REMARK 923 INTER-LIGAND FREE ENERGY PREDICTED BY IDOCK:  -11.36 KCAL/MOL
REMARK 924 INTRA-LIGAND FREE ENERGY PREDICTED BY IDOCK:   -3.14 KCAL/MOL
REMARK 927      BINDING AFFINITY PREDICTED BY RF-SCORE:    0.00 PKD
ROOT
HETATM    1  C   UNL     1      -6.087   3.389  73.034  1.00  0.00    -0.008 C  
HETATM    2  C   UNL     1      -6.706   3.126  71.674  1.00  0.00    -0.026 C  
ENDROOT
BRANCH   2   3
HETATM    3  C   UNL     1      -6.605   4.341  70.749  1.00  0.00    -0.034 C  
BRANCH   3   4
HETATM    4  C   UNL     1      -7.898   4.485  69.954  1.00  0.00    -0.060 C  
BRANCH   4   5
HETATM    5  N   UNL     1      -9.055   4.036  70.720  1.00  0.00    -0.100 NA 
HETATM    6  H   UNL     1      -9.111   3.083  71.079  1.00  0.00     0.000 HD 
BRANCH   5   7
HETATM    7  C   UNL     1     -10.088   4.959  70.949  1.00  0.00    -0.222 A  
HETATM    8  C   UNL     1     -10.674   5.719  69.928  1.00  0.00    -0.412 A  
HETATM    9  C   UNL     1     -11.645   6.683  70.200  1.00  0.00    -0.446 A  
HETATM   10  C   UNL     1     -12.037   6.940  71.516  1.00  0.00    -0.401 A  
HETATM   11  C   UNL     1     -10.475   5.238  72.268  1.00  0.00    -0.273 A  
HETATM   12  C   UNL     1     -11.444   6.214  72.555  1.00  0.00    -0.318 A  
BRANCH  10  13
HETATM   13  C   UNL     1     -13.051   8.004  71.727  1.00  0.00    -0.336 C  
HETATM   14  O   UNL     1     -14.227   7.879  71.416  1.00  0.00    -0.392 OA 
BRANCH  13  15
HETATM   15  O   UNL     1     -12.495   9.111  72.270  1.00  0.00    -0.368 OA 
BRANCH  15  16
HETATM   16  C   UNL     1     -11.791   9.949  71.334  1.00  0.00    -0.394 C  
BRANCH  16  17
HETATM   17  C   UNL     1     -12.645  11.142  70.905  1.00  0.00    -0.386 C  
BRANCH  17  18
HETATM   18  O   UNL     1     -13.352  11.649  72.042  1.00  0.00    -0.481 OA 
BRANCH  18  19
HETATM   19  C   UNL     1     -13.369  13.075  72.048  1.00  0.00    -0.492 C  
BRANCH  19  20
HETATM   20  C   UNL     1     -12.495  13.598  70.916  1.00  0.00    -0.371 C  
BRANCH  20  21
HETATM   21  O   UNL     1     -11.843  14.792  71.347  1.00  0.00    -0.329 OA 
BRANCH  21  22
HETATM   22  C   UNL     1     -11.047  15.355  70.307  1.00  0.00    -0.311 C  
BRANCH  22  23
HETATM   23  C   UNL     1     -11.926  15.613  69.090  1.00  0.00    -0.310 C  
BRANCH  23  24
HETATM   24  O   UNL     1     -11.240  15.178  67.918  1.00  0.00    -0.306 OA 
BRANCH  24  25
HETATM   25  C   UNL     1     -11.923  14.094  67.292  1.00  0.00    -0.414 C  
BRANCH  25  26
HETATM   26  C   UNL     1     -12.156  14.432  65.827  1.00  0.00    -0.355 C  
BRANCH  26  27
HETATM   27  O   UNL     1     -10.896  14.604  65.185  1.00  0.00    -0.349 OA 
BRANCH  27  28
HETATM   28  C   UNL     1     -10.398  13.366  64.684  1.00  0.00    -0.381 C  
BRANCH  28  29
HETATM   29  C   UNL     1     -11.430  12.762  63.742  1.00  0.00    -0.470 C  
BRANCH  29  30
HETATM   30  O   UNL     1     -11.133  11.381  63.558  1.00  0.00    -0.399 OA 
BRANCH  30  31
HETATM   31  C   UNL     1      -9.759  11.110  63.824  1.00  0.00    -0.301 C  
BRANCH  31  32
HETATM   32  C   UNL     1      -9.345   9.860  63.062  1.00  0.00    -0.189 C  
BRANCH  32  33
HETATM   33  O   UNL     1      -8.352   9.170  63.814  1.00  0.00    -0.166 OA 
BRANCH  33  34
HETATM   34  C   UNL     1      -7.501  10.083  64.500  1.00  0.00    -0.142 C  
BRANCH  34  35
HETATM   35  C   UNL     1      -6.482   9.295  65.310  1.00  0.00    -0.069 C  
BRANCH  35  36
HETATM   36  O   UNL     1      -6.206   9.999  66.518  1.00  0.00    -0.065 OA 
BRANCH  36  37
HETATM   37  C   UNL     1      -7.262  10.899  66.843  1.00  0.00    -0.124 C  
BRANCH  37  38
HETATM   38  C   UNL     1      -7.391  10.984  68.357  1.00  0.00    -0.096 C  
BRANCH  38  39
HETATM   39  O   UNL     1      -8.772  11.009  68.707  1.00  0.00    -0.157 OA 
BRANCH  39  40
HETATM   40  C   UNL     1      -9.598  11.088  67.546  1.00  0.00    -0.164 C  
BRANCH  40  41
HETATM   41  C   UNL     1     -10.671  10.011  67.624  1.00  0.00    -0.284 C  
BRANCH  41  42
HETATM   42  O   UNL     1     -10.505   9.099  66.540  1.00  0.00    -0.228 OA 
HETATM   43  C   UNL     1      -9.683   8.000  66.910  1.00  0.00    -0.225 C  
ENDBRANCH  41  42
ENDBRANCH  40  41
ENDBRANCH  39  40
ENDBRANCH  38  39
ENDBRANCH  37  38
ENDBRANCH  36  37
ENDBRANCH  35  36
ENDBRANCH  34  35
ENDBRANCH  33  34
ENDBRANCH  32  33
ENDBRANCH  31  32
ENDBRANCH  30  31
ENDBRANCH  29  30
ENDBRANCH  28  29
ENDBRANCH  27  28
ENDBRANCH  26  27
ENDBRANCH  25  26
ENDBRANCH  24  25
ENDBRANCH  23  24
ENDBRANCH  22  23
ENDBRANCH  21  22
ENDBRANCH  20  21
ENDBRANCH  19  20
ENDBRANCH  18  19
ENDBRANCH  17  18
ENDBRANCH  16  17
ENDBRANCH  15  16
ENDBRANCH  13  15
ENDBRANCH  10  13
ENDBRANCH   5   7
ENDBRANCH   4   5
ENDBRANCH   3   4
ENDBRANCH   2   3
TORSDOF 33
ENDMDL
MODEL       61
REMARK 921   NORMALIZED FREE ENERGY PREDICTED BY IDOCK:   -3.98 KCAL/MOL
REMARK 922        TOTAL FREE ENERGY PREDICTED BY IDOCK:  -14.46 KCAL/MOL
REMARK 923 INTER-LIGAND FREE ENERGY PREDICTED BY IDOCK:  -11.16 KCAL/MOL
REMARK 924 INTRA-LIGAND FREE ENERGY PREDICTED BY IDOCK:   -3.29 KCAL/MOL
REMARK 927      BINDING AFFINITY PREDICTED BY RF-SCORE:    0.00 PKD
ROOT
HETATM    1  C   UNL     1     -13.841  15.300  72.436  1.00  0.00    -0.641 C  
HETATM    2  C   UNL     1     -13.765  13.792  72.294  1.00  0.00    -0.673 C  
ENDROOT
BRANCH   2   3
HETATM    3  C   UNL     1     -13.531  13.359  70.845  1.00  0.00     0.213 C  
BRANCH   3   4
HETATM    4  C   UNL     1     -12.388  12.350  70.793  1.00  0.00    -0.286 C  
BRANCH   4   5
HETATM    5  N   UNL     1     -11.510  12.588  69.653  1.00  0.00    -0.456 NA 
HETATM    6  H   UNL     1     -11.041  11.816  69.179  1.00  0.00     0.000 HD 
BRANCH   5   7
HETATM    7  C   UNL     1     -11.333  13.915  69.229  1.00  0.00    -0.272 A  
HETATM    8  C   UNL     1     -11.406  14.305  67.885  1.00  0.00    -0.320 A  
HETATM    9  C   UNL     1     -11.149  15.617  67.490  1.00  0.00    -0.289 A  
HETATM   10  C   UNL     1     -10.776  16.579  68.431  1.00  0.00    -0.339 A  
HETATM   11  C   UNL     1     -10.940  14.884  70.163  1.00  0.00    -0.211 A  
HETATM   12  C   UNL     1     -10.668  16.207  69.776  1.00  0.00    -0.336 A  
BRANCH  10  13
HETATM   13  C   UNL     1     -10.486  17.946  67.928  1.00  0.00    -0.396 C  
HETATM   14  O   UNL     1     -10.529  18.942  68.636  1.00  0.00    -0.277 OA 
BRANCH  13  15
HETATM   15  O   UNL     1     -10.207  17.934  66.605  1.00  0.00    -0.339 OA 
BRANCH  15  16
HETATM   16  C   UNL     1     -10.025  19.236  66.018  1.00  0.00    -0.337 C  
BRANCH  16  17
HETATM   17  C   UNL     1      -8.565  19.681  66.096  1.00  0.00    -0.333 C  
BRANCH  17  18
HETATM   18  O   UNL     1      -7.725  18.635  65.597  1.00  0.00    -0.495 OA 
BRANCH  18  19
HETATM   19  C   UNL     1      -6.470  19.145  65.153  1.00  0.00    -0.251 C  
BRANCH  19  20
HETATM   20  C   UNL     1      -6.380  20.629  65.481  1.00  0.00    -0.239 C  
BRANCH  20  21
HETATM   21  O   UNL     1      -5.232  20.856  66.297  1.00  0.00    -0.173 OA 
BRANCH  21  22
HETATM   22  C   UNL     1      -5.600  21.224  67.624  1.00  0.00    -0.334 C  
BRANCH  22  23
HETATM   23  C   UNL     1      -5.155  20.131  68.587  1.00  0.00    -0.198 C  
BRANCH  23  24
HETATM   24  O   UNL     1      -6.252  19.255  68.839  1.00  0.00    -0.231 OA 
BRANCH  24  25
HETATM   25  C   UNL     1      -5.844  17.889  68.790  1.00  0.00    -0.188 C  
BRANCH  25  26
HETATM   26  C   UNL     1      -7.043  17.025  68.428  1.00  0.00    -0.188 C  
BRANCH  26  27
HETATM   27  O   UNL     1      -6.655  16.087  67.428  1.00  0.00    -0.162 OA 
BRANCH  27  28
HETATM   28  C   UNL     1      -6.337  14.822  68.002  1.00  0.00    -0.154 C  
BRANCH  28  29
HETATM   29  C   UNL     1      -7.431  14.437  68.987  1.00  0.00    -0.119 C  
BRANCH  29  30
HETATM   30  O   UNL     1      -7.873  13.115  68.691  1.00  0.00    -0.126 OA 
BRANCH  30  31
HETATM   31  C   UNL     1      -8.210  12.982  67.313  1.00  0.00    -0.172 C  
BRANCH  31  32
HETATM   32  C   UNL     1      -8.665  11.555  67.050  1.00  0.00    -0.169 C  
BRANCH  32  33
HETATM   33  O   UNL     1      -9.141  10.991  68.268  1.00  0.00    -0.145 OA 
BRANCH  33  34
HETATM   34  C   UNL     1      -9.881   9.797  68.027  1.00  0.00    -0.148 C  
BRANCH  34  35
HETATM   35  C   UNL     1      -9.847   8.934  69.279  1.00  0.00    -0.176 C  
BRANCH  35  36
HETATM   36  O   UNL     1      -9.943   9.776  70.425  1.00  0.00    -0.261 OA 
BRANCH  36  37
HETATM   37  C   UNL     1     -10.829   9.226  71.396  1.00  0.00    -0.364 C  
BRANCH  37  38
HETATM   38  C   UNL     1     -10.241   7.924  71.922  1.00  0.00    -0.202 C  
BRANCH  38  39
HETATM   39  O   UNL     1     -10.942   7.539  73.102  1.00  0.00    -0.376 OA 
BRANCH  39  40
HETATM   40  C   UNL     1     -10.062   6.945  74.055  1.00  0.00    -0.348 C  
BRANCH  40  41
HETATM   41  C   UNL     1      -9.881   5.472  73.716  1.00  0.00    -0.171 C  
BRANCH  41  42
HETATM   42  O   UNL     1     -11.124   4.793  73.879  1.00  0.00    -0.294 OA 
HETATM   43  C   UNL     1     -11.058   3.465  73.378  1.00  0.00    -0.186 C  
ENDBRANCH  41  42
ENDBRANCH  40  41
ENDBRANCH  39  40
ENDBRANCH  38  39
ENDBRANCH  37  38
ENDBRANCH  36  37
ENDBRANCH  35  36
ENDBRANCH  34  35
ENDBRANCH  33  34
ENDBRANCH  32  33
ENDBRANCH  31  32
ENDBRANCH  30  31
ENDBRANCH  29  30
ENDBRANCH  28  29
ENDBRANCH  27  28
ENDBRANCH  26  27
ENDBRANCH  25  26
ENDBRANCH  24  25
ENDBRANCH  23  24
ENDBRANCH  22  23
ENDBRANCH  21  22
ENDBRANCH  20  21
ENDBRANCH  19  20
ENDBRANCH  18  19
ENDBRANCH  17  18
ENDBRANCH  16  17
ENDBRANCH  15  16
ENDBRANCH  13  15
ENDBRANCH  10  13
ENDBRANCH   5   7
ENDBRANCH   4   5
ENDBRANCH   3   4
ENDBRANCH   2   3
TORSDOF 33
ENDMDL
MODEL       62
REMARK 921   NORMALIZED FREE ENERGY PREDICTED BY IDOCK:   -3.97 KCAL/MOL
REMARK 922        TOTAL FREE ENERGY PREDICTED BY IDOCK:  -14.43 KCAL/MOL
REMARK 923 INTER-LIGAND FREE ENERGY PREDICTED BY IDOCK:  -11.83 KCAL/MOL
REMARK 924 INTRA-LIGAND FREE ENERGY PREDICTED BY IDOCK:   -2.60 KCAL/MOL
REMARK 927      BINDING AFFINITY PREDICTED BY RF-SCORE:    0.00 PKD
ROOT
HETATM    1  C   UNL     1     -13.164  15.329  70.577  1.00  0.00    -0.278 C  
HETATM    2  C   UNL     1     -13.706  15.239  71.990  1.00  0.00    -0.596 C  
ENDROOT
BRANCH   2   3
HETATM    3  C   UNL     1     -13.183  14.006  72.732  1.00  0.00    -0.580 C  
BRANCH   3   4
HETATM    4  C   UNL     1     -12.923  12.883  71.733  1.00  0.00    -0.315 C  
BRANCH   4   5
HETATM    5  N   UNL     1     -13.656  11.671  72.082  1.00  0.00    -0.436 NA 
HETATM    6  H   UNL     1     -14.529  11.716  72.608  1.00  0.00     0.000 HD 
BRANCH   5   7
HETATM    7  C   UNL     1     -13.119  10.441  71.671  1.00  0.00    -0.448 A  
HETATM    8  C   UNL     1     -13.725   9.209  71.952  1.00  0.00    -0.485 A  
HETATM    9  C   UNL     1     -13.125   8.002  71.595  1.00  0.00    -0.354 A  
HETATM   10  C   UNL     1     -11.877   7.989  70.970  1.00  0.00    -0.280 A  
HETATM   11  C   UNL     1     -11.856  10.417  71.060  1.00  0.00    -0.458 A  
HETATM   12  C   UNL     1     -11.238   9.206  70.705  1.00  0.00    -0.322 A  
BRANCH  10  13
HETATM   13  C   UNL     1     -11.289   6.663  70.651  1.00  0.00    -0.347 C  
HETATM   14  O   UNL     1     -10.964   5.852  71.507  1.00  0.00    -0.259 OA 
BRANCH  13  15
HETATM   15  O   UNL     1     -11.140   6.499  69.317  1.00  0.00    -0.300 OA 
BRANCH  15  16
HETATM   16  C   UNL     1     -10.269   5.418  68.939  1.00  0.00    -0.196 C  
BRANCH  16  17
HETATM   17  C   UNL     1      -8.837   5.908  68.724  1.00  0.00    -0.111 C  
BRANCH  17  18
HETATM   18  O   UNL     1      -7.951   4.783  68.706  1.00  0.00    -0.079 OA 
BRANCH  18  19
HETATM   19  C   UNL     1      -8.671   3.556  68.800  1.00  0.00    -0.099 C  
BRANCH  19  20
HETATM   20  C   UNL     1      -8.348   2.684  67.594  1.00  0.00    -0.083 C  
BRANCH  20  21
HETATM   21  O   UNL     1      -9.263   2.988  66.543  1.00  0.00    -0.158 OA 
BRANCH  21  22
HETATM   22  C   UNL     1      -8.599   3.078  65.284  1.00  0.00    -0.107 C  
BRANCH  22  23
HETATM   23  C   UNL     1      -9.083   4.324  64.553  1.00  0.00    -0.150 C  
BRANCH  23  24
HETATM   24  O   UNL     1      -8.945   5.454  65.413  1.00  0.00    -0.160 OA 
BRANCH  24  25
HETATM   25  C   UNL     1      -7.612   5.961  65.388  1.00  0.00    -0.085 C  
BRANCH  25  26
HETATM   26  C   UNL     1      -7.644   7.421  64.961  1.00  0.00    -0.103 C  
BRANCH  26  27
HETATM   27  O   UNL     1      -7.534   8.246  66.118  1.00  0.00    -0.079 OA 
BRANCH  27  28
HETATM   28  C   UNL     1      -7.630   9.627  65.778  1.00  0.00    -0.103 C  
BRANCH  28  29
HETATM   29  C   UNL     1      -8.651   9.792  64.662  1.00  0.00    -0.184 C  
BRANCH  29  30
HETATM   30  O   UNL     1      -9.941   9.972  65.241  1.00  0.00    -0.315 OA 
BRANCH  30  31
HETATM   31  C   UNL     1     -10.360  11.331  65.152  1.00  0.00    -0.295 C  
BRANCH  31  32
HETATM   32  C   UNL     1     -10.960  11.574  63.776  1.00  0.00    -0.409 C  
BRANCH  32  33
HETATM   33  O   UNL     1     -12.179  12.296  63.925  1.00  0.00    -0.446 OA 
BRANCH  33  34
HETATM   34  C   UNL     1     -12.378  12.693  65.279  1.00  0.00    -0.466 C  
BRANCH  34  35
HETATM   35  C   UNL     1     -12.870  14.132  65.303  1.00  0.00    -0.344 C  
BRANCH  35  36
HETATM   36  O   UNL     1     -12.018  14.928  64.483  1.00  0.00    -0.447 OA 
BRANCH  36  37
HETATM   37  C   UNL     1     -10.729  15.077  65.072  1.00  0.00    -0.427 C  
BRANCH  37  38
HETATM   38  C   UNL     1     -10.624  16.465  65.688  1.00  0.00    -0.323 C  
BRANCH  38  39
HETATM   39  O   UNL     1     -10.686  16.352  67.107  1.00  0.00    -0.307 OA 
BRANCH  39  40
HETATM   40  C   UNL     1      -9.525  15.704  67.625  1.00  0.00    -0.211 C  
BRANCH  40  41
HETATM   41  C   UNL     1      -9.873  15.046  68.953  1.00  0.00    -0.233 C  
BRANCH  41  42
HETATM   42  O   UNL     1     -10.365  13.729  68.714  1.00  0.00    -0.237 OA 
HETATM   43  C   UNL     1      -9.351  12.887  68.183  1.00  0.00    -0.214 C  
ENDBRANCH  41  42
ENDBRANCH  40  41
ENDBRANCH  39  40
ENDBRANCH  38  39
ENDBRANCH  37  38
ENDBRANCH  36  37
ENDBRANCH  35  36
ENDBRANCH  34  35
ENDBRANCH  33  34
ENDBRANCH  32  33
ENDBRANCH  31  32
ENDBRANCH  30  31
ENDBRANCH  29  30
ENDBRANCH  28  29
ENDBRANCH  27  28
ENDBRANCH  26  27
ENDBRANCH  25  26
ENDBRANCH  24  25
ENDBRANCH  23  24
ENDBRANCH  22  23
ENDBRANCH  21  22
ENDBRANCH  20  21
ENDBRANCH  19  20
ENDBRANCH  18  19
ENDBRANCH  17  18
ENDBRANCH  16  17
ENDBRANCH  15  16
ENDBRANCH  13  15
ENDBRANCH  10  13
ENDBRANCH   5   7
ENDBRANCH   4   5
ENDBRANCH   3   4
ENDBRANCH   2   3
TORSDOF 33
ENDMDL
MODEL       63
REMARK 921   NORMALIZED FREE ENERGY PREDICTED BY IDOCK:   -3.93 KCAL/MOL
REMARK 922        TOTAL FREE ENERGY PREDICTED BY IDOCK:  -14.31 KCAL/MOL
REMARK 923 INTER-LIGAND FREE ENERGY PREDICTED BY IDOCK:  -10.46 KCAL/MOL
REMARK 924 INTRA-LIGAND FREE ENERGY PREDICTED BY IDOCK:   -3.85 KCAL/MOL
REMARK 927      BINDING AFFINITY PREDICTED BY RF-SCORE:    0.00 PKD
ROOT
HETATM    1  C   UNL     1      -8.267  16.115  68.938  1.00  0.00    -0.229 C  
HETATM    2  C   UNL     1      -8.116  14.608  68.860  1.00  0.00    -0.147 C  
ENDROOT
BRANCH   2   3
HETATM    3  C   UNL     1      -7.701  14.141  67.462  1.00  0.00    -0.201 C  
BRANCH   3   4
HETATM    4  C   UNL     1      -8.142  12.696  67.257  1.00  0.00    -0.178 C  
BRANCH   4   5
HETATM    5  N   UNL     1      -8.898  12.195  68.399  1.00  0.00    -0.272 NA 
HETATM    6  H   UNL     1      -9.674  12.727  68.792  1.00  0.00     0.000 HD 
BRANCH   5   7
HETATM    7  C   UNL     1      -8.522  10.954  68.940  1.00  0.00    -0.141 A  
HETATM    8  C   UNL     1      -7.269  10.369  68.713  1.00  0.00    -0.085 A  
HETATM    9  C   UNL     1      -6.956   9.101  69.202  1.00  0.00    -0.058 A  
HETATM   10  C   UNL     1      -7.906   8.362  69.910  1.00  0.00    -0.101 A  
HETATM   11  C   UNL     1      -9.474  10.197  69.637  1.00  0.00    -0.226 A  
HETATM   12  C   UNL     1      -9.174   8.914  70.125  1.00  0.00    -0.195 A  
BRANCH  10  13
HETATM   13  C   UNL     1      -7.509   7.006  70.369  1.00  0.00    -0.085 C  
HETATM   14  O   UNL     1      -7.820   6.552  71.461  1.00  0.00    -0.098 OA 
BRANCH  13  15
HETATM   15  O   UNL     1      -6.748   6.378  69.445  1.00  0.00    -0.048 OA 
BRANCH  15  16
HETATM   16  C   UNL     1      -7.141   5.021  69.166  1.00  0.00    -0.056 C  
BRANCH  16  17
HETATM   17  C   UNL     1      -7.433   4.822  67.679  1.00  0.00    -0.078 C  
BRANCH  17  18
HETATM   18  O   UNL     1      -8.143   5.961  67.181  1.00  0.00    -0.102 OA 
BRANCH  18  19
HETATM   19  C   UNL     1      -9.156   5.575  66.255  1.00  0.00    -0.146 C  
BRANCH  19  20
HETATM   20  C   UNL     1     -10.498   5.504  66.971  1.00  0.00    -0.274 C  
BRANCH  20  21
HETATM   21  O   UNL     1     -10.466   6.367  68.106  1.00  0.00    -0.170 OA 
BRANCH  21  22
HETATM   22  C   UNL     1     -10.780   5.662  69.305  1.00  0.00    -0.280 C  
BRANCH  22  23
HETATM   23  C   UNL     1     -11.656   6.542  70.187  1.00  0.00    -0.402 C  
BRANCH  23  24
HETATM   24  O   UNL     1     -11.491   6.152  71.548  1.00  0.00    -0.291 OA 
BRANCH  24  25
HETATM   25  C   UNL     1     -11.580   7.276  72.422  1.00  0.00    -0.268 C  
BRANCH  25  26
HETATM   26  C   UNL     1     -12.629   8.240  71.886  1.00  0.00    -0.344 C  
BRANCH  26  27
HETATM   27  O   UNL     1     -12.125   9.570  71.975  1.00  0.00    -0.355 OA 
BRANCH  27  28
HETATM   28  C   UNL     1     -13.149  10.527  71.716  1.00  0.00    -0.464 C  
BRANCH  28  29
HETATM   29  C   UNL     1     -12.539  11.726  71.006  1.00  0.00    -0.310 C  
BRANCH  29  30
HETATM   30  O   UNL     1     -12.946  12.916  71.676  1.00  0.00    -0.372 OA 
BRANCH  30  31
HETATM   31  C   UNL     1     -12.766  14.061  70.847  1.00  0.00    -0.350 C  
BRANCH  31  32
HETATM   32  C   UNL     1     -11.851  13.693  69.688  1.00  0.00    -0.335 C  
BRANCH  32  33
HETATM   33  O   UNL     1     -12.095  14.586  68.606  1.00  0.00    -0.296 OA 
BRANCH  33  34
HETATM   34  C   UNL     1     -11.916  13.933  67.352  1.00  0.00    -0.401 C  
BRANCH  34  35
HETATM   35  C   UNL     1     -11.248  14.899  66.385  1.00  0.00    -0.331 C  
BRANCH  35  36
HETATM   36  O   UNL     1     -11.616  14.549  65.053  1.00  0.00    -0.352 OA 
BRANCH  36  37
HETATM   37  C   UNL     1     -12.382  13.348  65.028  1.00  0.00    -0.436 C  
BRANCH  37  38
HETATM   38  C   UNL     1     -12.101  12.608  63.728  1.00  0.00    -0.522 C  
BRANCH  38  39
HETATM   39  O   UNL     1     -10.723  12.246  63.686  1.00  0.00    -0.403 OA 
BRANCH  39  40
HETATM   40  C   UNL     1     -10.472  11.075  64.461  1.00  0.00    -0.342 C  
BRANCH  40  41
HETATM   41  C   UNL     1      -9.486  10.186  63.716  1.00  0.00    -0.275 C  
BRANCH  41  42
HETATM   42  O   UNL     1      -9.043   9.142  64.581  1.00  0.00    -0.179 OA 
HETATM   43  C   UNL     1      -9.696   9.203  65.841  1.00  0.00    -0.266 C  
ENDBRANCH  41  42
ENDBRANCH  40  41
ENDBRANCH  39  40
ENDBRANCH  38  39
ENDBRANCH  37  38
ENDBRANCH  36  37
ENDBRANCH  35  36
ENDBRANCH  34  35
ENDBRANCH  33  34
ENDBRANCH  32  33
ENDBRANCH  31  32
ENDBRANCH  30  31
ENDBRANCH  29  30
ENDBRANCH  28  29
ENDBRANCH  27  28
ENDBRANCH  26  27
ENDBRANCH  25  26
ENDBRANCH  24  25
ENDBRANCH  23  24
ENDBRANCH  22  23
ENDBRANCH  21  22
ENDBRANCH  20  21
ENDBRANCH  19  20
ENDBRANCH  18  19
ENDBRANCH  17  18
ENDBRANCH  16  17
ENDBRANCH  15  16
ENDBRANCH  13  15
ENDBRANCH  10  13
ENDBRANCH   5   7
ENDBRANCH   4   5
ENDBRANCH   3   4
ENDBRANCH   2   3
TORSDOF 33
ENDMDL
MODEL       64
REMARK 921   NORMALIZED FREE ENERGY PREDICTED BY IDOCK:   -3.93 KCAL/MOL
REMARK 922        TOTAL FREE ENERGY PREDICTED BY IDOCK:  -14.30 KCAL/MOL
REMARK 923 INTER-LIGAND FREE ENERGY PREDICTED BY IDOCK:  -10.76 KCAL/MOL
REMARK 924 INTRA-LIGAND FREE ENERGY PREDICTED BY IDOCK:   -3.54 KCAL/MOL
REMARK 927      BINDING AFFINITY PREDICTED BY RF-SCORE:    0.00 PKD
ROOT
HETATM    1  C   UNL     1     -10.008  10.347  64.381  1.00  0.00    -0.388 C  
HETATM    2  C   UNL     1     -10.086  11.279  63.187  1.00  0.00    -0.385 C  
ENDROOT
BRANCH   2   3
HETATM    3  C   UNL     1     -11.194  12.324  63.341  1.00  0.00    -0.497 C  
BRANCH   3   4
HETATM    4  C   UNL     1     -11.931  12.094  64.657  1.00  0.00    -0.323 C  
BRANCH   4   5
HETATM    5  N   UNL     1     -11.959  13.300  65.476  1.00  0.00    -0.381 NA 
HETATM    6  H   UNL     1     -12.827  13.812  65.631  1.00  0.00     0.000 HD 
BRANCH   5   7
HETATM    7  C   UNL     1     -10.750  13.733  66.046  1.00  0.00    -0.284 A  
HETATM    8  C   UNL     1     -10.117  14.928  65.681  1.00  0.00    -0.387 A  
HETATM    9  C   UNL     1      -8.879  15.291  66.212  1.00  0.00    -0.262 A  
HETATM   10  C   UNL     1      -8.217  14.445  67.105  1.00  0.00    -0.202 A  
HETATM   11  C   UNL     1     -10.069  12.882  66.930  1.00  0.00    -0.241 A  
HETATM   12  C   UNL     1      -8.817  13.232  67.462  1.00  0.00    -0.206 A  
BRANCH  10  13
HETATM   13  C   UNL     1      -6.888  14.885  67.600  1.00  0.00    -0.181 C  
HETATM   14  O   UNL     1      -5.869  14.225  67.457  1.00  0.00    -0.343 OA 
BRANCH  13  15
HETATM   15  O   UNL     1      -6.971  16.073  68.240  1.00  0.00    -0.115 OA 
BRANCH  15  16
HETATM   16  C   UNL     1      -5.777  16.459  68.946  1.00  0.00    -0.127 C  
BRANCH  16  17
HETATM   17  C   UNL     1      -5.789  17.949  69.285  1.00  0.00    -0.221 C  
BRANCH  17  18
HETATM   18  O   UNL     1      -7.133  18.436  69.223  1.00  0.00    -0.243 OA 
BRANCH  18  19
HETATM   19  C   UNL     1      -7.188  19.732  68.630  1.00  0.00    -0.323 C  
BRANCH  19  20
HETATM   20  C   UNL     1      -7.365  19.594  67.124  1.00  0.00    -0.217 C  
BRANCH  20  21
HETATM   21  O   UNL     1      -8.477  18.739  66.863  1.00  0.00    -0.263 OA 
BRANCH  21  22
HETATM   22  C   UNL     1      -9.669  19.489  66.641  1.00  0.00    -0.375 C  
BRANCH  22  23
HETATM   23  C   UNL     1     -10.820  18.832  67.393  1.00  0.00    -0.348 C  
BRANCH  23  24
HETATM   24  O   UNL     1     -10.293  17.867  68.301  1.00  0.00    -0.362 OA 
BRANCH  24  25
HETATM   25  C   UNL     1     -11.164  16.744  68.423  1.00  0.00    -0.176 C  
BRANCH  25  26
HETATM   26  C   UNL     1     -10.823  15.987  69.698  1.00  0.00    -0.329 C  
BRANCH  26  27
HETATM   27  O   UNL     1     -11.979  15.933  70.529  1.00  0.00    -0.362 OA 
BRANCH  27  28
HETATM   28  C   UNL     1     -11.852  14.921  71.525  1.00  0.00    -0.361 C  
BRANCH  28  29
HETATM   29  C   UNL     1     -12.907  13.852  71.282  1.00  0.00    -0.360 C  
BRANCH  29  30
HETATM   30  O   UNL     1     -12.289  12.726  70.665  1.00  0.00    -0.360 OA 
BRANCH  30  31
HETATM   31  C   UNL     1     -12.798  11.505  71.195  1.00  0.00    -0.315 C  
BRANCH  31  32
HETATM   32  C   UNL     1     -11.900  10.360  70.750  1.00  0.00    -0.368 C  
BRANCH  32  33
HETATM   33  O   UNL     1     -11.190  10.757  69.581  1.00  0.00    -0.248 OA 
BRANCH  33  34
HETATM   34  C   UNL     1      -9.873  10.215  69.572  1.00  0.00    -0.232 C  
BRANCH  34  35
HETATM   35  C   UNL     1      -9.760   9.212  68.434  1.00  0.00    -0.152 C  
BRANCH  35  36
HETATM   36  O   UNL     1      -8.722   9.628  67.550  1.00  0.00    -0.125 OA 
BRANCH  36  37
HETATM   37  C   UNL     1      -7.534   8.867  67.756  1.00  0.00    -0.093 C  
BRANCH  37  38
HETATM   38  C   UNL     1      -6.699   8.900  66.483  1.00  0.00    -0.075 C  
BRANCH  38  39
HETATM   39  O   UNL     1      -6.922  10.136  65.810  1.00  0.00    -0.108 OA 
BRANCH  39  40
HETATM   40  C   UNL     1      -5.960  10.342  64.777  1.00  0.00    -0.118 C  
BRANCH  40  41
HETATM   41  C   UNL     1      -6.619  10.097  63.427  1.00  0.00    -0.132 C  
BRANCH  41  42
HETATM   42  O   UNL     1      -5.780   9.258  62.636  1.00  0.00    -0.085 OA 
HETATM   43  C   UNL     1      -6.413   8.020  62.344  1.00  0.00    -0.086 C  
ENDBRANCH  41  42
ENDBRANCH  40  41
ENDBRANCH  39  40
ENDBRANCH  38  39
ENDBRANCH  37  38
ENDBRANCH  36  37
ENDBRANCH  35  36
ENDBRANCH  34  35
ENDBRANCH  33  34
ENDBRANCH  32  33
ENDBRANCH  31  32
ENDBRANCH  30  31
ENDBRANCH  29  30
ENDBRANCH  28  29
ENDBRANCH  27  28
ENDBRANCH  26  27
ENDBRANCH  25  26
ENDBRANCH  24  25
ENDBRANCH  23  24
ENDBRANCH  22  23
ENDBRANCH  21  22
ENDBRANCH  20  21
ENDBRANCH  19  20
ENDBRANCH  18  19
ENDBRANCH  17  18
ENDBRANCH  16  17
ENDBRANCH  15  16
ENDBRANCH  13  15
ENDBRANCH  10  13
ENDBRANCH   5   7
ENDBRANCH   4   5
ENDBRANCH   3   4
ENDBRANCH   2   3
TORSDOF 33
ENDMDL
MODEL       65
REMARK 921   NORMALIZED FREE ENERGY PREDICTED BY IDOCK:   -3.90 KCAL/MOL
REMARK 922        TOTAL FREE ENERGY PREDICTED BY IDOCK:  -14.24 KCAL/MOL
REMARK 923 INTER-LIGAND FREE ENERGY PREDICTED BY IDOCK:  -10.84 KCAL/MOL
REMARK 924 INTRA-LIGAND FREE ENERGY PREDICTED BY IDOCK:   -3.40 KCAL/MOL
REMARK 927      BINDING AFFINITY PREDICTED BY RF-SCORE:    0.00 PKD
ROOT
HETATM    1  C   UNL     1      -5.654   6.624  64.638  1.00  0.00    -0.030 C  
HETATM    2  C   UNL     1      -6.985   6.007  64.252  1.00  0.00    -0.051 C  
ENDROOT
BRANCH   2   3
HETATM    3  C   UNL     1      -7.863   6.977  63.458  1.00  0.00    -0.109 C  
BRANCH   3   4
HETATM    4  C   UNL     1      -7.757   8.372  64.064  1.00  0.00    -0.139 C  
BRANCH   4   5
HETATM    5  N   UNL     1      -8.370   9.380  63.207  1.00  0.00    -0.174 NA 
HETATM    6  H   UNL     1      -8.086   9.488  62.233  1.00  0.00     0.000 HD 
BRANCH   5   7
HETATM    7  C   UNL     1      -9.366  10.198  63.767  1.00  0.00    -0.288 A  
HETATM    8  C   UNL     1     -10.065  11.164  63.031  1.00  0.00    -0.311 A  
HETATM    9  C   UNL     1     -10.993  12.011  63.636  1.00  0.00    -0.517 A  
HETATM   10  C   UNL     1     -11.227  11.940  65.011  1.00  0.00    -0.350 A  
HETATM   11  C   UNL     1      -9.594  10.146  65.150  1.00  0.00    -0.354 A  
HETATM   12  C   UNL     1     -10.518  11.002  65.771  1.00  0.00    -0.290 A  
BRANCH  10  13
HETATM   13  C   UNL     1     -12.205  12.898  65.585  1.00  0.00    -0.463 C  
HETATM   14  O   UNL     1     -13.060  13.462  64.918  1.00  0.00    -0.723 OA 
BRANCH  13  15
HETATM   15  O   UNL     1     -11.998  13.075  66.910  1.00  0.00    -0.382 OA 
BRANCH  15  16
HETATM   16  C   UNL     1     -11.907  14.451  67.324  1.00  0.00    -0.405 C  
BRANCH  16  17
HETATM   17  C   UNL     1     -10.501  14.790  67.820  1.00  0.00    -0.254 C  
BRANCH  17  18
HETATM   18  O   UNL     1     -10.595  15.704  68.917  1.00  0.00    -0.212 OA 
BRANCH  18  19
HETATM   19  C   UNL     1     -11.843  15.575  69.593  1.00  0.00    -0.366 C  
BRANCH  19  20
HETATM   20  C   UNL     1     -11.650  15.856  71.077  1.00  0.00    -0.424 C  
BRANCH  20  21
HETATM   21  O   UNL     1     -12.308  14.839  71.831  1.00  0.00    -0.323 OA 
BRANCH  21  22
HETATM   22  C   UNL     1     -12.811  13.807  70.987  1.00  0.00    -0.305 C  
BRANCH  22  23
HETATM   23  C   UNL     1     -13.052  12.554  71.819  1.00  0.00    -0.347 C  
BRANCH  23  24
HETATM   24  O   UNL     1     -12.330  11.466  71.246  1.00  0.00    -0.320 OA 
BRANCH  24  25
HETATM   25  C   UNL     1     -13.150  10.306  71.129  1.00  0.00    -0.390 C  
BRANCH  25  26
HETATM   26  C   UNL     1     -12.274   9.066  71.226  1.00  0.00    -0.312 C  
BRANCH  26  27
HETATM   27  O   UNL     1     -12.279   8.598  72.573  1.00  0.00    -0.381 OA 
BRANCH  27  28
HETATM   28  C   UNL     1     -11.125   7.809  72.849  1.00  0.00    -0.398 C  
BRANCH  28  29
HETATM   29  C   UNL     1     -10.740   7.038  71.595  1.00  0.00    -0.220 C  
BRANCH  29  30
HETATM   30  O   UNL     1      -9.325   6.876  71.569  1.00  0.00    -0.155 OA 
BRANCH  30  31
HETATM   31  C   UNL     1      -8.665   8.029  72.083  1.00  0.00    -0.157 C  
BRANCH  31  32
HETATM   32  C   UNL     1      -7.631   8.499  71.072  1.00  0.00    -0.090 C  
BRANCH  32  33
HETATM   33  O   UNL     1      -7.926   9.842  70.699  1.00  0.00    -0.272 OA 
BRANCH  33  34
HETATM   34  C   UNL     1      -8.962   9.887  69.723  1.00  0.00    -0.221 C  
BRANCH  34  35
HETATM   35  C   UNL     1      -8.543   9.055  68.519  1.00  0.00    -0.129 C  
BRANCH  35  36
HETATM   36  O   UNL     1      -9.549   8.080  68.257  1.00  0.00    -0.144 OA 
BRANCH  36  37
HETATM   37  C   UNL     1      -9.069   7.068  67.376  1.00  0.00    -0.123 C  
BRANCH  37  38
HETATM   38  C   UNL     1      -7.714   6.582  67.871  1.00  0.00    -0.104 C  
BRANCH  38  39
HETATM   39  O   UNL     1      -7.911   5.545  68.827  1.00  0.00    -0.092 OA 
BRANCH  39  40
HETATM   40  C   UNL     1      -8.803   4.547  68.331  1.00  0.00    -0.103 C  
BRANCH  40  41
HETATM   41  C   UNL     1      -9.742   4.117  69.450  1.00  0.00    -0.163 C  
BRANCH  41  42
HETATM   42  O   UNL     1      -9.007   3.385  70.428  1.00  0.00    -0.079 OA 
HETATM   43  C   UNL     1      -9.757   3.222  71.624  1.00  0.00    -0.164 C  
ENDBRANCH  41  42
ENDBRANCH  40  41
ENDBRANCH  39  40
ENDBRANCH  38  39
ENDBRANCH  37  38
ENDBRANCH  36  37
ENDBRANCH  35  36
ENDBRANCH  34  35
ENDBRANCH  33  34
ENDBRANCH  32  33
ENDBRANCH  31  32
ENDBRANCH  30  31
ENDBRANCH  29  30
ENDBRANCH  28  29
ENDBRANCH  27  28
ENDBRANCH  26  27
ENDBRANCH  25  26
ENDBRANCH  24  25
ENDBRANCH  23  24
ENDBRANCH  22  23
ENDBRANCH  21  22
ENDBRANCH  20  21
ENDBRANCH  19  20
ENDBRANCH  18  19
ENDBRANCH  17  18
ENDBRANCH  16  17
ENDBRANCH  15  16
ENDBRANCH  13  15
ENDBRANCH  10  13
ENDBRANCH   5   7
ENDBRANCH   4   5
ENDBRANCH   3   4
ENDBRANCH   2   3
TORSDOF 33
ENDMDL
MODEL       66
REMARK 921   NORMALIZED FREE ENERGY PREDICTED BY IDOCK:   -3.90 KCAL/MOL
REMARK 922        TOTAL FREE ENERGY PREDICTED BY IDOCK:  -14.21 KCAL/MOL
REMARK 923 INTER-LIGAND FREE ENERGY PREDICTED BY IDOCK:  -11.02 KCAL/MOL
REMARK 924 INTRA-LIGAND FREE ENERGY PREDICTED BY IDOCK:   -3.19 KCAL/MOL
REMARK 927      BINDING AFFINITY PREDICTED BY RF-SCORE:    0.00 PKD
ROOT
HETATM    1  C   UNL     1      -8.357   1.518  66.252  1.00  0.00    -0.090 C  
HETATM    2  C   UNL     1      -8.404   2.935  66.790  1.00  0.00    -0.094 C  
ENDROOT
BRANCH   2   3
HETATM    3  C   UNL     1      -9.281   3.049  68.040  1.00  0.00    -0.248 C  
BRANCH   3   4
HETATM    4  C   UNL     1      -8.457   2.699  69.274  1.00  0.00    -0.062 C  
BRANCH   4   5
HETATM    5  N   UNL     1      -7.267   3.536  69.383  1.00  0.00    -0.048 NA 
HETATM    6  H   UNL     1      -6.333   3.138  69.288  1.00  0.00     0.000 HD 
BRANCH   5   7
HETATM    7  C   UNL     1      -7.451   4.907  69.623  1.00  0.00    -0.056 A  
HETATM    8  C   UNL     1      -7.018   5.904  68.738  1.00  0.00    -0.072 A  
HETATM    9  C   UNL     1      -7.147   7.258  69.043  1.00  0.00    -0.080 A  
HETATM   10  C   UNL     1      -7.688   7.659  70.266  1.00  0.00    -0.091 A  
HETATM   11  C   UNL     1      -7.975   5.320  70.857  1.00  0.00    -0.099 A  
HETATM   12  C   UNL     1      -8.101   6.682  71.179  1.00  0.00    -0.112 A  
BRANCH  10  13
HETATM   13  C   UNL     1      -7.762   9.119  70.531  1.00  0.00    -0.134 C  
HETATM   14  O   UNL     1      -7.012   9.697  71.306  1.00  0.00    -0.322 OA 
BRANCH  13  15
HETATM   15  O   UNL     1      -8.769   9.694  69.836  1.00  0.00    -0.184 OA 
BRANCH  15  16
HETATM   16  C   UNL     1      -8.347  10.676  68.871  1.00  0.00    -0.150 C  
BRANCH  16  17
HETATM   17  C   UNL     1      -8.762  10.277  67.455  1.00  0.00    -0.128 C  
BRANCH  17  18
HETATM   18  O   UNL     1      -9.746   9.240  67.526  1.00  0.00    -0.147 OA 
BRANCH  18  19
HETATM   19  C   UNL     1      -9.725   8.426  66.356  1.00  0.00    -0.242 C  
BRANCH  19  20
HETATM   20  C   UNL     1      -9.897   6.965  66.750  1.00  0.00    -0.181 C  
BRANCH  20  21
HETATM   21  O   UNL     1     -11.158   6.804  67.397  1.00  0.00    -0.328 OA 
BRANCH  21  22
HETATM   22  C   UNL     1     -11.011   6.202  68.681  1.00  0.00    -0.336 C  
BRANCH  22  23
HETATM   23  C   UNL     1     -11.410   7.208  69.753  1.00  0.00    -0.123 C  
BRANCH  23  24
HETATM   24  O   UNL     1     -12.056   6.521  70.822  1.00  0.00    -0.362 OA 
BRANCH  24  25
HETATM   25  C   UNL     1     -12.620   7.437  71.758  1.00  0.00    -0.335 C  
BRANCH  25  26
HETATM   26  C   UNL     1     -11.842   8.744  71.705  1.00  0.00    -0.330 C  
BRANCH  26  27
HETATM   27  O   UNL     1     -12.699   9.811  72.103  1.00  0.00    -0.376 OA 
BRANCH  27  28
HETATM   28  C   UNL     1     -13.106  10.591  70.982  1.00  0.00    -0.330 C  
BRANCH  28  29
HETATM   29  C   UNL     1     -12.729  12.044  71.227  1.00  0.00    -0.279 C  
BRANCH  29  30
HETATM   30  O   UNL     1     -13.457  12.526  72.354  1.00  0.00    -0.529 OA 
BRANCH  30  31
HETATM   31  C   UNL     1     -14.128  13.745  72.050  1.00  0.00    -0.433 C  
BRANCH  31  32
HETATM   32  C   UNL     1     -13.359  14.901  72.672  1.00  0.00    -0.456 C  
BRANCH  32  33
HETATM   33  O   UNL     1     -13.044  15.846  71.654  1.00  0.00    -0.465 OA 
BRANCH  33  34
HETATM   34  C   UNL     1     -11.637  16.058  71.569  1.00  0.00    -0.456 C  
BRANCH  34  35
HETATM   35  C   UNL     1     -11.143  15.551  70.222  1.00  0.00    -0.328 C  
BRANCH  35  36
HETATM   36  O   UNL     1     -12.267  15.209  69.414  1.00  0.00    -0.275 OA 
BRANCH  36  37
HETATM   37  C   UNL     1     -11.893  14.329  68.358  1.00  0.00    -0.338 C  
BRANCH  37  38
HETATM   38  C   UNL     1     -11.008  15.082  67.375  1.00  0.00    -0.315 C  
BRANCH  38  39
HETATM   39  O   UNL     1     -10.386  14.148  66.497  1.00  0.00    -0.275 OA 
BRANCH  39  40
HETATM   40  C   UNL     1     -11.343  13.252  65.934  1.00  0.00    -0.311 C  
BRANCH  40  41
HETATM   41  C   UNL     1     -12.144  13.985  64.866  1.00  0.00    -0.420 C  
BRANCH  41  42
HETATM   42  O   UNL     1     -12.599  13.049  63.890  1.00  0.00    -0.652 OA 
HETATM   43  C   UNL     1     -11.530  12.250  63.403  1.00  0.00    -0.430 C  
ENDBRANCH  41  42
ENDBRANCH  40  41
ENDBRANCH  39  40
ENDBRANCH  38  39
ENDBRANCH  37  38
ENDBRANCH  36  37
ENDBRANCH  35  36
ENDBRANCH  34  35
ENDBRANCH  33  34
ENDBRANCH  32  33
ENDBRANCH  31  32
ENDBRANCH  30  31
ENDBRANCH  29  30
ENDBRANCH  28  29
ENDBRANCH  27  28
ENDBRANCH  26  27
ENDBRANCH  25  26
ENDBRANCH  24  25
ENDBRANCH  23  24
ENDBRANCH  22  23
ENDBRANCH  21  22
ENDBRANCH  20  21
ENDBRANCH  19  20
ENDBRANCH  18  19
ENDBRANCH  17  18
ENDBRANCH  16  17
ENDBRANCH  15  16
ENDBRANCH  13  15
ENDBRANCH  10  13
ENDBRANCH   5   7
ENDBRANCH   4   5
ENDBRANCH   3   4
ENDBRANCH   2   3
TORSDOF 33
ENDMDL
MODEL       67
REMARK 921   NORMALIZED FREE ENERGY PREDICTED BY IDOCK:   -3.89 KCAL/MOL
REMARK 922        TOTAL FREE ENERGY PREDICTED BY IDOCK:  -14.20 KCAL/MOL
REMARK 923 INTER-LIGAND FREE ENERGY PREDICTED BY IDOCK:  -11.03 KCAL/MOL
REMARK 924 INTRA-LIGAND FREE ENERGY PREDICTED BY IDOCK:   -3.17 KCAL/MOL
REMARK 927      BINDING AFFINITY PREDICTED BY RF-SCORE:    0.00 PKD
ROOT
HETATM    1  C   UNL     1     -13.263  15.696  73.211  1.00  0.00    -0.666 C  
HETATM    2  C   UNL     1     -13.284  14.291  72.640  1.00  0.00    -0.601 C  
ENDROOT
BRANCH   2   3
HETATM    3  C   UNL     1     -13.137  14.284  71.116  1.00  0.00    -0.412 C  
BRANCH   3   4
HETATM    4  C   UNL     1     -12.639  15.647  70.647  1.00  0.00    -0.414 C  
BRANCH   4   5
HETATM    5  N   UNL     1     -12.380  15.661  69.212  1.00  0.00    -0.579 NA 
HETATM    6  H   UNL     1     -13.130  15.835  68.543  1.00  0.00     0.000 HD 
BRANCH   5   7
HETATM    7  C   UNL     1     -11.064  15.430  68.782  1.00  0.00    -0.283 A  
HETATM    8  C   UNL     1      -9.950  15.558  69.623  1.00  0.00    -0.287 A  
HETATM    9  C   UNL     1      -8.651  15.395  69.144  1.00  0.00    -0.242 A  
HETATM   10  C   UNL     1      -8.423  15.130  67.792  1.00  0.00    -0.156 A  
HETATM   11  C   UNL     1     -10.823  15.181  67.422  1.00  0.00    -0.302 A  
HETATM   12  C   UNL     1      -9.518  15.025  66.927  1.00  0.00    -0.252 A  
BRANCH  10  13
HETATM   13  C   UNL     1      -7.010  15.003  67.353  1.00  0.00    -0.152 C  
HETATM   14  O   UNL     1      -6.326  15.959  67.015  1.00  0.00    -0.309 OA 
BRANCH  13  15
HETATM   15  O   UNL     1      -6.610  13.711  67.350  1.00  0.00    -0.243 OA 
BRANCH  15  16
HETATM   16  C   UNL     1      -6.087  13.242  68.606  1.00  0.00    -0.085 C  
BRANCH  16  17
HETATM   17  C   UNL     1      -5.990  11.716  68.633  1.00  0.00    -0.050 C  
BRANCH  17  18
HETATM   18  O   UNL     1      -6.748  11.215  69.738  1.00  0.00    -0.131 OA 
BRANCH  18  19
HETATM   19  C   UNL     1      -6.926   9.804  69.647  1.00  0.00    -0.078 C  
BRANCH  19  20
HETATM   20  C   UNL     1      -6.728   9.176  71.020  1.00  0.00    -0.093 C  
BRANCH  20  21
HETATM   21  O   UNL     1      -7.979   9.160  71.708  1.00  0.00    -0.340 OA 
BRANCH  21  22
HETATM   22  C   UNL     1      -7.980   8.202  72.763  1.00  0.00    -0.155 C  
BRANCH  22  23
HETATM   23  C   UNL     1      -9.419   7.851  73.118  1.00  0.00    -0.278 C  
BRANCH  23  24
HETATM   24  O   UNL     1     -10.285   8.348  72.099  1.00  0.00    -0.263 OA 
BRANCH  24  25
HETATM   25  C   UNL     1     -11.653   8.238  72.486  1.00  0.00    -0.385 C  
BRANCH  25  26
HETATM   26  C   UNL     1     -12.498   9.129  71.586  1.00  0.00    -0.359 C  
BRANCH  26  27
HETATM   27  O   UNL     1     -11.664  10.132  71.013  1.00  0.00    -0.337 OA 
BRANCH  27  28
HETATM   28  C   UNL     1     -12.359  10.869  70.010  1.00  0.00    -0.313 C  
BRANCH  28  29
HETATM   29  C   UNL     1     -11.356  11.378  68.985  1.00  0.00    -0.280 C  
BRANCH  29  30
HETATM   30  O   UNL     1     -12.054  11.739  67.797  1.00  0.00    -0.595 OA 
BRANCH  30  31
HETATM   31  C   UNL     1     -11.195  11.694  66.661  1.00  0.00    -0.299 C  
BRANCH  31  32
HETATM   32  C   UNL     1      -9.851  11.117  67.081  1.00  0.00    -0.187 C  
BRANCH  32  33
HETATM   33  O   UNL     1      -9.519  10.039  66.211  1.00  0.00    -0.172 OA 
BRANCH  33  34
HETATM   34  C   UNL     1     -10.274   8.873  66.529  1.00  0.00    -0.249 C  
BRANCH  34  35
HETATM   35  C   UNL     1      -9.338   7.822  67.107  1.00  0.00    -0.150 C  
BRANCH  35  36
HETATM   36  O   UNL     1      -9.534   7.752  68.517  1.00  0.00    -0.147 OA 
BRANCH  36  37
HETATM   37  C   UNL     1      -9.364   6.421  68.997  1.00  0.00    -0.127 C  
BRANCH  37  38
HETATM   38  C   UNL     1     -10.685   5.929  69.570  1.00  0.00    -0.343 C  
BRANCH  38  39
HETATM   39  O   UNL     1     -10.437   5.253  70.800  1.00  0.00    -0.253 OA 
BRANCH  39  40
HETATM   40  C   UNL     1      -9.193   4.554  70.764  1.00  0.00    -0.139 C  
BRANCH  40  41
HETATM   41  C   UNL     1      -8.605   4.512  72.167  1.00  0.00    -0.114 C  
BRANCH  41  42
HETATM   42  O   UNL     1      -9.572   3.980  73.070  1.00  0.00    -0.122 OA 
HETATM   43  C   UNL     1      -9.071   3.939  74.399  1.00  0.00    -0.092 C  
ENDBRANCH  41  42
ENDBRANCH  40  41
ENDBRANCH  39  40
ENDBRANCH  38  39
ENDBRANCH  37  38
ENDBRANCH  36  37
ENDBRANCH  35  36
ENDBRANCH  34  35
ENDBRANCH  33  34
ENDBRANCH  32  33
ENDBRANCH  31  32
ENDBRANCH  30  31
ENDBRANCH  29  30
ENDBRANCH  28  29
ENDBRANCH  27  28
ENDBRANCH  26  27
ENDBRANCH  25  26
ENDBRANCH  24  25
ENDBRANCH  23  24
ENDBRANCH  22  23
ENDBRANCH  21  22
ENDBRANCH  20  21
ENDBRANCH  19  20
ENDBRANCH  18  19
ENDBRANCH  17  18
ENDBRANCH  16  17
ENDBRANCH  15  16
ENDBRANCH  13  15
ENDBRANCH  10  13
ENDBRANCH   5   7
ENDBRANCH   4   5
ENDBRANCH   3   4
ENDBRANCH   2   3
TORSDOF 33
ENDMDL
MODEL       68
REMARK 921   NORMALIZED FREE ENERGY PREDICTED BY IDOCK:   -3.89 KCAL/MOL
REMARK 922        TOTAL FREE ENERGY PREDICTED BY IDOCK:  -14.19 KCAL/MOL
REMARK 923 INTER-LIGAND FREE ENERGY PREDICTED BY IDOCK:  -11.18 KCAL/MOL
REMARK 924 INTRA-LIGAND FREE ENERGY PREDICTED BY IDOCK:   -3.01 KCAL/MOL
REMARK 927      BINDING AFFINITY PREDICTED BY RF-SCORE:    0.00 PKD
ROOT
HETATM    1  C   UNL     1      -6.026  14.235  70.604  1.00  0.00    -0.196 C  
HETATM    2  C   UNL     1      -5.902  12.832  70.040  1.00  0.00    -0.149 C  
ENDROOT
BRANCH   2   3
HETATM    3  C   UNL     1      -7.035  12.499  69.067  1.00  0.00    -0.066 C  
BRANCH   3   4
HETATM    4  C   UNL     1      -7.299  10.997  69.088  1.00  0.00    -0.121 C  
BRANCH   4   5
HETATM    5  N   UNL     1      -7.267  10.463  70.445  1.00  0.00    -0.445 NA 
HETATM    6  H   UNL     1      -6.726  10.920  71.179  1.00  0.00     0.000 HD 
BRANCH   5   7
HETATM    7  C   UNL     1      -8.006   9.298  70.708  1.00  0.00    -0.154 A  
HETATM    8  C   UNL     1      -7.423   8.028  70.811  1.00  0.00    -0.072 A  
HETATM    9  C   UNL     1      -8.195   6.882  70.996  1.00  0.00    -0.118 A  
HETATM   10  C   UNL     1      -9.588   6.969  71.051  1.00  0.00    -0.170 A  
HETATM   11  C   UNL     1      -9.406   9.372  70.746  1.00  0.00    -0.292 A  
HETATM   12  C   UNL     1     -10.195   8.223  70.922  1.00  0.00    -0.224 A  
BRANCH  10  13
HETATM   13  C   UNL     1     -10.342   5.700  71.217  1.00  0.00    -0.228 C  
HETATM   14  O   UNL     1     -10.886   5.377  72.264  1.00  0.00    -0.224 OA 
BRANCH  13  15
HETATM   15  O   UNL     1     -10.314   4.961  70.085  1.00  0.00    -0.265 OA 
BRANCH  15  16
HETATM   16  C   UNL     1     -10.893   5.604  68.935  1.00  0.00    -0.159 C  
BRANCH  16  17
HETATM   17  C   UNL     1     -10.128   5.253  67.659  1.00  0.00    -0.171 C  
BRANCH  17  18
HETATM   18  O   UNL     1      -8.990   6.112  67.539  1.00  0.00    -0.114 OA 
BRANCH  18  19
HETATM   19  C   UNL     1      -8.812   6.551  66.195  1.00  0.00    -0.150 C  
BRANCH  19  20
HETATM   20  C   UNL     1      -8.974   8.064  66.128  1.00  0.00    -0.175 C  
BRANCH  20  21
HETATM   21  O   UNL     1      -9.476   8.533  67.378  1.00  0.00    -0.143 OA 
BRANCH  21  22
HETATM   22  C   UNL     1     -10.801   9.045  67.249  1.00  0.00    -0.030 C  
BRANCH  22  23
HETATM   23  C   UNL     1     -10.769  10.559  67.413  1.00  0.00    -0.281 C  
BRANCH  23  24
HETATM   24  O   UNL     1     -12.011  10.995  67.960  1.00  0.00    -0.623 OA 
BRANCH  24  25
HETATM   25  C   UNL     1     -11.883  12.276  68.575  1.00  0.00    -0.307 C  
BRANCH  25  26
HETATM   26  C   UNL     1     -11.821  12.099  70.085  1.00  0.00    -0.287 C  
BRANCH  26  27
HETATM   27  O   UNL     1     -13.146  11.956  70.590  1.00  0.00     0.064 OA 
BRANCH  27  28
HETATM   28  C   UNL     1     -13.153  11.918  72.015  1.00  0.00    -0.336 C  
BRANCH  28  29
HETATM   29  C   UNL     1     -13.353  13.329  72.547  1.00  0.00    -0.466 C  
BRANCH  29  30
HETATM   30  O   UNL     1     -14.339  13.985  71.755  1.00  0.00    -0.415 OA 
BRANCH  30  31
HETATM   31  C   UNL     1     -13.925  15.304  71.407  1.00  0.00    -0.508 C  
BRANCH  31  32
HETATM   32  C   UNL     1     -12.690  15.665  72.218  1.00  0.00    -0.430 C  
BRANCH  32  33
HETATM   33  O   UNL     1     -11.783  16.381  71.385  1.00  0.00    -0.425 OA 
BRANCH  33  34
HETATM   34  C   UNL     1     -11.040  15.493  70.554  1.00  0.00    -0.345 C  
BRANCH  34  35
HETATM   35  C   UNL     1     -10.585  16.246  69.312  1.00  0.00    -0.293 C  
BRANCH  35  36
HETATM   36  O   UNL     1     -10.214  15.303  68.309  1.00  0.00    -0.222 OA 
BRANCH  36  37
HETATM   37  C   UNL     1      -9.589  15.947  67.202  1.00  0.00    -0.218 C  
BRANCH  37  38
HETATM   38  C   UNL     1     -10.599  16.080  66.071  1.00  0.00    -0.316 C  
BRANCH  38  39
HETATM   39  O   UNL     1     -10.257  15.169  65.030  1.00  0.00    -0.364 OA 
BRANCH  39  40
HETATM   40  C   UNL     1     -11.041  13.979  65.105  1.00  0.00    -0.341 C  
BRANCH  40  41
HETATM   41  C   UNL     1     -12.174  14.065  64.091  1.00  0.00    -0.396 C  
BRANCH  41  42
HETATM   42  O   UNL     1     -12.388  12.779  63.513  1.00  0.00    -0.607 OA 
HETATM   43  C   UNL     1     -11.181  12.032  63.451  1.00  0.00    -0.398 C  
ENDBRANCH  41  42
ENDBRANCH  40  41
ENDBRANCH  39  40
ENDBRANCH  38  39
ENDBRANCH  37  38
ENDBRANCH  36  37
ENDBRANCH  35  36
ENDBRANCH  34  35
ENDBRANCH  33  34
ENDBRANCH  32  33
ENDBRANCH  31  32
ENDBRANCH  30  31
ENDBRANCH  29  30
ENDBRANCH  28  29
ENDBRANCH  27  28
ENDBRANCH  26  27
ENDBRANCH  25  26
ENDBRANCH  24  25
ENDBRANCH  23  24
ENDBRANCH  22  23
ENDBRANCH  21  22
ENDBRANCH  20  21
ENDBRANCH  19  20
ENDBRANCH  18  19
ENDBRANCH  17  18
ENDBRANCH  16  17
ENDBRANCH  15  16
ENDBRANCH  13  15
ENDBRANCH  10  13
ENDBRANCH   5   7
ENDBRANCH   4   5
ENDBRANCH   3   4
ENDBRANCH   2   3
TORSDOF 33
ENDMDL
MODEL       69
REMARK 921   NORMALIZED FREE ENERGY PREDICTED BY IDOCK:   -3.89 KCAL/MOL
REMARK 922        TOTAL FREE ENERGY PREDICTED BY IDOCK:  -14.19 KCAL/MOL
REMARK 923 INTER-LIGAND FREE ENERGY PREDICTED BY IDOCK:  -11.72 KCAL/MOL
REMARK 924 INTRA-LIGAND FREE ENERGY PREDICTED BY IDOCK:   -2.47 KCAL/MOL
REMARK 927      BINDING AFFINITY PREDICTED BY RF-SCORE:    0.00 PKD
ROOT
HETATM    1  C   UNL     1     -14.411   6.626  71.990  1.00  0.00    -0.160 C  
HETATM    2  C   UNL     1     -14.056   7.963  71.366  1.00  0.00    -0.429 C  
ENDROOT
BRANCH   2   3
HETATM    3  C   UNL     1     -13.962   9.080  72.409  1.00  0.00    -0.517 C  
BRANCH   3   4
HETATM    4  C   UNL     1     -12.859  10.055  72.012  1.00  0.00    -0.389 C  
BRANCH   4   5
HETATM    5  N   UNL     1     -12.515   9.935  70.600  1.00  0.00    -0.466 NA 
HETATM    6  H   UNL     1     -12.621   9.049  70.105  1.00  0.00     0.000 HD 
BRANCH   5   7
HETATM    7  C   UNL     1     -12.035  11.080  69.944  1.00  0.00    -0.351 A  
HETATM    8  C   UNL     1     -12.106  12.366  70.497  1.00  0.00    -0.363 A  
HETATM    9  C   UNL     1     -11.689  13.490  69.786  1.00  0.00    -0.363 A  
HETATM   10  C   UNL     1     -11.216  13.366  68.478  1.00  0.00    -0.316 A  
HETATM   11  C   UNL     1     -11.575  10.967  68.623  1.00  0.00    -0.385 A  
HETATM   12  C   UNL     1     -11.163  12.095  67.894  1.00  0.00    -0.329 A  
BRANCH  10  13
HETATM   13  C   UNL     1     -10.823  14.614  67.775  1.00  0.00    -0.267 C  
HETATM   14  O   UNL     1     -10.583  15.662  68.357  1.00  0.00    -0.238 OA 
BRANCH  13  15
HETATM   15  O   UNL     1     -10.800  14.436  66.435  1.00  0.00    -0.304 OA 
BRANCH  15  16
HETATM   16  C   UNL     1     -10.145  15.487  65.701  1.00  0.00    -0.376 C  
BRANCH  16  17
HETATM   17  C   UNL     1     -11.102  16.158  64.716  1.00  0.00    -0.333 C  
BRANCH  17  18
HETATM   18  O   UNL     1     -11.074  17.574  64.921  1.00  0.00    -0.860 OA 
BRANCH  18  19
HETATM   19  C   UNL     1     -10.155  17.930  65.951  1.00  0.00    -0.170 C  
BRANCH  19  20
HETATM   20  C   UNL     1     -10.800  18.954  66.875  1.00  0.00    -0.267 C  
BRANCH  20  21
HETATM   21  O   UNL     1      -9.813  19.451  67.779  1.00  0.00    -0.313 OA 
BRANCH  21  22
HETATM   22  C   UNL     1      -9.112  20.562  67.225  1.00  0.00    -0.343 C  
BRANCH  22  23
HETATM   23  C   UNL     1      -7.633  20.439  67.568  1.00  0.00    -0.310 C  
BRANCH  23  24
HETATM   24  O   UNL     1      -6.883  21.307  66.720  1.00  0.00    -0.374 OA 
BRANCH  24  25
HETATM   25  C   UNL     1      -5.907  20.584  65.973  1.00  0.00    -0.195 C  
BRANCH  25  26
HETATM   26  C   UNL     1      -6.521  20.139  64.654  1.00  0.00    -0.238 C  
BRANCH  26  27
HETATM   27  O   UNL     1      -6.385  18.725  64.533  1.00  0.00    -0.462 OA 
BRANCH  27  28
HETATM   28  C   UNL     1      -5.726  18.171  65.669  1.00  0.00    -0.196 C  
BRANCH  28  29
HETATM   29  C   UNL     1      -6.588  17.061  66.250  1.00  0.00    -0.069 C  
BRANCH  29  30
HETATM   30  O   UNL     1      -5.808  16.307  67.173  1.00  0.00    -0.249 OA 
BRANCH  30  31
HETATM   31  C   UNL     1      -6.626  15.735  68.191  1.00  0.00    -0.128 C  
BRANCH  31  32
HETATM   32  C   UNL     1      -5.834  14.657  68.914  1.00  0.00    -0.085 C  
BRANCH  32  33
HETATM   33  O   UNL     1      -5.919  14.885  70.318  1.00  0.00    -0.140 OA 
BRANCH  33  34
HETATM   34  C   UNL     1      -5.709  13.679  71.047  1.00  0.00    -0.201 C  
BRANCH  34  35
HETATM   35  C   UNL     1      -5.640  12.516  70.068  1.00  0.00    -0.128 C  
BRANCH  35  36
HETATM   36  O   UNL     1      -6.473  11.461  70.543  1.00  0.00    -0.270 OA 
BRANCH  36  37
HETATM   37  C   UNL     1      -6.820  10.564  69.491  1.00  0.00    -0.098 C  
BRANCH  37  38
HETATM   38  C   UNL     1      -7.224   9.226  70.093  1.00  0.00    -0.083 C  
BRANCH  38  39
HETATM   39  O   UNL     1      -8.151   9.452  71.152  1.00  0.00    -0.322 OA 
BRANCH  39  40
HETATM   40  C   UNL     1      -9.186   8.469  71.151  1.00  0.00    -0.197 C  
BRANCH  40  41
HETATM   41  C   UNL     1      -9.047   7.602  69.907  1.00  0.00    -0.147 C  
BRANCH  41  42
HETATM   42  O   UNL     1      -8.793   6.254  70.298  1.00  0.00    -0.149 OA 
HETATM   43  C   UNL     1      -8.902   6.094  71.705  1.00  0.00    -0.138 C  
ENDBRANCH  41  42
ENDBRANCH  40  41
ENDBRANCH  39  40
ENDBRANCH  38  39
ENDBRANCH  37  38
ENDBRANCH  36  37
ENDBRANCH  35  36
ENDBRANCH  34  35
ENDBRANCH  33  34
ENDBRANCH  32  33
ENDBRANCH  31  32
ENDBRANCH  30  31
ENDBRANCH  29  30
ENDBRANCH  28  29
ENDBRANCH  27  28
ENDBRANCH  26  27
ENDBRANCH  25  26
ENDBRANCH  24  25
ENDBRANCH  23  24
ENDBRANCH  22  23
ENDBRANCH  21  22
ENDBRANCH  20  21
ENDBRANCH  19  20
ENDBRANCH  18  19
ENDBRANCH  17  18
ENDBRANCH  16  17
ENDBRANCH  15  16
ENDBRANCH  13  15
ENDBRANCH  10  13
ENDBRANCH   5   7
ENDBRANCH   4   5
ENDBRANCH   3   4
ENDBRANCH   2   3
TORSDOF 33
ENDMDL
MODEL       70
REMARK 921   NORMALIZED FREE ENERGY PREDICTED BY IDOCK:   -3.88 KCAL/MOL
REMARK 922        TOTAL FREE ENERGY PREDICTED BY IDOCK:  -14.18 KCAL/MOL
REMARK 923 INTER-LIGAND FREE ENERGY PREDICTED BY IDOCK:  -11.45 KCAL/MOL
REMARK 924 INTRA-LIGAND FREE ENERGY PREDICTED BY IDOCK:   -2.73 KCAL/MOL
REMARK 927      BINDING AFFINITY PREDICTED BY RF-SCORE:    0.00 PKD
ROOT
HETATM    1  C   UNL     1      -7.331   7.478  69.864  1.00  0.00    -0.082 C  
HETATM    2  C   UNL     1      -7.271   8.729  70.719  1.00  0.00    -0.073 C  
ENDROOT
BRANCH   2   3
HETATM    3  C   UNL     1      -5.853   9.021  71.218  1.00  0.00    -0.055 C  
BRANCH   3   4
HETATM    4  C   UNL     1      -5.518  10.487  70.968  1.00  0.00    -0.093 C  
BRANCH   4   5
HETATM    5  N   UNL     1      -6.021  10.943  69.677  1.00  0.00    -0.056 NA 
HETATM    6  H   UNL     1      -6.070  10.312  68.878  1.00  0.00     0.000 HD 
BRANCH   5   7
HETATM    7  C   UNL     1      -6.436  12.281  69.572  1.00  0.00    -0.094 A  
HETATM    8  C   UNL     1      -7.288  12.740  68.559  1.00  0.00    -0.115 A  
HETATM    9  C   UNL     1      -7.619  14.090  68.439  1.00  0.00    -0.129 A  
HETATM   10  C   UNL     1      -7.076  15.032  69.315  1.00  0.00    -0.170 A  
HETATM   11  C   UNL     1      -5.882  13.237  70.436  1.00  0.00    -0.161 A  
HETATM   12  C   UNL     1      -6.199  14.601  70.317  1.00  0.00    -0.173 A  
BRANCH  10  13
HETATM   13  C   UNL     1      -7.450  16.453  69.102  1.00  0.00    -0.228 C  
HETATM   14  O   UNL     1      -8.608  16.835  69.015  1.00  0.00    -0.232 OA 
BRANCH  13  15
HETATM   15  O   UNL     1      -6.354  17.238  68.989  1.00  0.00    -0.187 OA 
BRANCH  15  16
HETATM   16  C   UNL     1      -6.572  18.623  69.312  1.00  0.00    -0.257 C  
BRANCH  16  17
HETATM   17  C   UNL     1      -6.303  19.524  68.106  1.00  0.00    -0.232 C  
BRANCH  17  18
HETATM   18  O   UNL     1      -7.321  20.528  68.031  1.00  0.00    -0.253 OA 
BRANCH  18  19
HETATM   19  C   UNL     1      -8.465  20.054  67.325  1.00  0.00    -0.334 C  
BRANCH  19  20
HETATM   20  C   UNL     1      -8.024  19.408  66.018  1.00  0.00    -0.269 C  
BRANCH  20  21
HETATM   21  O   UNL     1      -8.768  18.208  65.818  1.00  0.00    -0.466 OA 
BRANCH  21  22
HETATM   22  C   UNL     1     -10.091  18.322  66.338  1.00  0.00    -0.396 C  
BRANCH  22  23
HETATM   23  C   UNL     1     -10.773  16.961  66.272  1.00  0.00    -0.096 C  
BRANCH  23  24
HETATM   24  O   UNL     1     -10.443  16.333  65.035  1.00  0.00    -0.621 OA 
BRANCH  24  25
HETATM   25  C   UNL     1     -11.604  15.801  64.401  1.00  0.00    -0.240 C  
BRANCH  25  26
HETATM   26  C   UNL     1     -11.626  14.291  64.590  1.00  0.00    -0.408 C  
BRANCH  26  27
HETATM   27  O   UNL     1     -12.588  13.726  63.703  1.00  0.00    -0.742 OA 
BRANCH  27  28
HETATM   28  C   UNL     1     -12.284  12.364  63.413  1.00  0.00    -0.523 C  
BRANCH  28  29
HETATM   29  C   UNL     1     -10.803  12.122  63.665  1.00  0.00    -0.464 C  
BRANCH  29  30
HETATM   30  O   UNL     1     -10.627  10.787  64.130  1.00  0.00    -0.347 OA 
BRANCH  30  31
HETATM   31  C   UNL     1      -9.483  10.683  64.974  1.00  0.00    -0.243 C  
BRANCH  31  32
HETATM   32  C   UNL     1      -9.745  11.451  66.260  1.00  0.00    -0.212 C  
BRANCH  32  33
HETATM   33  O   UNL     1     -10.932  10.946  66.865  1.00  0.00    -0.271 OA 
BRANCH  33  34
HETATM   34  C   UNL     1     -11.352  11.777  67.943  1.00  0.00    -0.292 C  
BRANCH  34  35
HETATM   35  C   UNL     1     -11.251  10.989  69.241  1.00  0.00    -0.257 C  
BRANCH  35  36
HETATM   36  O   UNL     1     -12.555  10.848  69.800  1.00  0.00    -0.270 OA 
BRANCH  36  37
HETATM   37  C   UNL     1     -12.508  10.847  71.224  1.00  0.00    -0.388 C  
BRANCH  37  38
HETATM   38  C   UNL     1     -13.537   9.858  71.752  1.00  0.00    -0.279 C  
BRANCH  38  39
HETATM   39  O   UNL     1     -12.891   8.930  72.620  1.00  0.00    -0.393 OA 
BRANCH  39  40
HETATM   40  C   UNL     1     -11.715   8.391  72.018  1.00  0.00    -0.352 C  
BRANCH  40  41
HETATM   41  C   UNL     1     -12.051   7.048  71.386  1.00  0.00    -0.355 C  
BRANCH  41  42
HETATM   42  O   UNL     1     -10.916   6.567  70.668  1.00  0.00    -0.250 OA 
HETATM   43  C   UNL     1     -11.281   6.105  69.374  1.00  0.00    -0.396 C  
ENDBRANCH  41  42
ENDBRANCH  40  41
ENDBRANCH  39  40
ENDBRANCH  38  39
ENDBRANCH  37  38
ENDBRANCH  36  37
ENDBRANCH  35  36
ENDBRANCH  34  35
ENDBRANCH  33  34
ENDBRANCH  32  33
ENDBRANCH  31  32
ENDBRANCH  30  31
ENDBRANCH  29  30
ENDBRANCH  28  29
ENDBRANCH  27  28
ENDBRANCH  26  27
ENDBRANCH  25  26
ENDBRANCH  24  25
ENDBRANCH  23  24
ENDBRANCH  22  23
ENDBRANCH  21  22
ENDBRANCH  20  21
ENDBRANCH  19  20
ENDBRANCH  18  19
ENDBRANCH  17  18
ENDBRANCH  16  17
ENDBRANCH  15  16
ENDBRANCH  13  15
ENDBRANCH  10  13
ENDBRANCH   5   7
ENDBRANCH   4   5
ENDBRANCH   3   4
ENDBRANCH   2   3
TORSDOF 33
ENDMDL
MODEL       71
REMARK 921   NORMALIZED FREE ENERGY PREDICTED BY IDOCK:   -3.85 KCAL/MOL
REMARK 922        TOTAL FREE ENERGY PREDICTED BY IDOCK:  -14.09 KCAL/MOL
REMARK 923 INTER-LIGAND FREE ENERGY PREDICTED BY IDOCK:  -11.39 KCAL/MOL
REMARK 924 INTRA-LIGAND FREE ENERGY PREDICTED BY IDOCK:   -2.70 KCAL/MOL
REMARK 927      BINDING AFFINITY PREDICTED BY RF-SCORE:    0.00 PKD
ROOT
HETATM    1  C   UNL     1     -10.635   9.693  67.796  1.00  0.00    -0.320 C  
HETATM    2  C   UNL     1      -9.993   9.405  66.452  1.00  0.00    -0.346 C  
ENDROOT
BRANCH   2   3
HETATM    3  C   UNL     1     -10.212  10.543  65.452  1.00  0.00    -0.340 C  
BRANCH   3   4
HETATM    4  C   UNL     1     -11.050  11.638  66.102  1.00  0.00    -0.280 C  
BRANCH   4   5
HETATM    5  N   UNL     1     -10.680  12.962  65.613  1.00  0.00    -0.270 NA 
HETATM    6  H   UNL     1     -11.103  13.349  64.770  1.00  0.00     0.000 HD 
BRANCH   5   7
HETATM    7  C   UNL     1      -9.723  13.685  66.343  1.00  0.00    -0.292 A  
HETATM    8  C   UNL     1      -9.233  14.933  65.936  1.00  0.00    -0.115 A  
HETATM    9  C   UNL     1      -8.227  15.589  66.644  1.00  0.00    -0.244 A  
HETATM   10  C   UNL     1      -7.652  14.997  67.770  1.00  0.00    -0.175 A  
HETATM   11  C   UNL     1      -9.127  13.090  67.464  1.00  0.00    -0.191 A  
HETATM   12  C   UNL     1      -8.105  13.737  68.179  1.00  0.00    -0.155 A  
BRANCH  10  13
HETATM   13  C   UNL     1      -6.563  15.743  68.450  1.00  0.00    -0.116 C  
HETATM   14  O   UNL     1      -5.854  15.250  69.316  1.00  0.00    -0.096 OA 
BRANCH  13  15
HETATM   15  O   UNL     1      -6.491  17.019  68.007  1.00  0.00    -0.139 OA 
BRANCH  15  16
HETATM   16  C   UNL     1      -5.391  17.778  68.543  1.00  0.00    -0.152 C  
BRANCH  16  17
HETATM   17  C   UNL     1      -5.678  19.279  68.497  1.00  0.00    -0.210 C  
BRANCH  17  18
HETATM   18  O   UNL     1      -7.093  19.487  68.425  1.00  0.00    -0.289 OA 
BRANCH  18  19
HETATM   19  C   UNL     1      -7.425  20.446  67.424  1.00  0.00    -0.322 C  
BRANCH  19  20
HETATM   20  C   UNL     1      -7.621  19.741  66.089  1.00  0.00    -0.320 C  
BRANCH  20  21
HETATM   21  O   UNL     1      -8.870  19.052  66.106  1.00  0.00    -0.417 OA 
BRANCH  21  22
HETATM   22  C   UNL     1      -9.938  19.919  66.482  1.00  0.00    -0.474 C  
BRANCH  22  23
HETATM   23  C   UNL     1     -10.874  19.177  67.428  1.00  0.00    -0.435 C  
BRANCH  23  24
HETATM   24  O   UNL     1     -10.327  17.891  67.712  1.00  0.00    -0.352 OA 
BRANCH  24  25
HETATM   25  C   UNL     1     -11.354  16.909  67.834  1.00  0.00     0.113 C  
BRANCH  25  26
HETATM   26  C   UNL     1     -10.987  15.941  68.949  1.00  0.00    -0.290 C  
BRANCH  26  27
HETATM   27  O   UNL     1     -11.132  16.602  70.203  1.00  0.00    -0.310 OA 
BRANCH  27  28
HETATM   28  C   UNL     1     -11.412  15.671  71.247  1.00  0.00    -0.409 C  
BRANCH  28  29
HETATM   29  C   UNL     1     -12.863  15.828  71.674  1.00  0.00    -0.448 C  
BRANCH  29  30
HETATM   30  O   UNL     1     -13.616  14.732  71.161  1.00  0.00    -0.385 OA 
BRANCH  30  31
HETATM   31  C   UNL     1     -14.162  13.944  72.215  1.00  0.00    -0.487 C  
BRANCH  31  32
HETATM   32  C   UNL     1     -13.458  12.596  72.240  1.00  0.00    -0.438 C  
BRANCH  32  33
HETATM   33  O   UNL     1     -12.777  12.408  71.004  1.00  0.00    -0.326 OA 
BRANCH  33  34
HETATM   34  C   UNL     1     -12.177  11.117  70.939  1.00  0.00    -0.364 C  
BRANCH  34  35
HETATM   35  C   UNL     1     -13.262  10.081  70.685  1.00  0.00    -0.118 C  
BRANCH  35  36
HETATM   36  O   UNL     1     -13.342   9.209  71.810  1.00  0.00    -0.358 OA 
BRANCH  36  37
HETATM   37  C   UNL     1     -12.634   7.995  71.572  1.00  0.00    -0.312 C  
BRANCH  37  38
HETATM   38  C   UNL     1     -11.599   7.802  72.672  1.00  0.00    -0.344 C  
BRANCH  38  39
HETATM   39  O   UNL     1     -10.303   8.073  72.147  1.00  0.00    -0.217 OA 
BRANCH  39  40
HETATM   40  C   UNL     1      -9.637   6.869  71.767  1.00  0.00    -0.159 C  
BRANCH  40  41
HETATM   41  C   UNL     1     -10.125   5.730  72.652  1.00  0.00    -0.180 C  
BRANCH  41  42
HETATM   42  O   UNL     1     -10.631   4.679  71.832  1.00  0.00    -0.149 OA 
HETATM   43  C   UNL     1      -9.994   3.443  72.125  1.00  0.00    -0.160 C  
ENDBRANCH  41  42
ENDBRANCH  40  41
ENDBRANCH  39  40
ENDBRANCH  38  39
ENDBRANCH  37  38
ENDBRANCH  36  37
ENDBRANCH  35  36
ENDBRANCH  34  35
ENDBRANCH  33  34
ENDBRANCH  32  33
ENDBRANCH  31  32
ENDBRANCH  30  31
ENDBRANCH  29  30
ENDBRANCH  28  29
ENDBRANCH  27  28
ENDBRANCH  26  27
ENDBRANCH  25  26
ENDBRANCH  24  25
ENDBRANCH  23  24
ENDBRANCH  22  23
ENDBRANCH  21  22
ENDBRANCH  20  21
ENDBRANCH  19  20
ENDBRANCH  18  19
ENDBRANCH  17  18
ENDBRANCH  16  17
ENDBRANCH  15  16
ENDBRANCH  13  15
ENDBRANCH  10  13
ENDBRANCH   5   7
ENDBRANCH   4   5
ENDBRANCH   3   4
ENDBRANCH   2   3
TORSDOF 33
ENDMDL
MODEL       72
REMARK 921   NORMALIZED FREE ENERGY PREDICTED BY IDOCK:   -3.84 KCAL/MOL
REMARK 922        TOTAL FREE ENERGY PREDICTED BY IDOCK:  -14.04 KCAL/MOL
REMARK 923 INTER-LIGAND FREE ENERGY PREDICTED BY IDOCK:  -12.50 KCAL/MOL
REMARK 924 INTRA-LIGAND FREE ENERGY PREDICTED BY IDOCK:   -1.54 KCAL/MOL
REMARK 927      BINDING AFFINITY PREDICTED BY RF-SCORE:    0.00 PKD
ROOT
HETATM    1  C   UNL     1      -7.785   3.827  65.804  1.00  0.00    -0.089 C  
HETATM    2  C   UNL     1      -7.629   3.120  67.136  1.00  0.00    -0.074 C  
ENDROOT
BRANCH   2   3
HETATM    3  C   UNL     1      -7.812   4.073  68.321  1.00  0.00    -0.069 C  
BRANCH   3   4
HETATM    4  C   UNL     1      -8.765   3.448  69.334  1.00  0.00    -0.077 C  
BRANCH   4   5
HETATM    5  N   UNL     1      -8.788   4.196  70.586  1.00  0.00    -0.076 NA 
HETATM    6  H   UNL     1      -7.997   4.170  71.230  1.00  0.00     0.000 HD 
BRANCH   5   7
HETATM    7  C   UNL     1      -9.933   4.956  70.873  1.00  0.00    -0.217 A  
HETATM    8  C   UNL     1     -10.631   5.686  69.902  1.00  0.00    -0.399 A  
HETATM    9  C   UNL     1     -11.720   6.491  70.237  1.00  0.00    -0.430 A  
HETATM   10  C   UNL     1     -12.126   6.616  71.567  1.00  0.00    -0.406 A  
HETATM   11  C   UNL     1     -10.338   5.102  72.209  1.00  0.00    -0.267 A  
HETATM   12  C   UNL     1     -11.426   5.918  72.558  1.00  0.00    -0.347 A  
BRANCH  10  13
HETATM   13  C   UNL     1     -13.273   7.518  71.846  1.00  0.00    -0.245 C  
HETATM   14  O   UNL     1     -14.392   7.338  71.389  1.00  0.00    -0.431 OA 
BRANCH  13  15
HETATM   15  O   UNL     1     -12.902   8.554  72.631  1.00  0.00    -0.323 OA 
BRANCH  15  16
HETATM   16  C   UNL     1     -12.048   9.518  71.989  1.00  0.00    -0.262 C  
BRANCH  16  17
HETATM   17  C   UNL     1     -12.832  10.390  71.008  1.00  0.00    -0.401 C  
BRANCH  17  18
HETATM   18  O   UNL     1     -12.105  10.489  69.780  1.00  0.00    -0.274 OA 
BRANCH  18  19
HETATM   19  C   UNL     1     -10.750  10.078  69.945  1.00  0.00    -0.286 C  
BRANCH  19  20
HETATM   20  C   UNL     1     -10.322   9.243  68.746  1.00  0.00    -0.211 C  
BRANCH  20  21
HETATM   21  O   UNL     1     -10.791   9.869  67.552  1.00  0.00    -0.279 OA 
BRANCH  21  22
HETATM   22  C   UNL     1      -9.799   9.848  66.529  1.00  0.00    -0.215 C  
BRANCH  22  23
HETATM   23  C   UNL     1      -9.088  11.195  66.494  1.00  0.00    -0.182 C  
BRANCH  23  24
HETATM   24  O   UNL     1      -8.996  11.640  65.143  1.00  0.00    -0.006 OA 
BRANCH  24  25
HETATM   25  C   UNL     1      -9.160  10.556  64.230  1.00  0.00    -0.228 C  
BRANCH  25  26
HETATM   26  C   UNL     1     -10.386  10.815  63.366  1.00  0.00    -0.129 C  
BRANCH  26  27
HETATM   27  O   UNL     1     -10.503  12.216  63.135  1.00  0.00    -0.386 OA 
BRANCH  27  28
HETATM   28  C   UNL     1     -11.860  12.643  63.228  1.00  0.00    -0.425 C  
BRANCH  28  29
HETATM   29  C   UNL     1     -12.379  12.344  64.626  1.00  0.00    -0.441 C  
BRANCH  29  30
HETATM   30  O   UNL     1     -12.693  13.574  65.274  1.00  0.00    -0.581 OA 
BRANCH  30  31
HETATM   31  C   UNL     1     -12.254  14.688  64.503  1.00  0.00    -0.456 C  
BRANCH  31  32
HETATM   32  C   UNL     1     -10.881  15.120  64.996  1.00  0.00    -0.440 C  
BRANCH  32  33
HETATM   33  O   UNL     1     -10.816  16.543  64.992  1.00  0.00    -0.622 OA 
BRANCH  33  34
HETATM   34  C   UNL     1     -10.086  17.026  66.116  1.00  0.00    -0.319 C  
BRANCH  34  35
HETATM   35  C   UNL     1     -10.398  18.503  66.309  1.00  0.00    -0.427 C  
BRANCH  35  36
HETATM   36  O   UNL     1     -10.797  18.719  67.661  1.00  0.00    -0.426 OA 
BRANCH  36  37
HETATM   37  C   UNL     1      -9.786  18.292  68.571  1.00  0.00    -0.381 C  
BRANCH  37  38
HETATM   38  C   UNL     1     -10.396  17.316  69.566  1.00  0.00    -0.068 C  
BRANCH  38  39
HETATM   39  O   UNL     1     -10.008  15.990  69.217  1.00  0.00    -0.225 OA 
BRANCH  39  40
HETATM   40  C   UNL     1     -10.700  15.023  70.007  1.00  0.00    -0.192 C  
BRANCH  40  41
HETATM   41  C   UNL     1     -12.010  15.626  70.495  1.00  0.00    -0.385 C  
BRANCH  41  42
HETATM   42  O   UNL     1     -12.858  14.585  70.977  1.00  0.00    -0.318 OA 
HETATM   43  C   UNL     1     -14.139  15.086  71.335  1.00  0.00    -0.487 C  
ENDBRANCH  41  42
ENDBRANCH  40  41
ENDBRANCH  39  40
ENDBRANCH  38  39
ENDBRANCH  37  38
ENDBRANCH  36  37
ENDBRANCH  35  36
ENDBRANCH  34  35
ENDBRANCH  33  34
ENDBRANCH  32  33
ENDBRANCH  31  32
ENDBRANCH  30  31
ENDBRANCH  29  30
ENDBRANCH  28  29
ENDBRANCH  27  28
ENDBRANCH  26  27
ENDBRANCH  25  26
ENDBRANCH  24  25
ENDBRANCH  23  24
ENDBRANCH  22  23
ENDBRANCH  21  22
ENDBRANCH  20  21
ENDBRANCH  19  20
ENDBRANCH  18  19
ENDBRANCH  17  18
ENDBRANCH  16  17
ENDBRANCH  15  16
ENDBRANCH  13  15
ENDBRANCH  10  13
ENDBRANCH   5   7
ENDBRANCH   4   5
ENDBRANCH   3   4
ENDBRANCH   2   3
TORSDOF 33
ENDMDL
MODEL       73
REMARK 921   NORMALIZED FREE ENERGY PREDICTED BY IDOCK:   -3.84 KCAL/MOL
REMARK 922        TOTAL FREE ENERGY PREDICTED BY IDOCK:  -14.04 KCAL/MOL
REMARK 923 INTER-LIGAND FREE ENERGY PREDICTED BY IDOCK:  -11.23 KCAL/MOL
REMARK 924 INTRA-LIGAND FREE ENERGY PREDICTED BY IDOCK:   -2.81 KCAL/MOL
REMARK 927      BINDING AFFINITY PREDICTED BY RF-SCORE:    0.00 PKD
ROOT
HETATM    1  C   UNL     1      -8.535   4.608  72.359  1.00  0.00    -0.115 C  
HETATM    2  C   UNL     1      -9.577   4.427  71.271  1.00  0.00    -0.242 C  
ENDROOT
BRANCH   2   3
HETATM    3  C   UNL     1      -9.362   3.137  70.475  1.00  0.00    -0.227 C  
BRANCH   3   4
HETATM    4  C   UNL     1      -8.959   3.482  69.045  1.00  0.00    -0.124 C  
BRANCH   4   5
HETATM    5  N   UNL     1     -10.033   4.166  68.333  1.00  0.00    -0.002 NA 
HETATM    6  H   UNL     1     -10.934   3.714  68.179  1.00  0.00     0.000 HD 
BRANCH   5   7
HETATM    7  C   UNL     1      -9.784   5.468  67.867  1.00  0.00    -0.131 A  
HETATM    8  C   UNL     1     -10.800   6.339  67.453  1.00  0.00    -0.448 A  
HETATM    9  C   UNL     1     -10.513   7.597  66.924  1.00  0.00    -0.388 A  
HETATM   10  C   UNL     1      -9.189   8.011  66.761  1.00  0.00    -0.206 A  
HETATM   11  C   UNL     1      -8.458   5.885  67.683  1.00  0.00    -0.103 A  
HETATM   12  C   UNL     1      -8.156   7.145  67.141  1.00  0.00    -0.114 A  
BRANCH  10  13
HETATM   13  C   UNL     1      -8.964   9.350  66.160  1.00  0.00    -0.161 C  
HETATM   14  O   UNL     1      -7.974  10.029  66.391  1.00  0.00    -0.113 OA 
BRANCH  13  15
HETATM   15  O   UNL     1      -9.998   9.712  65.367  1.00  0.00    -0.316 OA 
BRANCH  15  16
HETATM   16  C   UNL     1      -9.615  10.385  64.153  1.00  0.00    -0.322 C  
BRANCH  16  17
HETATM   17  C   UNL     1     -10.267  11.764  64.053  1.00  0.00    -0.348 C  
BRANCH  17  18
HETATM   18  O   UNL     1     -11.423  11.680  63.212  1.00  0.00    -0.341 OA 
BRANCH  18  19
HETATM   19  C   UNL     1     -12.513  12.421  63.755  1.00  0.00    -0.492 C  
BRANCH  19  20
HETATM   20  C   UNL     1     -12.254  12.701  65.229  1.00  0.00    -0.475 C  
BRANCH  20  21
HETATM   21  O   UNL     1     -12.524  14.076  65.496  1.00  0.00    -0.458 OA 
BRANCH  21  22
HETATM   22  C   UNL     1     -12.353  14.876  64.328  1.00  0.00    -0.277 C  
BRANCH  22  23
HETATM   23  C   UNL     1     -11.449  16.057  64.659  1.00  0.00    -0.250 C  
BRANCH  23  24
HETATM   24  O   UNL     1     -10.502  15.657  65.648  1.00  0.00    -0.332 OA 
BRANCH  24  25
HETATM   25  C   UNL     1      -9.587  16.711  65.941  1.00  0.00    -0.214 C  
BRANCH  25  26
HETATM   26  C   UNL     1     -10.371  17.959  66.320  1.00  0.00    -0.364 C  
BRANCH  26  27
HETATM   27  O   UNL     1      -9.459  19.034  66.527  1.00  0.00    -0.322 OA 
BRANCH  27  28
HETATM   28  C   UNL     1      -9.535  19.525  67.864  1.00  0.00    -0.336 C  
BRANCH  28  29
HETATM   29  C   UNL     1      -8.195  19.305  68.549  1.00  0.00    -0.366 C  
BRANCH  29  30
HETATM   30  O   UNL     1      -7.204  19.058  67.555  1.00  0.00    -0.217 OA 
BRANCH  30  31
HETATM   31  C   UNL     1      -6.494  17.852  67.826  1.00  0.00    -0.188 C  
BRANCH  31  32
HETATM   32  C   UNL     1      -6.251  17.747  69.324  1.00  0.00    -0.239 C  
BRANCH  32  33
HETATM   33  O   UNL     1      -6.871  16.561  69.810  1.00  0.00    -0.159 OA 
BRANCH  33  34
HETATM   34  C   UNL     1      -7.477  15.827  68.749  1.00  0.00    -0.158 C  
BRANCH  34  35
HETATM   35  C   UNL     1      -8.821  15.294  69.223  1.00  0.00    -0.242 C  
BRANCH  35  36
HETATM   36  O   UNL     1      -9.670  16.394  69.541  1.00  0.00    -0.198 OA 
BRANCH  36  37
HETATM   37  C   UNL     1     -11.036  16.081  69.286  1.00  0.00    -0.331 C  
BRANCH  37  38
HETATM   38  C   UNL     1     -11.641  15.451  70.532  1.00  0.00    -0.326 C  
BRANCH  38  39
HETATM   39  O   UNL     1     -12.527  14.405  70.143  1.00  0.00    -0.342 OA 
BRANCH  39  40
HETATM   40  C   UNL     1     -11.806  13.253  69.706  1.00  0.00    -0.325 C  
BRANCH  40  41
HETATM   41  C   UNL     1     -12.257  12.047  70.519  1.00  0.00    -0.325 C  
BRANCH  41  42
HETATM   42  O   UNL     1     -11.761  10.856  69.911  1.00  0.00    -0.277 OA 
HETATM   43  C   UNL     1     -11.581  11.026  68.511  1.00  0.00    -0.310 C  
ENDBRANCH  41  42
ENDBRANCH  40  41
ENDBRANCH  39  40
ENDBRANCH  38  39
ENDBRANCH  37  38
ENDBRANCH  36  37
ENDBRANCH  35  36
ENDBRANCH  34  35
ENDBRANCH  33  34
ENDBRANCH  32  33
ENDBRANCH  31  32
ENDBRANCH  30  31
ENDBRANCH  29  30
ENDBRANCH  28  29
ENDBRANCH  27  28
ENDBRANCH  26  27
ENDBRANCH  25  26
ENDBRANCH  24  25
ENDBRANCH  23  24
ENDBRANCH  22  23
ENDBRANCH  21  22
ENDBRANCH  20  21
ENDBRANCH  19  20
ENDBRANCH  18  19
ENDBRANCH  17  18
ENDBRANCH  16  17
ENDBRANCH  15  16
ENDBRANCH  13  15
ENDBRANCH  10  13
ENDBRANCH   5   7
ENDBRANCH   4   5
ENDBRANCH   3   4
ENDBRANCH   2   3
TORSDOF 33
ENDMDL
MODEL       74
REMARK 921   NORMALIZED FREE ENERGY PREDICTED BY IDOCK:   -3.84 KCAL/MOL
REMARK 922        TOTAL FREE ENERGY PREDICTED BY IDOCK:  -14.03 KCAL/MOL
REMARK 923 INTER-LIGAND FREE ENERGY PREDICTED BY IDOCK:  -10.64 KCAL/MOL
REMARK 924 INTRA-LIGAND FREE ENERGY PREDICTED BY IDOCK:   -3.39 KCAL/MOL
REMARK 927      BINDING AFFINITY PREDICTED BY RF-SCORE:    0.00 PKD
ROOT
HETATM    1  C   UNL     1      -9.265   8.585  72.132  1.00  0.00    -0.336 C  
HETATM    2  C   UNL     1      -9.879   9.323  70.958  1.00  0.00    -0.355 C  
ENDROOT
BRANCH   2   3
HETATM    3  C   UNL     1     -11.399   9.450  71.086  1.00  0.00    -0.422 C  
BRANCH   3   4
HETATM    4  C   UNL     1     -11.972   8.156  71.655  1.00  0.00    -0.300 C  
BRANCH   4   5
HETATM    5  N   UNL     1     -12.435   7.262  70.600  1.00  0.00    -0.591 NA 
HETATM    6  H   UNL     1     -13.404   7.279  70.283  1.00  0.00     0.000 HD 
BRANCH   5   7
HETATM    7  C   UNL     1     -11.502   6.377  70.035  1.00  0.00    -0.428 A  
HETATM    8  C   UNL     1     -10.721   5.499  70.798  1.00  0.00    -0.294 A  
HETATM    9  C   UNL     1      -9.750   4.688  70.211  1.00  0.00    -0.295 A  
HETATM   10  C   UNL     1      -9.506   4.756  68.838  1.00  0.00    -0.209 A  
HETATM   11  C   UNL     1     -11.238   6.451  68.660  1.00  0.00    -0.338 A  
HETATM   12  C   UNL     1     -10.254   5.647  68.060  1.00  0.00    -0.234 A  
BRANCH  10  13
HETATM   13  C   UNL     1      -8.433   3.886  68.294  1.00  0.00    -0.092 C  
HETATM   14  O   UNL     1      -8.214   3.763  67.097  1.00  0.00    -0.094 OA 
BRANCH  13  15
HETATM   15  O   UNL     1      -7.772   3.244  69.283  1.00  0.00    -0.051 OA 
BRANCH  15  16
HETATM   16  C   UNL     1      -6.355   3.492  69.319  1.00  0.00    -0.029 C  
BRANCH  16  17
HETATM   17  C   UNL     1      -6.003   4.557  70.358  1.00  0.00    -0.014 C  
BRANCH  17  18
HETATM   18  O   UNL     1      -5.745   5.798  69.692  1.00  0.00    -0.014 OA 
BRANCH  18  19
HETATM   19  C   UNL     1      -6.652   6.812  70.119  1.00  0.00    -0.044 C  
BRANCH  19  20
HETATM   20  C   UNL     1      -7.197   7.551  68.904  1.00  0.00    -0.082 C  
BRANCH  20  21
HETATM   21  O   UNL     1      -6.664   6.956  67.721  1.00  0.00    -0.062 OA 
BRANCH  21  22
HETATM   22  C   UNL     1      -7.329   7.432  66.554  1.00  0.00    -0.084 C  
BRANCH  22  23
HETATM   23  C   UNL     1      -8.338   8.501  66.955  1.00  0.00    -0.109 C  
BRANCH  23  24
HETATM   24  O   UNL     1      -9.438   8.469  66.048  1.00  0.00    -0.223 OA 
BRANCH  24  25
HETATM   25  C   UNL     1     -10.138   9.711  66.041  1.00  0.00    -0.248 C  
BRANCH  25  26
HETATM   26  C   UNL     1      -9.988  10.374  67.403  1.00  0.00    -0.187 C  
BRANCH  26  27
HETATM   27  O   UNL     1     -10.034  11.789  67.238  1.00  0.00    -0.191 OA 
BRANCH  27  28
HETATM   28  C   UNL     1      -8.730  12.360  67.322  1.00  0.00    -0.191 C  
BRANCH  28  29
HETATM   29  C   UNL     1      -8.826  13.854  67.056  1.00  0.00    -0.218 C  
BRANCH  29  30
HETATM   30  O   UNL     1      -7.524  14.425  67.156  1.00  0.00    -0.136 OA 
BRANCH  30  31
HETATM   31  C   UNL     1      -7.581  15.750  67.678  1.00  0.00    -0.156 C  
BRANCH  31  32
HETATM   32  C   UNL     1      -7.562  16.738  66.522  1.00  0.00    -0.298 C  
BRANCH  32  33
HETATM   33  O   UNL     1      -8.810  17.424  66.480  1.00  0.00    -0.247 OA 
BRANCH  33  34
HETATM   34  C   UNL     1      -9.151  17.946  67.761  1.00  0.00    -0.258 C  
BRANCH  34  35
HETATM   35  C   UNL     1     -10.647  17.770  67.982  1.00  0.00    -0.365 C  
BRANCH  35  36
HETATM   36  O   UNL     1     -10.982  16.396  67.807  1.00  0.00    -0.325 OA 
BRANCH  36  37
HETATM   37  C   UNL     1     -11.728  15.902  68.916  1.00  0.00    -0.370 C  
BRANCH  37  38
HETATM   38  C   UNL     1     -10.771  15.597  70.060  1.00  0.00    -0.335 C  
BRANCH  38  39
HETATM   39  O   UNL     1     -11.525  15.276  71.226  1.00  0.00    -0.331 OA 
BRANCH  39  40
HETATM   40  C   UNL     1     -12.917  15.175  70.930  1.00  0.00    -0.429 C  
BRANCH  40  41
HETATM   41  C   UNL     1     -13.712  15.312  72.222  1.00  0.00    -0.510 C  
BRANCH  41  42
HETATM   42  O   UNL     1     -13.830  14.033  72.842  1.00  0.00    -0.657 OA 
HETATM   43  C   UNL     1     -13.428  12.993  71.962  1.00  0.00    -0.492 C  
ENDBRANCH  41  42
ENDBRANCH  40  41
ENDBRANCH  39  40
ENDBRANCH  38  39
ENDBRANCH  37  38
ENDBRANCH  36  37
ENDBRANCH  35  36
ENDBRANCH  34  35
ENDBRANCH  33  34
ENDBRANCH  32  33
ENDBRANCH  31  32
ENDBRANCH  30  31
ENDBRANCH  29  30
ENDBRANCH  28  29
ENDBRANCH  27  28
ENDBRANCH  26  27
ENDBRANCH  25  26
ENDBRANCH  24  25
ENDBRANCH  23  24
ENDBRANCH  22  23
ENDBRANCH  21  22
ENDBRANCH  20  21
ENDBRANCH  19  20
ENDBRANCH  18  19
ENDBRANCH  17  18
ENDBRANCH  16  17
ENDBRANCH  15  16
ENDBRANCH  13  15
ENDBRANCH  10  13
ENDBRANCH   5   7
ENDBRANCH   4   5
ENDBRANCH   3   4
ENDBRANCH   2   3
TORSDOF 33
ENDMDL
MODEL       75
REMARK 921   NORMALIZED FREE ENERGY PREDICTED BY IDOCK:   -3.83 KCAL/MOL
REMARK 922        TOTAL FREE ENERGY PREDICTED BY IDOCK:  -14.02 KCAL/MOL
REMARK 923 INTER-LIGAND FREE ENERGY PREDICTED BY IDOCK:  -11.01 KCAL/MOL
REMARK 924 INTRA-LIGAND FREE ENERGY PREDICTED BY IDOCK:   -3.01 KCAL/MOL
REMARK 927      BINDING AFFINITY PREDICTED BY RF-SCORE:    0.00 PKD
ROOT
HETATM    1  C   UNL     1      -9.639   5.907  68.108  1.00  0.00    -0.130 C  
HETATM    2  C   UNL     1      -9.503   6.516  66.725  1.00  0.00    -0.188 C  
ENDROOT
BRANCH   2   3
HETATM    3  C   UNL     1      -8.042   6.771  66.348  1.00  0.00    -0.110 C  
BRANCH   3   4
HETATM    4  C   UNL     1      -7.560   8.054  67.019  1.00  0.00    -0.096 C  
BRANCH   4   5
HETATM    5  N   UNL     1      -6.506   7.790  67.992  1.00  0.00    -0.053 NA 
HETATM    6  H   UNL     1      -5.558   7.561  67.694  1.00  0.00     0.000 HD 
BRANCH   5   7
HETATM    7  C   UNL     1      -6.841   7.861  69.355  1.00  0.00    -0.047 A  
HETATM    8  C   UNL     1      -6.474   6.880  70.285  1.00  0.00    -0.043 A  
HETATM    9  C   UNL     1      -6.889   6.944  71.615  1.00  0.00    -0.065 A  
HETATM   10  C   UNL     1      -7.716   7.981  72.050  1.00  0.00    -0.124 A  
HETATM   11  C   UNL     1      -7.687   8.889  69.796  1.00  0.00    -0.078 A  
HETATM   12  C   UNL     1      -8.119   8.957  71.131  1.00  0.00    -0.201 A  
BRANCH  10  13
HETATM   13  C   UNL     1      -8.142   7.961  73.472  1.00  0.00    -0.188 C  
HETATM   14  O   UNL     1      -7.848   8.839  74.271  1.00  0.00    -0.402 OA 
BRANCH  13  15
HETATM   15  O   UNL     1      -8.855   6.848  73.756  1.00  0.00    -0.136 OA 
BRANCH  15  16
HETATM   16  C   UNL     1     -10.281   7.041  73.789  1.00  0.00    -0.363 C  
BRANCH  16  17
HETATM   17  C   UNL     1     -11.021   5.814  73.255  1.00  0.00    -0.253 C  
BRANCH  17  18
HETATM   18  O   UNL     1     -10.934   5.796  71.826  1.00  0.00    -0.258 OA 
BRANCH  18  19
HETATM   19  C   UNL     1     -11.361   7.036  71.266  1.00  0.00    -0.274 C  
BRANCH  19  20
HETATM   20  C   UNL     1     -12.876   7.150  71.380  1.00  0.00    -0.384 C  
BRANCH  20  21
HETATM   21  O   UNL     1     -13.196   8.258  72.220  1.00  0.00    -0.292 OA 
BRANCH  21  22
HETATM   22  C   UNL     1     -13.708   9.353  71.466  1.00  0.00    -0.294 C  
BRANCH  22  23
HETATM   23  C   UNL     1     -13.056  10.642  71.950  1.00  0.00    -0.458 C  
BRANCH  23  24
HETATM   24  O   UNL     1     -11.999  10.994  71.059  1.00  0.00    -0.318 OA 
BRANCH  24  25
HETATM   25  C   UNL     1     -12.250  12.250  70.432  1.00  0.00    -0.288 C  
BRANCH  25  26
HETATM   26  C   UNL     1     -12.644  13.266  71.494  1.00  0.00    -0.214 C  
BRANCH  26  27
HETATM   27  O   UNL     1     -11.856  14.441  71.327  1.00  0.00    -0.326 OA 
BRANCH  27  28
HETATM   28  C   UNL     1     -12.477  15.354  70.425  1.00  0.00    -0.404 C  
BRANCH  28  29
HETATM   29  C   UNL     1     -11.528  15.631  69.268  1.00  0.00    -0.362 C  
BRANCH  29  30
HETATM   30  O   UNL     1     -10.858  16.865  69.507  1.00  0.00    -0.303 OA 
BRANCH  30  31
HETATM   31  C   UNL     1      -9.748  17.026  68.627  1.00  0.00    -0.282 C  
BRANCH  31  32
HETATM   32  C   UNL     1      -9.932  18.308  67.829  1.00  0.00    -0.332 C  
BRANCH  32  33
HETATM   33  O   UNL     1     -10.302  17.972  66.495  1.00  0.00    -0.361 OA 
BRANCH  33  34
HETATM   34  C   UNL     1      -9.929  16.633  66.181  1.00  0.00    -0.337 C  
BRANCH  34  35
HETATM   35  C   UNL     1     -10.908  16.076  65.157  1.00  0.00    -0.395 C  
BRANCH  35  36
HETATM   36  O   UNL     1     -11.556  14.934  65.710  1.00  0.00    -0.325 OA 
BRANCH  36  37
HETATM   37  C   UNL     1     -12.176  14.150  64.694  1.00  0.00    -0.445 C  
BRANCH  37  38
HETATM   38  C   UNL     1     -11.141  13.206  64.097  1.00  0.00    -0.394 C  
BRANCH  38  39
HETATM   39  O   UNL     1     -11.421  11.876  64.524  1.00  0.00    -0.327 OA 
BRANCH  39  40
HETATM   40  C   UNL     1     -10.413  10.968  64.081  1.00  0.00    -0.366 C  
BRANCH  40  41
HETATM   41  C   UNL     1      -9.817  10.258  65.288  1.00  0.00    -0.306 C  
BRANCH  41  42
HETATM   42  O   UNL     1     -10.107  11.005  66.467  1.00  0.00    -0.211 OA 
HETATM   43  C   UNL     1     -10.727  10.193  67.455  1.00  0.00    -0.277 C  
ENDBRANCH  41  42
ENDBRANCH  40  41
ENDBRANCH  39  40
ENDBRANCH  38  39
ENDBRANCH  37  38
ENDBRANCH  36  37
ENDBRANCH  35  36
ENDBRANCH  34  35
ENDBRANCH  33  34
ENDBRANCH  32  33
ENDBRANCH  31  32
ENDBRANCH  30  31
ENDBRANCH  29  30
ENDBRANCH  28  29
ENDBRANCH  27  28
ENDBRANCH  26  27
ENDBRANCH  25  26
ENDBRANCH  24  25
ENDBRANCH  23  24
ENDBRANCH  22  23
ENDBRANCH  21  22
ENDBRANCH  20  21
ENDBRANCH  19  20
ENDBRANCH  18  19
ENDBRANCH  17  18
ENDBRANCH  16  17
ENDBRANCH  15  16
ENDBRANCH  13  15
ENDBRANCH  10  13
ENDBRANCH   5   7
ENDBRANCH   4   5
ENDBRANCH   3   4
ENDBRANCH   2   3
TORSDOF 33
ENDMDL
MODEL       76
REMARK 921   NORMALIZED FREE ENERGY PREDICTED BY IDOCK:   -3.82 KCAL/MOL
REMARK 922        TOTAL FREE ENERGY PREDICTED BY IDOCK:  -13.99 KCAL/MOL
REMARK 923 INTER-LIGAND FREE ENERGY PREDICTED BY IDOCK:  -11.12 KCAL/MOL
REMARK 924 INTRA-LIGAND FREE ENERGY PREDICTED BY IDOCK:   -2.86 KCAL/MOL
REMARK 927      BINDING AFFINITY PREDICTED BY RF-SCORE:    0.00 PKD
ROOT
HETATM    1  C   UNL     1     -14.215   6.706  71.700  1.00  0.00    -0.125 C  
HETATM    2  C   UNL     1     -14.016   8.143  71.258  1.00  0.00    -0.261 C  
ENDROOT
BRANCH   2   3
HETATM    3  C   UNL     1     -13.667   9.065  72.429  1.00  0.00    -0.539 C  
BRANCH   3   4
HETATM    4  C   UNL     1     -12.885  10.268  71.914  1.00  0.00    -0.426 C  
BRANCH   4   5
HETATM    5  N   UNL     1     -12.828  10.290  70.457  1.00  0.00    -0.534 NA 
HETATM    6  H   UNL     1     -13.129   9.487  69.906  1.00  0.00     0.000 HD 
BRANCH   5   7
HETATM    7  C   UNL     1     -12.344  11.455  69.839  1.00  0.00    -0.214 A  
HETATM    8  C   UNL     1     -12.359  12.712  70.456  1.00  0.00    -0.350 A  
HETATM    9  C   UNL     1     -11.941  13.861  69.785  1.00  0.00    -0.398 A  
HETATM   10  C   UNL     1     -11.524  13.791  68.454  1.00  0.00    -0.351 A  
HETATM   11  C   UNL     1     -11.940  11.397  68.496  1.00  0.00    -0.295 A  
HETATM   12  C   UNL     1     -11.527  12.550  67.807  1.00  0.00    -0.378 A  
BRANCH  10  13
HETATM   13  C   UNL     1     -11.126  15.062  67.798  1.00  0.00    -0.310 C  
HETATM   14  O   UNL     1     -11.257  16.157  68.326  1.00  0.00    -0.352 OA 
BRANCH  13  15
HETATM   15  O   UNL     1     -10.641  14.842  66.555  1.00  0.00    -0.292 OA 
BRANCH  15  16
HETATM   16  C   UNL     1      -9.868  15.929  66.012  1.00  0.00    -0.337 C  
BRANCH  16  17
HETATM   17  C   UNL     1     -10.585  16.587  64.834  1.00  0.00    -0.032 C  
BRANCH  17  18
HETATM   18  O   UNL     1     -10.874  17.950  65.159  1.00  0.00    -0.672 OA 
BRANCH  18  19
HETATM   19  C   UNL     1      -9.903  18.485  66.056  1.00  0.00    -0.171 C  
BRANCH  19  20
HETATM   20  C   UNL     1     -10.586  19.420  67.045  1.00  0.00    -0.478 C  
BRANCH  20  21
HETATM   21  O   UNL     1      -9.793  19.504  68.228  1.00  0.00    -0.363 OA 
BRANCH  21  22
HETATM   22  C   UNL     1      -8.400  19.461  67.926  1.00  0.00    -0.308 C  
BRANCH  22  23
HETATM   23  C   UNL     1      -7.704  18.533  68.913  1.00  0.00    -0.227 C  
BRANCH  23  24
HETATM   24  O   UNL     1      -6.316  18.860  68.962  1.00  0.00    -0.247 OA 
BRANCH  24  25
HETATM   25  C   UNL     1      -5.507  17.711  68.720  1.00  0.00    -0.160 C  
BRANCH  25  26
HETATM   26  C   UNL     1      -5.148  17.658  67.242  1.00  0.00    -0.130 C  
BRANCH  26  27
HETATM   27  O   UNL     1      -5.432  16.354  66.742  1.00  0.00    -0.349 OA 
BRANCH  27  28
HETATM   28  C   UNL     1      -5.584  15.416  67.804  1.00  0.00    -0.109 C  
BRANCH  28  29
HETATM   29  C   UNL     1      -6.921  14.707  67.651  1.00  0.00    -0.184 C  
BRANCH  29  30
HETATM   30  O   UNL     1      -6.714  13.302  67.772  1.00  0.00    -0.121 OA 
BRANCH  30  31
HETATM   31  C   UNL     1      -7.894  12.646  68.228  1.00  0.00    -0.144 C  
BRANCH  31  32
HETATM   32  C   UNL     1      -7.876  11.204  67.744  1.00  0.00    -0.114 C  
BRANCH  32  33
HETATM   33  O   UNL     1      -7.263  11.156  66.460  1.00  0.00    -0.138 OA 
BRANCH  33  34
HETATM   34  C   UNL     1      -7.800  10.095  65.674  1.00  0.00    -0.145 C  
BRANCH  34  35
HETATM   35  C   UNL     1      -7.860   8.834  66.524  1.00  0.00    -0.103 C  
BRANCH  35  36
HETATM   36  O   UNL     1      -9.199   8.346  66.535  1.00  0.00    -0.163 OA 
BRANCH  36  37
HETATM   37  C   UNL     1      -9.229   6.923  66.594  1.00  0.00    -0.157 C  
BRANCH  37  38
HETATM   38  C   UNL     1      -9.519   6.492  68.025  1.00  0.00    -0.120 C  
BRANCH  38  39
HETATM   39  O   UNL     1     -10.929   6.394  68.206  1.00  0.00    -0.293 OA 
BRANCH  39  40
HETATM   40  C   UNL     1     -11.254   6.031  69.548  1.00  0.00    -0.346 C  
BRANCH  40  41
HETATM   41  C   UNL     1     -10.411   6.862  70.506  1.00  0.00    -0.204 C  
BRANCH  41  42
HETATM   42  O   UNL     1     -10.472   8.234  70.121  1.00  0.00    -0.215 OA 
HETATM   43  C   UNL     1      -9.523   9.014  70.836  1.00  0.00    -0.267 C  
ENDBRANCH  41  42
ENDBRANCH  40  41
ENDBRANCH  39  40
ENDBRANCH  38  39
ENDBRANCH  37  38
ENDBRANCH  36  37
ENDBRANCH  35  36
ENDBRANCH  34  35
ENDBRANCH  33  34
ENDBRANCH  32  33
ENDBRANCH  31  32
ENDBRANCH  30  31
ENDBRANCH  29  30
ENDBRANCH  28  29
ENDBRANCH  27  28
ENDBRANCH  26  27
ENDBRANCH  25  26
ENDBRANCH  24  25
ENDBRANCH  23  24
ENDBRANCH  22  23
ENDBRANCH  21  22
ENDBRANCH  20  21
ENDBRANCH  19  20
ENDBRANCH  18  19
ENDBRANCH  17  18
ENDBRANCH  16  17
ENDBRANCH  15  16
ENDBRANCH  13  15
ENDBRANCH  10  13
ENDBRANCH   5   7
ENDBRANCH   4   5
ENDBRANCH   3   4
ENDBRANCH   2   3
TORSDOF 33
ENDMDL
MODEL       77
REMARK 921   NORMALIZED FREE ENERGY PREDICTED BY IDOCK:   -3.82 KCAL/MOL
REMARK 922        TOTAL FREE ENERGY PREDICTED BY IDOCK:  -13.99 KCAL/MOL
REMARK 923 INTER-LIGAND FREE ENERGY PREDICTED BY IDOCK:  -11.22 KCAL/MOL
REMARK 924 INTRA-LIGAND FREE ENERGY PREDICTED BY IDOCK:   -2.76 KCAL/MOL
REMARK 927      BINDING AFFINITY PREDICTED BY RF-SCORE:    0.00 PKD
ROOT
HETATM    1  C   UNL     1      -9.446   1.568  63.890  1.00  0.00    -0.122 C  
HETATM    2  C   UNL     1     -10.563   2.319  63.191  1.00  0.00    -0.190 C  
ENDROOT
BRANCH   2   3
HETATM    3  C   UNL     1     -10.857   3.667  63.854  1.00  0.00    -0.205 C  
BRANCH   3   4
HETATM    4  C   UNL     1      -9.894   3.883  65.017  1.00  0.00    -0.192 C  
BRANCH   4   5
HETATM    5  N   UNL     1      -9.939   5.256  65.507  1.00  0.00    -0.381 NA 
HETATM    6  H   UNL     1      -9.833   6.046  64.871  1.00  0.00     0.000 HD 
BRANCH   5   7
HETATM    7  C   UNL     1     -10.134   5.453  66.884  1.00  0.00    -0.209 A  
HETATM    8  C   UNL     1      -9.653   4.569  67.859  1.00  0.00    -0.208 A  
HETATM    9  C   UNL     1      -9.930   4.755  69.213  1.00  0.00    -0.254 A  
HETATM   10  C   UNL     1     -10.730   5.820  69.632  1.00  0.00    -0.416 A  
HETATM   11  C   UNL     1     -10.952   6.509  67.313  1.00  0.00    -0.475 A  
HETATM   12  C   UNL     1     -11.246   6.699  68.674  1.00  0.00    -0.239 A  
BRANCH  10  13
HETATM   13  C   UNL     1     -11.007   5.931  71.087  1.00  0.00    -0.260 C  
HETATM   14  O   UNL     1     -12.081   6.304  71.537  1.00  0.00    -0.286 OA 
BRANCH  13  15
HETATM   15  O   UNL     1      -9.921   5.599  71.821  1.00  0.00    -0.168 OA 
BRANCH  15  16
HETATM   16  C   UNL     1      -8.935   6.641  71.938  1.00  0.00    -0.136 C  
BRANCH  16  17
HETATM   17  C   UNL     1      -9.385   7.724  72.918  1.00  0.00    -0.219 C  
BRANCH  17  18
HETATM   18  O   UNL     1      -9.571   8.954  72.210  1.00  0.00    -0.295 OA 
BRANCH  18  19
HETATM   19  C   UNL     1      -8.699   9.040  71.085  1.00  0.00    -0.203 C  
BRANCH  19  20
HETATM   20  C   UNL     1      -9.417   9.736  69.937  1.00  0.00    -0.231 C  
BRANCH  20  21
HETATM   21  O   UNL     1      -8.479  10.534  69.217  1.00  0.00    -0.157 OA 
BRANCH  21  22
HETATM   22  C   UNL     1      -7.527   9.725  68.530  1.00  0.00    -0.079 C  
BRANCH  22  23
HETATM   23  C   UNL     1      -7.290  10.304  67.141  1.00  0.00    -0.091 C  
BRANCH  23  24
HETATM   24  O   UNL     1      -7.488   9.280  66.168  1.00  0.00    -0.094 OA 
BRANCH  24  25
HETATM   25  C   UNL     1      -8.202   9.775  65.037  1.00  0.00    -0.142 C  
BRANCH  25  26
HETATM   26  C   UNL     1      -9.588  10.220  65.480  1.00  0.00    -0.242 C  
BRANCH  26  27
HETATM   27  O   UNL     1      -9.913  11.444  64.827  1.00  0.00    -0.241 OA 
BRANCH  27  28
HETATM   28  C   UNL     1     -10.858  11.235  63.780  1.00  0.00    -0.350 C  
BRANCH  28  29
HETATM   29  C   UNL     1     -11.429  12.578  63.352  1.00  0.00    -0.452 C  
BRANCH  29  30
HETATM   30  O   UNL     1     -12.561  12.878  64.163  1.00  0.00    -0.613 OA 
BRANCH  30  31
HETATM   31  C   UNL     1     -12.453  14.178  64.737  1.00  0.00    -0.373 C  
BRANCH  31  32
HETATM   32  C   UNL     1     -12.263  14.041  66.240  1.00  0.00    -0.462 C  
BRANCH  32  33
HETATM   33  O   UNL     1     -12.394  12.669  66.599  1.00  0.00    -0.474 OA 
BRANCH  33  34
HETATM   34  C   UNL     1     -11.767  12.403  67.850  1.00  0.00    -0.360 C  
BRANCH  34  35
HETATM   35  C   UNL     1     -12.035  13.567  68.793  1.00  0.00    -0.339 C  
BRANCH  35  36
HETATM   36  O   UNL     1     -10.834  13.881  69.494  1.00  0.00    -0.144 OA 
BRANCH  36  37
HETATM   37  C   UNL     1     -10.589  15.285  69.493  1.00  0.00    -0.267 C  
BRANCH  37  38
HETATM   38  C   UNL     1      -9.086  15.525  69.471  1.00  0.00    -0.260 C  
BRANCH  38  39
HETATM   39  O   UNL     1      -8.757  16.324  68.338  1.00  0.00    -0.190 OA 
BRANCH  39  40
HETATM   40  C   UNL     1      -8.995  15.618  67.121  1.00  0.00    -0.214 C  
BRANCH  40  41
HETATM   41  C   UNL     1      -9.562  16.583  66.089  1.00  0.00    -0.315 C  
BRANCH  41  42
HETATM   42  O   UNL     1     -10.280  17.619  66.755  1.00  0.00    -0.312 OA 
HETATM   43  C   UNL     1      -9.750  18.900  66.440  1.00  0.00    -0.363 C  
ENDBRANCH  41  42
ENDBRANCH  40  41
ENDBRANCH  39  40
ENDBRANCH  38  39
ENDBRANCH  37  38
ENDBRANCH  36  37
ENDBRANCH  35  36
ENDBRANCH  34  35
ENDBRANCH  33  34
ENDBRANCH  32  33
ENDBRANCH  31  32
ENDBRANCH  30  31
ENDBRANCH  29  30
ENDBRANCH  28  29
ENDBRANCH  27  28
ENDBRANCH  26  27
ENDBRANCH  25  26
ENDBRANCH  24  25
ENDBRANCH  23  24
ENDBRANCH  22  23
ENDBRANCH  21  22
ENDBRANCH  20  21
ENDBRANCH  19  20
ENDBRANCH  18  19
ENDBRANCH  17  18
ENDBRANCH  16  17
ENDBRANCH  15  16
ENDBRANCH  13  15
ENDBRANCH  10  13
ENDBRANCH   5   7
ENDBRANCH   4   5
ENDBRANCH   3   4
ENDBRANCH   2   3
TORSDOF 33
ENDMDL
MODEL       78
REMARK 921   NORMALIZED FREE ENERGY PREDICTED BY IDOCK:   -3.79 KCAL/MOL
REMARK 922        TOTAL FREE ENERGY PREDICTED BY IDOCK:  -13.89 KCAL/MOL
REMARK 923 INTER-LIGAND FREE ENERGY PREDICTED BY IDOCK:  -10.90 KCAL/MOL
REMARK 924 INTRA-LIGAND FREE ENERGY PREDICTED BY IDOCK:   -2.99 KCAL/MOL
REMARK 927      BINDING AFFINITY PREDICTED BY RF-SCORE:    0.00 PKD
ROOT
HETATM    1  C   UNL     1     -11.534   5.610  72.546  1.00  0.00    -0.335 C  
HETATM    2  C   UNL     1     -12.038   6.695  71.614  1.00  0.00    -0.404 C  
ENDROOT
BRANCH   2   3
HETATM    3  C   UNL     1     -12.122   8.058  72.307  1.00  0.00    -0.392 C  
BRANCH   3   4
HETATM    4  C   UNL     1     -13.353   8.807  71.809  1.00  0.00    -0.378 C  
BRANCH   4   5
HETATM    5  N   UNL     1     -13.491  10.107  72.455  1.00  0.00    -0.594 NA 
HETATM    6  H   UNL     1     -13.830  10.186  73.414  1.00  0.00     0.000 HD 
BRANCH   5   7
HETATM    7  C   UNL     1     -13.142  11.248  71.713  1.00  0.00    -0.422 A  
HETATM    8  C   UNL     1     -12.327  11.199  70.574  1.00  0.00    -0.454 A  
HETATM    9  C   UNL     1     -11.937  12.359  69.906  1.00  0.00    -0.369 A  
HETATM   10  C   UNL     1     -12.325  13.614  70.380  1.00  0.00    -0.415 A  
HETATM   11  C   UNL     1     -13.512  12.513  72.192  1.00  0.00    -0.523 A  
HETATM   12  C   UNL     1     -13.116  13.689  71.533  1.00  0.00    -0.431 A  
BRANCH  10  13
HETATM   13  C   UNL     1     -11.842  14.803  69.633  1.00  0.00    -0.319 C  
HETATM   14  O   UNL     1     -12.181  15.946  69.903  1.00  0.00    -0.319 OA 
BRANCH  13  15
HETATM   15  O   UNL     1     -11.019  14.446  68.621  1.00  0.00    -0.233 OA 
BRANCH  15  16
HETATM   16  C   UNL     1     -11.540  14.707  67.304  1.00  0.00    -0.387 C  
BRANCH  16  17
HETATM   17  C   UNL     1     -10.770  15.833  66.615  1.00  0.00    -0.287 C  
BRANCH  17  18
HETATM   18  O   UNL     1      -9.511  16.013  67.271  1.00  0.00    -0.213 OA 
BRANCH  18  19
HETATM   19  C   UNL     1      -9.218  17.396  67.460  1.00  0.00    -0.233 C  
BRANCH  19  20
HETATM   20  C   UNL     1      -8.083  17.543  68.464  1.00  0.00    -0.275 C  
BRANCH  20  21
HETATM   21  O   UNL     1      -8.027  16.372  69.277  1.00  0.00    -0.233 OA 
BRANCH  21  22
HETATM   22  C   UNL     1      -6.686  15.919  69.447  1.00  0.00    -0.189 C  
BRANCH  22  23
HETATM   23  C   UNL     1      -6.633  14.415  69.216  1.00  0.00    -0.122 C  
BRANCH  23  24
HETATM   24  O   UNL     1      -6.244  14.163  67.867  1.00  0.00    -0.135 OA 
BRANCH  24  25
HETATM   25  C   UNL     1      -6.684  12.877  67.435  1.00  0.00    -0.124 C  
BRANCH  25  26
HETATM   26  C   UNL     1      -8.189  12.774  67.635  1.00  0.00    -0.175 C  
BRANCH  26  27
HETATM   27  O   UNL     1      -8.829  12.804  66.362  1.00  0.00    -0.106 OA 
BRANCH  27  28
HETATM   28  C   UNL     1      -9.650  11.654  66.171  1.00  0.00    -0.232 C  
BRANCH  28  29
HETATM   29  C   UNL     1     -10.014  11.073  67.529  1.00  0.00    -0.174 C  
BRANCH  29  30
HETATM   30  O   UNL     1     -10.916   9.986  67.339  1.00  0.00    -0.283 OA 
BRANCH  30  31
HETATM   31  C   UNL     1     -10.336   8.973  66.522  1.00  0.00    -0.193 C  
BRANCH  31  32
HETATM   32  C   UNL     1     -10.599   7.616  67.155  1.00  0.00    -0.340 C  
BRANCH  32  33
HETATM   33  O   UNL     1     -10.136   7.637  68.502  1.00  0.00    -0.178 OA 
BRANCH  33  34
HETATM   34  C   UNL     1      -8.713   7.609  68.555  1.00  0.00    -0.128 C  
BRANCH  34  35
HETATM   35  C   UNL     1      -8.280   7.128  69.933  1.00  0.00    -0.133 C  
BRANCH  35  36
HETATM   36  O   UNL     1      -8.923   5.887  70.213  1.00  0.00    -0.143 OA 
BRANCH  36  37
HETATM   37  C   UNL     1      -8.389   4.837  69.411  1.00  0.00    -0.076 C  
BRANCH  37  38
HETATM   38  C   UNL     1      -9.517   3.898  69.009  1.00  0.00    -0.170 C  
BRANCH  38  39
HETATM   39  O   UNL     1      -9.246   3.370  67.714  1.00  0.00    -0.156 OA 
BRANCH  39  40
HETATM   40  C   UNL     1      -9.750   4.228  66.690  1.00  0.00    -0.219 C  
BRANCH  40  41
HETATM   41  C   UNL     1      -9.101   3.855  65.365  1.00  0.00    -0.143 C  
BRANCH  41  42
HETATM   42  O   UNL     1      -8.901   5.034  64.588  1.00  0.00    -0.153 OA 
HETATM   43  C   UNL     1      -7.988   5.920  65.219  1.00  0.00    -0.115 C  
ENDBRANCH  41  42
ENDBRANCH  40  41
ENDBRANCH  39  40
ENDBRANCH  38  39
ENDBRANCH  37  38
ENDBRANCH  36  37
ENDBRANCH  35  36
ENDBRANCH  34  35
ENDBRANCH  33  34
ENDBRANCH  32  33
ENDBRANCH  31  32
ENDBRANCH  30  31
ENDBRANCH  29  30
ENDBRANCH  28  29
ENDBRANCH  27  28
ENDBRANCH  26  27
ENDBRANCH  25  26
ENDBRANCH  24  25
ENDBRANCH  23  24
ENDBRANCH  22  23
ENDBRANCH  21  22
ENDBRANCH  20  21
ENDBRANCH  19  20
ENDBRANCH  18  19
ENDBRANCH  17  18
ENDBRANCH  16  17
ENDBRANCH  15  16
ENDBRANCH  13  15
ENDBRANCH  10  13
ENDBRANCH   5   7
ENDBRANCH   4   5
ENDBRANCH   3   4
ENDBRANCH   2   3
TORSDOF 33
ENDMDL
MODEL       79
REMARK 921   NORMALIZED FREE ENERGY PREDICTED BY IDOCK:   -3.77 KCAL/MOL
REMARK 922        TOTAL FREE ENERGY PREDICTED BY IDOCK:  -13.85 KCAL/MOL
REMARK 923 INTER-LIGAND FREE ENERGY PREDICTED BY IDOCK:  -11.09 KCAL/MOL
REMARK 924 INTRA-LIGAND FREE ENERGY PREDICTED BY IDOCK:   -2.76 KCAL/MOL
REMARK 927      BINDING AFFINITY PREDICTED BY RF-SCORE:    0.00 PKD
ROOT
HETATM    1  C   UNL     1      -8.168  10.133  64.724  1.00  0.00    -0.161 C  
HETATM    2  C   UNL     1      -8.310   9.681  66.165  1.00  0.00    -0.122 C  
ENDROOT
BRANCH   2   3
HETATM    3  C   UNL     1      -9.447   8.671  66.344  1.00  0.00    -0.295 C  
BRANCH   3   4
HETATM    4  C   UNL     1      -8.950   7.276  65.980  1.00  0.00    -0.116 C  
BRANCH   4   5
HETATM    5  N   UNL     1      -9.957   6.257  66.254  1.00  0.00    -0.387 NA 
HETATM    6  H   UNL     1     -10.764   6.136  65.643  1.00  0.00     0.000 HD 
BRANCH   5   7
HETATM    7  C   UNL     1      -9.777   5.447  67.387  1.00  0.00    -0.140 A  
HETATM    8  C   UNL     1      -9.263   4.144  67.323  1.00  0.00    -0.178 A  
HETATM    9  C   UNL     1      -9.169   3.340  68.458  1.00  0.00    -0.233 A  
HETATM   10  C   UNL     1      -9.620   3.805  69.695  1.00  0.00    -0.242 A  
HETATM   11  C   UNL     1     -10.244   5.898  68.630  1.00  0.00    -0.243 A  
HETATM   12  C   UNL     1     -10.164   5.092  69.778  1.00  0.00    -0.357 A  
BRANCH  10  13
HETATM   13  C   UNL     1      -9.517   2.877  70.850  1.00  0.00    -0.157 C  
HETATM   14  O   UNL     1      -9.052   1.750  70.762  1.00  0.00    -0.066 OA 
BRANCH  13  15
HETATM   15  O   UNL     1     -10.026   3.433  71.973  1.00  0.00    -0.163 OA 
BRANCH  15  16
HETATM   16  C   UNL     1      -9.287   3.142  73.174  1.00  0.00    -0.090 C  
BRANCH  16  17
HETATM   17  C   UNL     1      -8.332   4.282  73.528  1.00  0.00    -0.093 C  
BRANCH  17  18
HETATM   18  O   UNL     1      -8.859   5.513  73.022  1.00  0.00    -0.121 OA 
BRANCH  18  19
HETATM   19  C   UNL     1      -9.570   6.226  74.031  1.00  0.00    -0.186 C  
BRANCH  19  20
HETATM   20  C   UNL     1     -10.544   7.197  73.377  1.00  0.00    -0.382 C  
BRANCH  20  21
HETATM   21  O   UNL     1     -11.394   6.474  72.487  1.00  0.00    -0.264 OA 
BRANCH  21  22
HETATM   22  C   UNL     1     -12.187   7.355  71.695  1.00  0.00    -0.330 C  
BRANCH  22  23
HETATM   23  C   UNL     1     -11.874   8.794  72.083  1.00  0.00    -0.366 C  
BRANCH  23  24
HETATM   24  O   UNL     1     -11.988   9.624  70.929  1.00  0.00    -0.285 OA 
BRANCH  24  25
HETATM   25  C   UNL     1     -13.268  10.250  70.868  1.00  0.00    -0.277 C  
BRANCH  25  26
HETATM   26  C   UNL     1     -13.317  11.380  71.886  1.00  0.00    -0.304 C  
BRANCH  26  27
HETATM   27  O   UNL     1     -12.316  12.341  71.562  1.00  0.00    -0.104 OA 
BRANCH  27  28
HETATM   28  C   UNL     1     -12.897  13.551  71.082  1.00  0.00    -0.309 C  
BRANCH  28  29
HETATM   29  C   UNL     1     -12.032  14.106  69.961  1.00  0.00    -0.340 C  
BRANCH  29  30
HETATM   30  O   UNL     1     -12.128  13.242  68.832  1.00  0.00    -0.316 OA 
BRANCH  30  31
HETATM   31  C   UNL     1     -10.890  12.582  68.583  1.00  0.00    -0.248 C  
BRANCH  31  32
HETATM   32  C   UNL     1     -10.823  12.196  67.113  1.00  0.00    -0.244 C  
BRANCH  32  33
HETATM   33  O   UNL     1     -12.147  12.127  66.593  1.00  0.00    -0.622 OA 
BRANCH  33  34
HETATM   34  C   UNL     1     -12.203  12.631  65.262  1.00  0.00    -0.475 C  
BRANCH  34  35
HETATM   35  C   UNL     1     -12.073  14.147  65.303  1.00  0.00    -0.405 C  
BRANCH  35  36
HETATM   36  O   UNL     1     -10.962  14.538  64.500  1.00  0.00    -0.347 OA 
BRANCH  36  37
HETATM   37  C   UNL     1     -10.125  15.462  65.192  1.00  0.00    -0.264 C  
BRANCH  37  38
HETATM   38  C   UNL     1     -10.819  15.890  66.478  1.00  0.00    -0.198 C  
BRANCH  38  39
HETATM   39  O   UNL     1      -9.961  15.620  67.583  1.00  0.00    -0.233 OA 
BRANCH  39  40
HETATM   40  C   UNL     1      -9.555  16.825  68.229  1.00  0.00    -0.244 C  
BRANCH  40  41
HETATM   41  C   UNL     1     -10.645  17.874  68.058  1.00  0.00    -0.356 C  
BRANCH  41  42
HETATM   42  O   UNL     1     -10.046  19.154  67.872  1.00  0.00    -0.344 OA 
HETATM   43  C   UNL     1     -10.268  19.643  66.556  1.00  0.00    -0.480 C  
ENDBRANCH  41  42
ENDBRANCH  40  41
ENDBRANCH  39  40
ENDBRANCH  38  39
ENDBRANCH  37  38
ENDBRANCH  36  37
ENDBRANCH  35  36
ENDBRANCH  34  35
ENDBRANCH  33  34
ENDBRANCH  32  33
ENDBRANCH  31  32
ENDBRANCH  30  31
ENDBRANCH  29  30
ENDBRANCH  28  29
ENDBRANCH  27  28
ENDBRANCH  26  27
ENDBRANCH  25  26
ENDBRANCH  24  25
ENDBRANCH  23  24
ENDBRANCH  22  23
ENDBRANCH  21  22
ENDBRANCH  20  21
ENDBRANCH  19  20
ENDBRANCH  18  19
ENDBRANCH  17  18
ENDBRANCH  16  17
ENDBRANCH  15  16
ENDBRANCH  13  15
ENDBRANCH  10  13
ENDBRANCH   5   7
ENDBRANCH   4   5
ENDBRANCH   3   4
ENDBRANCH   2   3
TORSDOF 33
ENDMDL
MODEL       80
REMARK 921   NORMALIZED FREE ENERGY PREDICTED BY IDOCK:   -3.77 KCAL/MOL
REMARK 922        TOTAL FREE ENERGY PREDICTED BY IDOCK:  -13.84 KCAL/MOL
REMARK 923 INTER-LIGAND FREE ENERGY PREDICTED BY IDOCK:  -11.07 KCAL/MOL
REMARK 924 INTRA-LIGAND FREE ENERGY PREDICTED BY IDOCK:   -2.77 KCAL/MOL
REMARK 927      BINDING AFFINITY PREDICTED BY RF-SCORE:    0.00 PKD
ROOT
HETATM    1  C   UNL     1      -5.651  19.139  65.053  1.00  0.00    -0.247 C  
HETATM    2  C   UNL     1      -6.924  19.905  65.361  1.00  0.00    -0.323 C  
ENDROOT
BRANCH   2   3
HETATM    3  C   UNL     1      -6.785  20.774  66.613  1.00  0.00    -0.339 C  
BRANCH   3   4
HETATM    4  C   UNL     1      -7.799  20.325  67.660  1.00  0.00    -0.285 C  
BRANCH   4   5
HETATM    5  N   UNL     1      -7.442  19.035  68.238  1.00  0.00    -0.281 NA 
HETATM    6  H   UNL     1      -6.483  18.829  68.517  1.00  0.00     0.000 HD 
BRANCH   5   7
HETATM    7  C   UNL     1      -8.464  18.084  68.397  1.00  0.00    -0.298 A  
HETATM    8  C   UNL     1      -8.238  16.797  68.903  1.00  0.00    -0.224 A  
HETATM    9  C   UNL     1      -9.262  15.852  68.977  1.00  0.00    -0.242 A  
HETATM   10  C   UNL     1     -10.542  16.158  68.512  1.00  0.00    -0.284 A  
HETATM   11  C   UNL     1      -9.749  18.375  67.916  1.00  0.00    -0.325 A  
HETATM   12  C   UNL     1     -10.784  17.428  67.976  1.00  0.00    -0.359 A  
BRANCH  10  13
HETATM   13  C   UNL     1     -11.569  15.088  68.594  1.00  0.00    -0.325 C  
HETATM   14  O   UNL     1     -11.744  14.403  69.591  1.00  0.00    -0.272 OA 
BRANCH  13  15
HETATM   15  O   UNL     1     -12.242  14.963  67.427  1.00  0.00    -0.150 OA 
BRANCH  15  16
HETATM   16  C   UNL     1     -11.902  13.793  66.661  1.00  0.00    -0.412 C  
BRANCH  16  17
HETATM   17  C   UNL     1     -12.412  13.902  65.224  1.00  0.00    -0.478 C  
BRANCH  17  18
HETATM   18  O   UNL     1     -12.975  12.648  64.827  1.00  0.00    -0.816 OA 
BRANCH  18  19
HETATM   19  C   UNL     1     -12.535  12.271  63.524  1.00  0.00    -0.534 C  
BRANCH  19  20
HETATM   20  C   UNL     1     -11.013  12.212  63.500  1.00  0.00    -0.453 C  
BRANCH  20  21
HETATM   21  O   UNL     1     -10.586  10.993  64.106  1.00  0.00    -0.371 OA 
BRANCH  21  22
HETATM   22  C   UNL     1      -9.481  10.423  63.407  1.00  0.00    -0.315 C  
BRANCH  22  23
HETATM   23  C   UNL     1      -8.321  10.235  64.377  1.00  0.00    -0.166 C  
BRANCH  23  24
HETATM   24  O   UNL     1      -7.158   9.854  63.645  1.00  0.00    -0.115 OA 
BRANCH  24  25
HETATM   25  C   UNL     1      -6.418   8.851  64.338  1.00  0.00    -0.071 C  
BRANCH  25  26
HETATM   26  C   UNL     1      -7.144   7.520  64.210  1.00  0.00    -0.063 C  
BRANCH  26  27
HETATM   27  O   UNL     1      -7.407   7.009  65.514  1.00  0.00    -0.074 OA 
BRANCH  27  28
HETATM   28  C   UNL     1      -8.514   6.110  65.502  1.00  0.00    -0.149 C  
BRANCH  28  29
HETATM   29  C   UNL     1      -9.474   6.492  66.617  1.00  0.00    -0.159 C  
BRANCH  29  30
HETATM   30  O   UNL     1      -9.860   7.853  66.448  1.00  0.00    -0.216 OA 
BRANCH  30  31
HETATM   31  C   UNL     1     -10.755   8.266  67.477  1.00  0.00    -0.147 C  
BRANCH  31  32
HETATM   32  C   UNL     1     -10.560   9.753  67.734  1.00  0.00    -0.266 C  
BRANCH  32  33
HETATM   33  O   UNL     1     -11.807  10.322  68.120  1.00  0.00    -0.238 OA 
BRANCH  33  34
HETATM   34  C   UNL     1     -11.692  11.021  69.356  1.00  0.00    -0.323 C  
BRANCH  34  35
HETATM   35  C   UNL     1     -12.423  10.237  70.436  1.00  0.00    -0.219 C  
BRANCH  35  36
HETATM   36  O   UNL     1     -11.595  10.160  71.594  1.00  0.00    -0.267 OA 
BRANCH  36  37
HETATM   37  C   UNL     1     -11.473   8.816  72.053  1.00  0.00    -0.371 C  
BRANCH  37  38
HETATM   38  C   UNL     1      -9.999   8.443  72.107  1.00  0.00    -0.306 C  
BRANCH  38  39
HETATM   39  O   UNL     1      -9.479   8.401  70.781  1.00  0.00    -0.159 OA 
BRANCH  39  40
HETATM   40  C   UNL     1      -8.287   9.178  70.668  1.00  0.00    -0.205 C  
BRANCH  40  41
HETATM   41  C   UNL     1      -7.179   8.308  70.090  1.00  0.00    -0.055 C  
BRANCH  41  42
HETATM   42  O   UNL     1      -7.426   8.088  68.702  1.00  0.00    -0.093 OA 
HETATM   43  C   UNL     1      -6.753   9.047  67.899  1.00  0.00    -0.068 C  
ENDBRANCH  41  42
ENDBRANCH  40  41
ENDBRANCH  39  40
ENDBRANCH  38  39
ENDBRANCH  37  38
ENDBRANCH  36  37
ENDBRANCH  35  36
ENDBRANCH  34  35
ENDBRANCH  33  34
ENDBRANCH  32  33
ENDBRANCH  31  32
ENDBRANCH  30  31
ENDBRANCH  29  30
ENDBRANCH  28  29
ENDBRANCH  27  28
ENDBRANCH  26  27
ENDBRANCH  25  26
ENDBRANCH  24  25
ENDBRANCH  23  24
ENDBRANCH  22  23
ENDBRANCH  21  22
ENDBRANCH  20  21
ENDBRANCH  19  20
ENDBRANCH  18  19
ENDBRANCH  17  18
ENDBRANCH  16  17
ENDBRANCH  15  16
ENDBRANCH  13  15
ENDBRANCH  10  13
ENDBRANCH   5   7
ENDBRANCH   4   5
ENDBRANCH   3   4
ENDBRANCH   2   3
TORSDOF 33
ENDMDL
MODEL       81
REMARK 921   NORMALIZED FREE ENERGY PREDICTED BY IDOCK:   -3.77 KCAL/MOL
REMARK 922        TOTAL FREE ENERGY PREDICTED BY IDOCK:  -13.84 KCAL/MOL
REMARK 923 INTER-LIGAND FREE ENERGY PREDICTED BY IDOCK:  -10.76 KCAL/MOL
REMARK 924 INTRA-LIGAND FREE ENERGY PREDICTED BY IDOCK:   -3.07 KCAL/MOL
REMARK 927      BINDING AFFINITY PREDICTED BY RF-SCORE:    0.00 PKD
ROOT
HETATM    1  C   UNL     1     -12.751  14.749  73.495  1.00  0.00    -0.566 C  
HETATM    2  C   UNL     1     -13.616  14.005  72.495  1.00  0.00    -0.670 C  
ENDROOT
BRANCH   2   3
HETATM    3  C   UNL     1     -13.955  14.863  71.273  1.00  0.00    -0.489 C  
BRANCH   3   4
HETATM    4  C   UNL     1     -12.740  15.699  70.886  1.00  0.00    -0.445 C  
BRANCH   4   5
HETATM    5  N   UNL     1     -12.530  15.707  69.442  1.00  0.00    -0.557 NA 
HETATM    6  H   UNL     1     -13.304  15.868  68.798  1.00  0.00     0.000 HD 
BRANCH   5   7
HETATM    7  C   UNL     1     -11.226  15.487  68.969  1.00  0.00    -0.303 A  
HETATM    8  C   UNL     1     -10.080  15.765  69.727  1.00  0.00    -0.277 A  
HETATM    9  C   UNL     1      -8.799  15.606  69.199  1.00  0.00    -0.251 A  
HETATM   10  C   UNL     1      -8.625  15.195  67.876  1.00  0.00    -0.154 A  
HETATM   11  C   UNL     1     -11.041  15.092  67.636  1.00  0.00    -0.318 A  
HETATM   12  C   UNL     1      -9.755  14.940  67.090  1.00  0.00    -0.229 A  
BRANCH  10  13
HETATM   13  C   UNL     1      -7.231  15.083  67.376  1.00  0.00    -0.194 C  
HETATM   14  O   UNL     1      -6.538  16.052  67.105  1.00  0.00    -0.186 OA 
BRANCH  13  15
HETATM   15  O   UNL     1      -6.862  13.789  67.238  1.00  0.00    -0.194 OA 
BRANCH  15  16
HETATM   16  C   UNL     1      -6.462  13.146  68.462  1.00  0.00    -0.085 C  
BRANCH  16  17
HETATM   17  C   UNL     1      -6.657  11.632  68.384  1.00  0.00    -0.061 C  
BRANCH  17  18
HETATM   18  O   UNL     1      -8.042  11.324  68.580  1.00  0.00    -0.137 OA 
BRANCH  18  19
HETATM   19  C   UNL     1      -8.254   9.916  68.653  1.00  0.00    -0.108 C  
BRANCH  19  20
HETATM   20  C   UNL     1      -7.717   9.388  69.976  1.00  0.00    -0.123 C  
BRANCH  20  21
HETATM   21  O   UNL     1      -8.739   9.492  70.967  1.00  0.00    -0.260 OA 
BRANCH  21  22
HETATM   22  C   UNL     1      -8.989   8.235  71.590  1.00  0.00    -0.180 C  
BRANCH  22  23
HETATM   23  C   UNL     1     -10.392   8.242  72.184  1.00  0.00    -0.300 C  
BRANCH  23  24
HETATM   24  O   UNL     1     -11.321   8.647  71.180  1.00  0.00    -0.255 OA 
BRANCH  24  25
HETATM   25  C   UNL     1     -12.411   9.370  71.747  1.00  0.00    -0.391 C  
BRANCH  25  26
HETATM   26  C   UNL     1     -12.681  10.607  70.902  1.00  0.00    -0.404 C  
BRANCH  26  27
HETATM   27  O   UNL     1     -11.565  10.835  70.045  1.00  0.00    -0.277 OA 
BRANCH  27  28
HETATM   28  C   UNL     1     -11.822  11.905  69.139  1.00  0.00    -0.311 C  
BRANCH  28  29
HETATM   29  C   UNL     1     -11.518  11.438  67.723  1.00  0.00    -0.281 C  
BRANCH  29  30
HETATM   30  O   UNL     1     -12.237  12.256  66.804  1.00  0.00    -0.558 OA 
BRANCH  30  31
HETATM   31  C   UNL     1     -11.731  12.108  65.479  1.00  0.00    -0.324 C  
BRANCH  31  32
HETATM   32  C   UNL     1     -10.528  11.178  65.510  1.00  0.00    -0.256 C  
BRANCH  32  33
HETATM   33  O   UNL     1      -9.638  11.538  64.459  1.00  0.00    -0.222 OA 
BRANCH  33  34
HETATM   34  C   UNL     1      -9.471  10.465  63.537  1.00  0.00    -0.312 C  
BRANCH  34  35
HETATM   35  C   UNL     1      -8.718   9.336  64.227  1.00  0.00    -0.175 C  
BRANCH  35  36
HETATM   36  O   UNL     1      -8.027   8.571  63.242  1.00  0.00    -0.147 OA 
BRANCH  36  37
HETATM   37  C   UNL     1      -7.365   7.453  63.829  1.00  0.00    -0.089 C  
BRANCH  37  38
HETATM   38  C   UNL     1      -8.164   6.982  65.036  1.00  0.00    -0.090 C  
BRANCH  38  39
HETATM   39  O   UNL     1      -7.716   5.684  65.414  1.00  0.00    -0.081 OA 
BRANCH  39  40
HETATM   40  C   UNL     1      -8.380   5.231  66.594  1.00  0.00    -0.108 C  
BRANCH  40  41
HETATM   41  C   UNL     1      -9.865   5.072  66.299  1.00  0.00    -0.200 C  
BRANCH  41  42
HETATM   42  O   UNL     1     -10.570   4.865  67.521  1.00  0.00    -0.048 OA 
HETATM   43  C   UNL     1      -9.895   5.469  68.616  1.00  0.00    -0.148 C  
ENDBRANCH  41  42
ENDBRANCH  40  41
ENDBRANCH  39  40
ENDBRANCH  38  39
ENDBRANCH  37  38
ENDBRANCH  36  37
ENDBRANCH  35  36
ENDBRANCH  34  35
ENDBRANCH  33  34
ENDBRANCH  32  33
ENDBRANCH  31  32
ENDBRANCH  30  31
ENDBRANCH  29  30
ENDBRANCH  28  29
ENDBRANCH  27  28
ENDBRANCH  26  27
ENDBRANCH  25  26
ENDBRANCH  24  25
ENDBRANCH  23  24
ENDBRANCH  22  23
ENDBRANCH  21  22
ENDBRANCH  20  21
ENDBRANCH  19  20
ENDBRANCH  18  19
ENDBRANCH  17  18
ENDBRANCH  16  17
ENDBRANCH  15  16
ENDBRANCH  13  15
ENDBRANCH  10  13
ENDBRANCH   5   7
ENDBRANCH   4   5
ENDBRANCH   3   4
ENDBRANCH   2   3
TORSDOF 33
ENDMDL
MODEL       82
REMARK 921   NORMALIZED FREE ENERGY PREDICTED BY IDOCK:   -3.77 KCAL/MOL
REMARK 922        TOTAL FREE ENERGY PREDICTED BY IDOCK:  -13.83 KCAL/MOL
REMARK 923 INTER-LIGAND FREE ENERGY PREDICTED BY IDOCK:  -10.63 KCAL/MOL
REMARK 924 INTRA-LIGAND FREE ENERGY PREDICTED BY IDOCK:   -3.20 KCAL/MOL
REMARK 927      BINDING AFFINITY PREDICTED BY RF-SCORE:    0.00 PKD
ROOT
HETATM    1  C   UNL     1      -9.618   3.051  64.646  1.00  0.00    -0.138 C  
HETATM    2  C   UNL     1      -9.651   4.549  64.885  1.00  0.00    -0.126 C  
ENDROOT
BRANCH   2   3
HETATM    3  C   UNL     1     -10.333   4.908  66.207  1.00  0.00    -0.336 C  
BRANCH   3   4
HETATM    4  C   UNL     1      -9.538   4.319  67.367  1.00  0.00    -0.180 C  
BRANCH   4   5
HETATM    5  N   UNL     1      -8.166   4.813  67.386  1.00  0.00    -0.105 NA 
HETATM    6  H   UNL     1      -7.393   4.235  67.055  1.00  0.00     0.000 HD 
BRANCH   5   7
HETATM    7  C   UNL     1      -7.944   6.110  67.877  1.00  0.00    -0.110 A  
HETATM    8  C   UNL     1      -7.289   7.105  67.139  1.00  0.00    -0.090 A  
HETATM    9  C   UNL     1      -7.017   8.359  67.684  1.00  0.00    -0.075 A  
HETATM   10  C   UNL     1      -7.365   8.646  69.006  1.00  0.00    -0.077 A  
HETATM   11  C   UNL     1      -8.273   6.402  69.208  1.00  0.00    -0.115 A  
HETATM   12  C   UNL     1      -7.994   7.658  69.772  1.00  0.00    -0.116 A  
BRANCH  10  13
HETATM   13  C   UNL     1      -7.012   9.992  69.525  1.00  0.00    -0.078 C  
HETATM   14  O   UNL     1      -6.838  10.227  70.712  1.00  0.00    -0.334 OA 
BRANCH  13  15
HETATM   15  O   UNL     1      -6.943  10.901  68.526  1.00  0.00    -0.066 OA 
BRANCH  15  16
HETATM   16  C   UNL     1      -5.707  11.637  68.468  1.00  0.00    -0.045 C  
BRANCH  16  17
HETATM   17  C   UNL     1      -5.244  11.834  67.025  1.00  0.00    -0.115 C  
BRANCH  17  18
HETATM   18  O   UNL     1      -6.246  11.329  66.135  1.00  0.00    -0.115 OA 
BRANCH  18  19
HETATM   19  C   UNL     1      -5.673  10.500  65.127  1.00  0.00    -0.137 C  
BRANCH  19  20
HETATM   20  C   UNL     1      -6.778   9.926  64.252  1.00  0.00    -0.126 C  
BRANCH  20  21
HETATM   21  O   UNL     1      -7.993  10.626  64.518  1.00  0.00    -0.073 OA 
BRANCH  21  22
HETATM   22  C   UNL     1      -9.117   9.751  64.481  1.00  0.00    -0.249 C  
BRANCH  22  23
HETATM   23  C   UNL     1      -9.836   9.804  65.823  1.00  0.00    -0.290 C  
BRANCH  23  24
HETATM   24  O   UNL     1     -10.192   8.480  66.215  1.00  0.00    -0.237 OA 
BRANCH  24  25
HETATM   25  C   UNL     1     -10.730   8.459  67.535  1.00  0.00    -0.137 C  
BRANCH  25  26
HETATM   26  C   UNL     1     -10.970   9.890  67.997  1.00  0.00    -0.213 C  
BRANCH  26  27
HETATM   27  O   UNL     1     -10.837   9.948  69.414  1.00  0.00    -0.221 OA 
BRANCH  27  28
HETATM   28  C   UNL     1     -11.828  10.795  69.991  1.00  0.00    -0.344 C  
BRANCH  28  29
HETATM   29  C   UNL     1     -12.541  10.038  71.101  1.00  0.00    -0.381 C  
BRANCH  29  30
HETATM   30  O   UNL     1     -13.222  10.973  71.933  1.00  0.00    -0.473 OA 
BRANCH  30  31
HETATM   31  C   UNL     1     -13.032  12.307  71.470  1.00  0.00    -0.289 C  
BRANCH  31  32
HETATM   32  C   UNL     1     -13.831  13.255  72.351  1.00  0.00    -0.529 C  
BRANCH  32  33
HETATM   33  O   UNL     1     -12.928  14.105  73.052  1.00  0.00    -0.478 OA 
BRANCH  33  34
HETATM   34  C   UNL     1     -12.119  14.851  72.147  1.00  0.00    -0.344 C  
BRANCH  34  35
HETATM   35  C   UNL     1     -13.020  15.548  71.138  1.00  0.00    -0.496 C  
BRANCH  35  36
HETATM   36  O   UNL     1     -12.375  15.552  69.867  1.00  0.00    -0.357 OA 
BRANCH  36  37
HETATM   37  C   UNL     1     -11.101  14.918  69.932  1.00  0.00    -0.259 C  
BRANCH  37  38
HETATM   38  C   UNL     1     -10.522  14.824  68.528  1.00  0.00    -0.249 C  
BRANCH  38  39
HETATM   39  O   UNL     1     -11.579  14.936  67.579  1.00  0.00    -0.349 OA 
BRANCH  39  40
HETATM   40  C   UNL     1     -11.651  13.779  66.746  1.00  0.00    -0.370 C  
BRANCH  40  41
HETATM   41  C   UNL     1     -12.702  14.006  65.669  1.00  0.00    -0.481 C  
BRANCH  41  42
HETATM   42  O   UNL     1     -12.959  12.777  64.992  1.00  0.00    -0.811 OA 
HETATM   43  C   UNL     1     -12.194  12.673  63.800  1.00  0.00    -0.514 C  
ENDBRANCH  41  42
ENDBRANCH  40  41
ENDBRANCH  39  40
ENDBRANCH  38  39
ENDBRANCH  37  38
ENDBRANCH  36  37
ENDBRANCH  35  36
ENDBRANCH  34  35
ENDBRANCH  33  34
ENDBRANCH  32  33
ENDBRANCH  31  32
ENDBRANCH  30  31
ENDBRANCH  29  30
ENDBRANCH  28  29
ENDBRANCH  27  28
ENDBRANCH  26  27
ENDBRANCH  25  26
ENDBRANCH  24  25
ENDBRANCH  23  24
ENDBRANCH  22  23
ENDBRANCH  21  22
ENDBRANCH  20  21
ENDBRANCH  19  20
ENDBRANCH  18  19
ENDBRANCH  17  18
ENDBRANCH  16  17
ENDBRANCH  15  16
ENDBRANCH  13  15
ENDBRANCH  10  13
ENDBRANCH   5   7
ENDBRANCH   4   5
ENDBRANCH   3   4
ENDBRANCH   2   3
TORSDOF 33
ENDMDL
MODEL       83
REMARK 921   NORMALIZED FREE ENERGY PREDICTED BY IDOCK:   -3.76 KCAL/MOL
REMARK 922        TOTAL FREE ENERGY PREDICTED BY IDOCK:  -13.81 KCAL/MOL
REMARK 923 INTER-LIGAND FREE ENERGY PREDICTED BY IDOCK:  -12.09 KCAL/MOL
REMARK 924 INTRA-LIGAND FREE ENERGY PREDICTED BY IDOCK:   -1.72 KCAL/MOL
REMARK 927      BINDING AFFINITY PREDICTED BY RF-SCORE:    0.00 PKD
ROOT
HETATM    1  C   UNL     1      -7.494   3.568  65.597  1.00  0.00    -0.077 C  
HETATM    2  C   UNL     1      -7.449   3.000  67.003  1.00  0.00    -0.070 C  
ENDROOT
BRANCH   2   3
HETATM    3  C   UNL     1      -7.665   4.077  68.068  1.00  0.00    -0.067 C  
BRANCH   3   4
HETATM    4  C   UNL     1      -8.543   3.520  69.184  1.00  0.00    -0.074 C  
BRANCH   4   5
HETATM    5  N   UNL     1      -8.540   4.389  70.356  1.00  0.00    -0.076 NA 
HETATM    6  H   UNL     1      -7.702   4.502  70.926  1.00  0.00     0.000 HD 
BRANCH   5   7
HETATM    7  C   UNL     1      -9.730   5.064  70.673  1.00  0.00    -0.198 A  
HETATM    8  C   UNL     1     -10.531   5.695  69.712  1.00  0.00    -0.377 A  
HETATM    9  C   UNL     1     -11.666   6.422  70.071  1.00  0.00    -0.345 A  
HETATM   10  C   UNL     1     -12.017   6.568  71.414  1.00  0.00    -0.371 A  
HETATM   11  C   UNL     1     -10.081   5.232  72.021  1.00  0.00    -0.247 A  
HETATM   12  C   UNL     1     -11.216   5.971  72.394  1.00  0.00    -0.338 A  
BRANCH  10  13
HETATM   13  C   UNL     1     -13.220   7.385  71.717  1.00  0.00    -0.318 C  
HETATM   14  O   UNL     1     -14.307   7.198  71.189  1.00  0.00    -0.301 OA 
BRANCH  13  15
HETATM   15  O   UNL     1     -12.940   8.359  72.613  1.00  0.00    -0.249 OA 
BRANCH  15  16
HETATM   16  C   UNL     1     -12.127   9.430  72.100  1.00  0.00    -0.223 C  
BRANCH  16  17
HETATM   17  C   UNL     1     -12.955  10.404  71.263  1.00  0.00    -0.419 C  
BRANCH  17  18
HETATM   18  O   UNL     1     -12.251  10.703  70.053  1.00  0.00    -0.304 OA 
BRANCH  18  19
HETATM   19  C   UNL     1     -10.855  10.446  70.189  1.00  0.00    -0.271 C  
BRANCH  19  20
HETATM   20  C   UNL     1     -10.385   9.570  69.036  1.00  0.00    -0.206 C  
BRANCH  20  21
HETATM   21  O   UNL     1     -10.965  10.047  67.823  1.00  0.00    -0.283 OA 
BRANCH  21  22
HETATM   22  C   UNL     1      -9.994  10.145  66.784  1.00  0.00    -0.211 C  
BRANCH  22  23
HETATM   23  C   UNL     1      -9.426  11.559  66.764  1.00  0.00    -0.189 C  
BRANCH  23  24
HETATM   24  O   UNL     1      -9.396  12.031  65.419  1.00  0.00    -0.131 OA 
BRANCH  24  25
HETATM   25  C   UNL     1      -9.418  10.948  64.491  1.00  0.00    -0.244 C  
BRANCH  25  26
HETATM   26  C   UNL     1     -10.617  11.108  63.569  1.00  0.00    -0.324 C  
BRANCH  26  27
HETATM   27  O   UNL     1     -10.826  12.495  63.316  1.00  0.00    -0.406 OA 
BRANCH  27  28
HETATM   28  C   UNL     1     -12.205  12.839  63.434  1.00  0.00    -0.504 C  
BRANCH  28  29
HETATM   29  C   UNL     1     -12.562  12.953  64.908  1.00  0.00    -0.458 C  
BRANCH  29  30
HETATM   30  O   UNL     1     -12.850  14.316  65.209  1.00  0.00    -0.630 OA 
BRANCH  30  31
HETATM   31  C   UNL     1     -12.192  15.193  64.299  1.00  0.00    -0.240 C  
BRANCH  31  32
HETATM   32  C   UNL     1     -11.005  15.834  65.001  1.00  0.00    -0.417 C  
BRANCH  32  33
HETATM   33  O   UNL     1     -11.033  17.239  64.768  1.00  0.00    -0.950 OA 
BRANCH  33  34
HETATM   34  C   UNL     1     -10.214  17.931  65.705  1.00  0.00    -0.129 C  
BRANCH  34  35
HETATM   35  C   UNL     1     -10.774  19.331  65.910  1.00  0.00    -0.372 C  
BRANCH  35  36
HETATM   36  O   UNL     1     -10.053  19.969  66.962  1.00  0.00    -0.405 OA 
BRANCH  36  37
HETATM   37  C   UNL     1      -8.708  19.504  67.021  1.00  0.00    -0.305 C  
BRANCH  37  38
HETATM   38  C   UNL     1      -8.357  19.185  68.467  1.00  0.00    -0.364 C  
BRANCH  38  39
HETATM   39  O   UNL     1      -9.011  17.979  68.851  1.00  0.00    -0.246 OA 
BRANCH  39  40
HETATM   40  C   UNL     1      -8.166  16.847  68.650  1.00  0.00    -0.254 C  
BRANCH  40  41
HETATM   41  C   UNL     1      -6.755  17.191  69.104  1.00  0.00    -0.238 C  
BRANCH  41  42
HETATM   42  O   UNL     1      -5.818  16.716  68.140  1.00  0.00    -0.109 OA 
HETATM   43  C   UNL     1      -6.443  16.472  66.888  1.00  0.00    -0.155 C  
ENDBRANCH  41  42
ENDBRANCH  40  41
ENDBRANCH  39  40
ENDBRANCH  38  39
ENDBRANCH  37  38
ENDBRANCH  36  37
ENDBRANCH  35  36
ENDBRANCH  34  35
ENDBRANCH  33  34
ENDBRANCH  32  33
ENDBRANCH  31  32
ENDBRANCH  30  31
ENDBRANCH  29  30
ENDBRANCH  28  29
ENDBRANCH  27  28
ENDBRANCH  26  27
ENDBRANCH  25  26
ENDBRANCH  24  25
ENDBRANCH  23  24
ENDBRANCH  22  23
ENDBRANCH  21  22
ENDBRANCH  20  21
ENDBRANCH  19  20
ENDBRANCH  18  19
ENDBRANCH  17  18
ENDBRANCH  16  17
ENDBRANCH  15  16
ENDBRANCH  13  15
ENDBRANCH  10  13
ENDBRANCH   5   7
ENDBRANCH   4   5
ENDBRANCH   3   4
ENDBRANCH   2   3
TORSDOF 33
ENDMDL
MODEL       84
REMARK 921   NORMALIZED FREE ENERGY PREDICTED BY IDOCK:   -3.75 KCAL/MOL
REMARK 922        TOTAL FREE ENERGY PREDICTED BY IDOCK:  -13.77 KCAL/MOL
REMARK 923 INTER-LIGAND FREE ENERGY PREDICTED BY IDOCK:  -10.98 KCAL/MOL
REMARK 924 INTRA-LIGAND FREE ENERGY PREDICTED BY IDOCK:   -2.79 KCAL/MOL
REMARK 927      BINDING AFFINITY PREDICTED BY RF-SCORE:    0.00 PKD
ROOT
HETATM    1  C   UNL     1     -12.718  13.401  64.156  1.00  0.00    -0.078 C  
HETATM    2  C   UNL     1     -12.129  12.072  63.722  1.00  0.00    -0.599 C  
ENDROOT
BRANCH   2   3
HETATM    3  C   UNL     1     -11.049  11.576  64.687  1.00  0.00    -0.317 C  
BRANCH   3   4
HETATM    4  C   UNL     1     -11.246  12.231  66.050  1.00  0.00    -0.332 C  
BRANCH   4   5
HETATM    5  N   UNL     1      -9.983  12.379  66.765  1.00  0.00    -0.221 NA 
HETATM    6  H   UNL     1      -9.590  11.609  67.306  1.00  0.00     0.000 HD 
BRANCH   5   7
HETATM    7  C   UNL     1      -9.325  13.617  66.681  1.00  0.00    -0.254 A  
HETATM    8  C   UNL     1      -8.265  13.979  67.524  1.00  0.00    -0.195 A  
HETATM    9  C   UNL     1      -7.684  15.245  67.465  1.00  0.00    -0.200 A  
HETATM   10  C   UNL     1      -8.172  16.207  66.578  1.00  0.00    -0.343 A  
HETATM   11  C   UNL     1      -9.820  14.596  65.807  1.00  0.00    -0.359 A  
HETATM   12  C   UNL     1      -9.250  15.879  65.747  1.00  0.00    -0.241 A  
BRANCH  10  13
HETATM   13  C   UNL     1      -7.524  17.543  66.598  1.00  0.00    -0.245 C  
HETATM   14  O   UNL     1      -7.007  18.051  65.613  1.00  0.00    -0.450 OA 
BRANCH  13  15
HETATM   15  O   UNL     1      -7.558  18.086  67.836  1.00  0.00    -0.221 OA 
BRANCH  15  16
HETATM   16  C   UNL     1      -8.419  19.233  67.964  1.00  0.00    -0.317 C  
BRANCH  16  17
HETATM   17  C   UNL     1      -9.890  18.842  67.821  1.00  0.00    -0.333 C  
BRANCH  17  18
HETATM   18  O   UNL     1     -10.375  18.362  69.079  1.00  0.00    -0.302 OA 
BRANCH  18  19
HETATM   19  C   UNL     1     -10.273  16.942  69.165  1.00  0.00    -0.292 C  
BRANCH  19  20
HETATM   20  C   UNL     1     -11.535  16.307  68.596  1.00  0.00    -0.288 C  
BRANCH  20  21
HETATM   21  O   UNL     1     -12.208  15.599  69.636  1.00  0.00    -0.352 OA 
BRANCH  21  22
HETATM   22  C   UNL     1     -11.384  14.574  70.187  1.00  0.00    -0.197 C  
BRANCH  22  23
HETATM   23  C   UNL     1     -12.219  13.315  70.385  1.00  0.00    -0.332 C  
BRANCH  23  24
HETATM   24  O   UNL     1     -13.179  13.548  71.414  1.00  0.00    -0.331 OA 
BRANCH  24  25
HETATM   25  C   UNL     1     -13.505  12.341  72.099  1.00  0.00    -0.327 C  
BRANCH  25  26
HETATM   26  C   UNL     1     -12.911  11.163  71.340  1.00  0.00    -0.439 C  
BRANCH  26  27
HETATM   27  O   UNL     1     -13.047   9.986  72.131  1.00  0.00    -0.433 OA 
BRANCH  27  28
HETATM   28  C   UNL     1     -11.859   9.199  72.093  1.00  0.00    -0.263 C  
BRANCH  28  29
HETATM   29  C   UNL     1     -12.222   7.771  71.716  1.00  0.00    -0.306 C  
BRANCH  29  30
HETATM   30  O   UNL     1     -11.565   7.434  70.497  1.00  0.00    -0.283 OA 
BRANCH  30  31
HETATM   31  C   UNL     1     -10.750   6.275  70.655  1.00  0.00    -0.264 C  
BRANCH  31  32
HETATM   32  C   UNL     1     -10.429   5.706  69.282  1.00  0.00    -0.286 C  
BRANCH  32  33
HETATM   33  O   UNL     1     -11.382   6.196  68.344  1.00  0.00    -0.271 OA 
BRANCH  33  34
HETATM   34  C   UNL     1     -10.746   6.638  67.149  1.00  0.00    -0.370 C  
BRANCH  34  35
HETATM   35  C   UNL     1     -10.341   5.424  66.326  1.00  0.00    -0.200 C  
BRANCH  35  36
HETATM   36  O   UNL     1      -9.051   5.652  65.767  1.00  0.00    -0.159 OA 
BRANCH  36  37
HETATM   37  C   UNL     1      -8.523   6.909  66.184  1.00  0.00    -0.136 C  
BRANCH  37  38
HETATM   38  C   UNL     1      -7.031   6.756  66.447  1.00  0.00    -0.062 C  
BRANCH  38  39
HETATM   39  O   UNL     1      -6.307   7.522  65.488  1.00  0.00    -0.041 OA 
BRANCH  39  40
HETATM   40  C   UNL     1      -6.982   8.742  65.185  1.00  0.00    -0.079 C  
BRANCH  40  41
HETATM   41  C   UNL     1      -6.475   9.835  66.116  1.00  0.00    -0.076 C  
BRANCH  41  42
HETATM   42  O   UNL     1      -7.579  10.424  66.800  1.00  0.00    -0.104 OA 
HETATM   43  C   UNL     1      -7.493  10.209  68.202  1.00  0.00    -0.083 C  
ENDBRANCH  41  42
ENDBRANCH  40  41
ENDBRANCH  39  40
ENDBRANCH  38  39
ENDBRANCH  37  38
ENDBRANCH  36  37
ENDBRANCH  35  36
ENDBRANCH  34  35
ENDBRANCH  33  34
ENDBRANCH  32  33
ENDBRANCH  31  32
ENDBRANCH  30  31
ENDBRANCH  29  30
ENDBRANCH  28  29
ENDBRANCH  27  28
ENDBRANCH  26  27
ENDBRANCH  25  26
ENDBRANCH  24  25
ENDBRANCH  23  24
ENDBRANCH  22  23
ENDBRANCH  21  22
ENDBRANCH  20  21
ENDBRANCH  19  20
ENDBRANCH  18  19
ENDBRANCH  17  18
ENDBRANCH  16  17
ENDBRANCH  15  16
ENDBRANCH  13  15
ENDBRANCH  10  13
ENDBRANCH   5   7
ENDBRANCH   4   5
ENDBRANCH   3   4
ENDBRANCH   2   3
TORSDOF 33
ENDMDL
MODEL       85
REMARK 921   NORMALIZED FREE ENERGY PREDICTED BY IDOCK:   -3.74 KCAL/MOL
REMARK 922        TOTAL FREE ENERGY PREDICTED BY IDOCK:  -13.76 KCAL/MOL
REMARK 923 INTER-LIGAND FREE ENERGY PREDICTED BY IDOCK:  -11.37 KCAL/MOL
REMARK 924 INTRA-LIGAND FREE ENERGY PREDICTED BY IDOCK:   -2.39 KCAL/MOL
REMARK 927      BINDING AFFINITY PREDICTED BY RF-SCORE:    0.00 PKD
ROOT
HETATM    1  C   UNL     1      -5.771  18.779  65.158  1.00  0.00    -0.272 C  
HETATM    2  C   UNL     1      -7.083  19.463  65.492  1.00  0.00    -0.238 C  
ENDROOT
BRANCH   2   3
HETATM    3  C   UNL     1      -6.924  20.512  66.596  1.00  0.00    -0.310 C  
BRANCH   3   4
HETATM    4  C   UNL     1      -7.795  20.131  67.788  1.00  0.00    -0.274 C  
BRANCH   4   5
HETATM    5  N   UNL     1      -7.441  18.820  68.318  1.00  0.00    -0.266 NA 
HETATM    6  H   UNL     1      -6.478  18.594  68.568  1.00  0.00     0.000 HD 
BRANCH   5   7
HETATM    7  C   UNL     1      -8.470  17.876  68.473  1.00  0.00    -0.298 A  
HETATM    8  C   UNL     1      -8.265  16.603  69.019  1.00  0.00    -0.190 A  
HETATM    9  C   UNL     1      -9.293  15.663  69.088  1.00  0.00    -0.252 A  
HETATM   10  C   UNL     1     -10.559  15.960  68.578  1.00  0.00    -0.263 A  
HETATM   11  C   UNL     1      -9.739  18.159  67.947  1.00  0.00    -0.302 A  
HETATM   12  C   UNL     1     -10.780  17.216  68.001  1.00  0.00    -0.372 A  
BRANCH  10  13
HETATM   13  C   UNL     1     -11.591  14.896  68.658  1.00  0.00    -0.318 C  
HETATM   14  O   UNL     1     -11.773  14.213  69.656  1.00  0.00    -0.278 OA 
BRANCH  13  15
HETATM   15  O   UNL     1     -12.262  14.774  67.490  1.00  0.00    -0.220 OA 
BRANCH  15  16
HETATM   16  C   UNL     1     -11.839  13.669  66.669  1.00  0.00    -0.409 C  
BRANCH  16  17
HETATM   17  C   UNL     1     -12.349  13.816  65.235  1.00  0.00    -0.464 C  
BRANCH  17  18
HETATM   18  O   UNL     1     -12.954  12.586  64.822  1.00  0.00    -0.827 OA 
BRANCH  18  19
HETATM   19  C   UNL     1     -12.575  12.245  63.490  1.00  0.00    -0.476 C  
BRANCH  19  20
HETATM   20  C   UNL     1     -11.058  12.278  63.368  1.00  0.00    -0.418 C  
BRANCH  20  21
HETATM   21  O   UNL     1     -10.511  11.168  64.080  1.00  0.00    -0.339 OA 
BRANCH  21  22
HETATM   22  C   UNL     1      -9.499  10.511  63.321  1.00  0.00    -0.325 C  
BRANCH  22  23
HETATM   23  C   UNL     1      -8.247  10.366  64.177  1.00  0.00    -0.118 C  
BRANCH  23  24
HETATM   24  O   UNL     1      -7.126  10.127  63.329  1.00  0.00    -0.132 OA 
BRANCH  24  25
HETATM   25  C   UNL     1      -6.310   9.074  63.837  1.00  0.00    -0.087 C  
BRANCH  25  26
HETATM   26  C   UNL     1      -7.088   7.768  63.775  1.00  0.00    -0.073 C  
BRANCH  26  27
HETATM   27  O   UNL     1      -7.129   7.190  65.077  1.00  0.00    -0.059 OA 
BRANCH  27  28
HETATM   28  C   UNL     1      -8.111   6.161  65.154  1.00  0.00    -0.133 C  
BRANCH  28  29
HETATM   29  C   UNL     1      -9.063   6.468  66.300  1.00  0.00    -0.148 C  
BRANCH  29  30
HETATM   30  O   UNL     1      -9.637   7.756  66.090  1.00  0.00    -0.146 OA 
BRANCH  30  31
HETATM   31  C   UNL     1     -10.578   8.072  67.113  1.00  0.00    -0.297 C  
BRANCH  31  32
HETATM   32  C   UNL     1     -10.308   9.483  67.613  1.00  0.00    -0.244 C  
BRANCH  32  33
HETATM   33  O   UNL     1     -11.550  10.112  67.913  1.00  0.00    -0.256 OA 
BRANCH  33  34
HETATM   34  C   UNL     1     -11.437  10.952  69.058  1.00  0.00    -0.302 C  
BRANCH  34  35
HETATM   35  C   UNL     1     -11.941  10.195  70.278  1.00  0.00    -0.233 C  
BRANCH  35  36
HETATM   36  O   UNL     1     -10.844   9.940  71.152  1.00  0.00    -0.309 OA 
BRANCH  36  37
HETATM   37  C   UNL     1     -10.676   8.543  71.375  1.00  0.00    -0.250 C  
BRANCH  37  38
HETATM   38  C   UNL     1     -11.991   7.833  71.083  1.00  0.00    -0.291 C  
BRANCH  38  39
HETATM   39  O   UNL     1     -11.723   6.480  70.729  1.00  0.00    -0.361 OA 
BRANCH  39  40
HETATM   40  C   UNL     1     -10.346   6.158  70.923  1.00  0.00    -0.215 C  
BRANCH  40  41
HETATM   41  C   UNL     1     -10.245   4.836  71.673  1.00  0.00    -0.179 C  
BRANCH  41  42
HETATM   42  O   UNL     1     -10.420   5.070  73.069  1.00  0.00    -0.177 OA 
HETATM   43  C   UNL     1     -11.107   3.994  73.691  1.00  0.00    -0.247 C  
ENDBRANCH  41  42
ENDBRANCH  40  41
ENDBRANCH  39  40
ENDBRANCH  38  39
ENDBRANCH  37  38
ENDBRANCH  36  37
ENDBRANCH  35  36
ENDBRANCH  34  35
ENDBRANCH  33  34
ENDBRANCH  32  33
ENDBRANCH  31  32
ENDBRANCH  30  31
ENDBRANCH  29  30
ENDBRANCH  28  29
ENDBRANCH  27  28
ENDBRANCH  26  27
ENDBRANCH  25  26
ENDBRANCH  24  25
ENDBRANCH  23  24
ENDBRANCH  22  23
ENDBRANCH  21  22
ENDBRANCH  20  21
ENDBRANCH  19  20
ENDBRANCH  18  19
ENDBRANCH  17  18
ENDBRANCH  16  17
ENDBRANCH  15  16
ENDBRANCH  13  15
ENDBRANCH  10  13
ENDBRANCH   5   7
ENDBRANCH   4   5
ENDBRANCH   3   4
ENDBRANCH   2   3
TORSDOF 33
ENDMDL
MODEL       86
REMARK 921   NORMALIZED FREE ENERGY PREDICTED BY IDOCK:   -3.74 KCAL/MOL
REMARK 922        TOTAL FREE ENERGY PREDICTED BY IDOCK:  -13.76 KCAL/MOL
REMARK 923 INTER-LIGAND FREE ENERGY PREDICTED BY IDOCK:  -10.56 KCAL/MOL
REMARK 924 INTRA-LIGAND FREE ENERGY PREDICTED BY IDOCK:   -3.20 KCAL/MOL
REMARK 927      BINDING AFFINITY PREDICTED BY RF-SCORE:    0.00 PKD
ROOT
HETATM    1  C   UNL     1     -13.206  15.846  73.134  1.00  0.00    -0.692 C  
HETATM    2  C   UNL     1     -13.179  14.335  72.995  1.00  0.00    -0.500 C  
ENDROOT
BRANCH   2   3
HETATM    3  C   UNL     1     -13.607  13.875  71.599  1.00  0.00    -0.415 C  
BRANCH   3   4
HETATM    4  C   UNL     1     -12.370  13.598  70.753  1.00  0.00    -0.371 C  
BRANCH   4   5
HETATM    5  N   UNL     1     -12.383  14.364  69.512  1.00  0.00    -0.509 NA 
HETATM    6  H   UNL     1     -12.685  15.338  69.497  1.00  0.00     0.000 HD 
BRANCH   5   7
HETATM    7  C   UNL     1     -11.966  13.716  68.338  1.00  0.00    -0.356 A  
HETATM    8  C   UNL     1     -11.946  14.341  67.084  1.00  0.00    -0.449 A  
HETATM    9  C   UNL     1     -11.598  13.645  65.927  1.00  0.00    -0.346 A  
HETATM   10  C   UNL     1     -11.291  12.284  65.984  1.00  0.00    -0.398 A  
HETATM   11  C   UNL     1     -11.673  12.344  68.383  1.00  0.00    -0.386 A  
HETATM   12  C   UNL     1     -11.333  11.631  67.221  1.00  0.00    -0.372 A  
BRANCH  10  13
HETATM   13  C   UNL     1     -10.965  11.606  64.704  1.00  0.00    -0.301 C  
HETATM   14  O   UNL     1     -11.402  11.972  63.622  1.00  0.00    -0.393 OA 
BRANCH  13  15
HETATM   15  O   UNL     1     -10.161  10.537  64.906  1.00  0.00    -0.328 OA 
BRANCH  15  16
HETATM   16  C   UNL     1      -9.522  10.034  63.718  1.00  0.00    -0.208 C  
BRANCH  16  17
HETATM   17  C   UNL     1      -8.133   9.476  64.028  1.00  0.00    -0.152 C  
BRANCH  17  18
HETATM   18  O   UNL     1      -8.260   8.370  64.927  1.00  0.00    -0.142 OA 
BRANCH  18  19
HETATM   19  C   UNL     1      -7.383   7.305  64.565  1.00  0.00    -0.080 C  
BRANCH  19  20
HETATM   20  C   UNL     1      -7.197   6.373  65.754  1.00  0.00    -0.078 C  
BRANCH  20  21
HETATM   21  O   UNL     1      -7.505   5.039  65.352  1.00  0.00    -0.071 OA 
BRANCH  21  22
HETATM   22  C   UNL     1      -8.888   4.897  65.035  1.00  0.00    -0.154 C  
BRANCH  22  23
HETATM   23  C   UNL     1      -9.570   4.088  66.131  1.00  0.00    -0.197 C  
BRANCH  23  24
HETATM   24  O   UNL     1     -10.646   4.851  66.673  1.00  0.00    -0.256 OA 
BRANCH  24  25
HETATM   25  C   UNL     1     -10.167   6.008  67.354  1.00  0.00    -0.189 C  
BRANCH  25  26
HETATM   26  C   UNL     1     -11.268   6.545  68.257  1.00  0.00    -0.162 C  
BRANCH  26  27
HETATM   27  O   UNL     1     -11.173   5.914  69.531  1.00  0.00    -0.389 OA 
BRANCH  27  28
HETATM   28  C   UNL     1     -11.728   6.735  70.556  1.00  0.00    -0.375 C  
BRANCH  28  29
HETATM   29  C   UNL     1     -11.357   6.154  71.912  1.00  0.00    -0.296 C  
BRANCH  29  30
HETATM   30  O   UNL     1     -11.485   7.172  72.900  1.00  0.00    -0.248 OA 
BRANCH  30  31
HETATM   31  C   UNL     1     -10.385   7.149  73.807  1.00  0.00    -0.347 C  
BRANCH  31  32
HETATM   32  C   UNL     1      -9.143   6.680  73.065  1.00  0.00    -0.127 C  
BRANCH  32  33
HETATM   33  O   UNL     1      -8.100   7.629  73.267  1.00  0.00    -0.113 OA 
BRANCH  33  34
HETATM   34  C   UNL     1      -7.860   8.387  72.084  1.00  0.00    -0.119 C  
BRANCH  34  35
HETATM   35  C   UNL     1      -7.956   7.464  70.879  1.00  0.00    -0.097 C  
BRANCH  35  36
HETATM   36  O   UNL     1      -8.417   8.213  69.757  1.00  0.00    -0.122 OA 
BRANCH  36  37
HETATM   37  C   UNL     1      -7.417   9.117  69.295  1.00  0.00    -0.075 C  
BRANCH  37  38
HETATM   38  C   UNL     1      -7.970   9.909  68.119  1.00  0.00    -0.100 C  
BRANCH  38  39
HETATM   39  O   UNL     1      -6.914  10.654  67.519  1.00  0.00    -0.080 OA 
BRANCH  39  40
HETATM   40  C   UNL     1      -7.417  11.793  66.821  1.00  0.00    -0.057 C  
BRANCH  40  41
HETATM   41  C   UNL     1      -7.915  12.816  67.832  1.00  0.00    -0.158 C  
BRANCH  41  42
HETATM   42  O   UNL     1      -8.434  13.950  67.139  1.00  0.00    -0.203 OA 
HETATM   43  C   UNL     1      -8.485  15.092  67.983  1.00  0.00    -0.148 C  
ENDBRANCH  41  42
ENDBRANCH  40  41
ENDBRANCH  39  40
ENDBRANCH  38  39
ENDBRANCH  37  38
ENDBRANCH  36  37
ENDBRANCH  35  36
ENDBRANCH  34  35
ENDBRANCH  33  34
ENDBRANCH  32  33
ENDBRANCH  31  32
ENDBRANCH  30  31
ENDBRANCH  29  30
ENDBRANCH  28  29
ENDBRANCH  27  28
ENDBRANCH  26  27
ENDBRANCH  25  26
ENDBRANCH  24  25
ENDBRANCH  23  24
ENDBRANCH  22  23
ENDBRANCH  21  22
ENDBRANCH  20  21
ENDBRANCH  19  20
ENDBRANCH  18  19
ENDBRANCH  17  18
ENDBRANCH  16  17
ENDBRANCH  15  16
ENDBRANCH  13  15
ENDBRANCH  10  13
ENDBRANCH   5   7
ENDBRANCH   4   5
ENDBRANCH   3   4
ENDBRANCH   2   3
TORSDOF 33
ENDMDL
MODEL       87
REMARK 921   NORMALIZED FREE ENERGY PREDICTED BY IDOCK:   -3.74 KCAL/MOL
REMARK 922        TOTAL FREE ENERGY PREDICTED BY IDOCK:  -13.74 KCAL/MOL
REMARK 923 INTER-LIGAND FREE ENERGY PREDICTED BY IDOCK:  -10.10 KCAL/MOL
REMARK 924 INTRA-LIGAND FREE ENERGY PREDICTED BY IDOCK:   -3.64 KCAL/MOL
REMARK 927      BINDING AFFINITY PREDICTED BY RF-SCORE:    0.00 PKD
ROOT
HETATM    1  C   UNL     1     -10.323  11.157  64.435  1.00  0.00    -0.407 C  
HETATM    2  C   UNL     1     -10.847  12.560  64.673  1.00  0.00    -0.343 C  
ENDROOT
BRANCH   2   3
HETATM    3  C   UNL     1     -12.130  12.564  65.508  1.00  0.00    -0.481 C  
BRANCH   3   4
HETATM    4  C   UNL     1     -11.773  12.518  66.990  1.00  0.00    -0.367 C  
BRANCH   4   5
HETATM    5  N   UNL     1     -12.126  11.236  67.589  1.00  0.00    -0.432 NA 
HETATM    6  H   UNL     1     -13.098  10.994  67.783  1.00  0.00     0.000 HD 
BRANCH   5   7
HETATM    7  C   UNL     1     -11.083  10.345  67.891  1.00  0.00    -0.299 A  
HETATM    8  C   UNL     1     -10.772   9.234  67.097  1.00  0.00    -0.222 A  
HETATM    9  C   UNL     1      -9.779   8.327  67.466  1.00  0.00    -0.212 A  
HETATM   10  C   UNL     1      -9.086   8.487  68.668  1.00  0.00    -0.139 A  
HETATM   11  C   UNL     1     -10.394  10.487  69.105  1.00  0.00    -0.240 A  
HETATM   12  C   UNL     1      -9.400   9.573  69.493  1.00  0.00    -0.199 A  
BRANCH  10  13
HETATM   13  C   UNL     1      -8.068   7.460  69.008  1.00  0.00    -0.127 C  
HETATM   14  O   UNL     1      -7.672   6.622  68.211  1.00  0.00    -0.102 OA 
BRANCH  13  15
HETATM   15  O   UNL     1      -7.677   7.565  70.298  1.00  0.00    -0.089 OA 
BRANCH  15  16
HETATM   16  C   UNL     1      -7.082   6.373  70.843  1.00  0.00    -0.070 C  
BRANCH  16  17
HETATM   17  C   UNL     1      -8.123   5.503  71.546  1.00  0.00    -0.118 C  
BRANCH  17  18
HETATM   18  O   UNL     1      -8.397   4.351  70.741  1.00  0.00    -0.076 OA 
BRANCH  18  19
HETATM   19  C   UNL     1      -9.721   4.392  70.212  1.00  0.00    -0.211 C  
BRANCH  19  20
HETATM   20  C   UNL     1     -10.564   5.365  71.026  1.00  0.00    -0.205 C  
BRANCH  20  21
HETATM   21  O   UNL     1     -11.440   6.068  70.147  1.00  0.00    -0.356 OA 
BRANCH  21  22
HETATM   22  C   UNL     1     -12.193   7.058  70.844  1.00  0.00    -0.342 C  
BRANCH  22  23
HETATM   23  C   UNL     1     -11.735   7.102  72.297  1.00  0.00    -0.258 C  
BRANCH  23  24
HETATM   24  O   UNL     1     -12.120   8.350  72.870  1.00  0.00    -0.277 OA 
BRANCH  24  25
HETATM   25  C   UNL     1     -12.440   9.304  71.860  1.00  0.00    -0.382 C  
BRANCH  25  26
HETATM   26  C   UNL     1     -13.698  10.057  72.270  1.00  0.00    -0.101 C  
BRANCH  26  27
HETATM   27  O   UNL     1     -13.387  11.441  72.406  1.00  0.00    -0.266 OA 
BRANCH  27  28
HETATM   28  C   UNL     1     -12.977  12.002  71.161  1.00  0.00    -0.158 C  
BRANCH  28  29
HETATM   29  C   UNL     1     -13.066  13.518  71.248  1.00  0.00    -0.262 C  
BRANCH  29  30
HETATM   30  O   UNL     1     -12.248  14.087  70.229  1.00  0.00    -0.319 OA 
BRANCH  30  31
HETATM   31  C   UNL     1     -12.312  15.511  70.253  1.00  0.00    -0.396 C  
BRANCH  31  32
HETATM   32  C   UNL     1     -11.007  16.074  69.712  1.00  0.00    -0.334 C  
BRANCH  32  33
HETATM   33  O   UNL     1     -11.171  16.373  68.329  1.00  0.00    -0.355 OA 
BRANCH  33  34
HETATM   34  C   UNL     1     -10.876  17.741  68.062  1.00  0.00    -0.207 C  
BRANCH  34  35
HETATM   35  C   UNL     1     -10.071  17.829  66.773  1.00  0.00    -0.349 C  
BRANCH  35  36
HETATM   36  O   UNL     1      -8.707  17.527  67.058  1.00  0.00    -0.227 OA 
BRANCH  36  37
HETATM   37  C   UNL     1      -8.204  16.528  66.174  1.00  0.00    -0.244 C  
BRANCH  37  38
HETATM   38  C   UNL     1      -7.751  15.327  66.992  1.00  0.00    -0.157 C  
BRANCH  38  39
HETATM   39  O   UNL     1      -8.884  14.523  67.308  1.00  0.00    -0.186 OA 
BRANCH  39  40
HETATM   40  C   UNL     1      -8.531  13.454  68.185  1.00  0.00    -0.172 C  
BRANCH  40  41
HETATM   41  C   UNL     1      -7.320  12.726  67.620  1.00  0.00    -0.144 C  
BRANCH  41  42
HETATM   42  O   UNL     1      -7.750  11.548  66.941  1.00  0.00    -0.150 OA 
HETATM   43  C   UNL     1      -6.664  10.897  66.296  1.00  0.00    -0.124 C  
ENDBRANCH  41  42
ENDBRANCH  40  41
ENDBRANCH  39  40
ENDBRANCH  38  39
ENDBRANCH  37  38
ENDBRANCH  36  37
ENDBRANCH  35  36
ENDBRANCH  34  35
ENDBRANCH  33  34
ENDBRANCH  32  33
ENDBRANCH  31  32
ENDBRANCH  30  31
ENDBRANCH  29  30
ENDBRANCH  28  29
ENDBRANCH  27  28
ENDBRANCH  26  27
ENDBRANCH  25  26
ENDBRANCH  24  25
ENDBRANCH  23  24
ENDBRANCH  22  23
ENDBRANCH  21  22
ENDBRANCH  20  21
ENDBRANCH  19  20
ENDBRANCH  18  19
ENDBRANCH  17  18
ENDBRANCH  16  17
ENDBRANCH  15  16
ENDBRANCH  13  15
ENDBRANCH  10  13
ENDBRANCH   5   7
ENDBRANCH   4   5
ENDBRANCH   3   4
ENDBRANCH   2   3
TORSDOF 33
ENDMDL
MODEL       88
REMARK 921   NORMALIZED FREE ENERGY PREDICTED BY IDOCK:   -3.73 KCAL/MOL
REMARK 922        TOTAL FREE ENERGY PREDICTED BY IDOCK:  -13.73 KCAL/MOL
REMARK 923 INTER-LIGAND FREE ENERGY PREDICTED BY IDOCK:  -10.95 KCAL/MOL
REMARK 924 INTRA-LIGAND FREE ENERGY PREDICTED BY IDOCK:   -2.79 KCAL/MOL
REMARK 927      BINDING AFFINITY PREDICTED BY RF-SCORE:    0.00 PKD
ROOT
HETATM    1  C   UNL     1     -12.015  11.909  63.424  1.00  0.00    -0.528 C  
HETATM    2  C   UNL     1     -12.001  12.776  64.668  1.00  0.00    -0.453 C  
ENDROOT
BRANCH   2   3
HETATM    3  C   UNL     1     -10.850  13.785  64.657  1.00  0.00    -0.416 C  
BRANCH   3   4
HETATM    4  C   UNL     1     -11.370  15.156  65.074  1.00  0.00    -0.380 C  
BRANCH   4   5
HETATM    5  N   UNL     1     -10.460  15.818  66.003  1.00  0.00    -0.323 NA 
HETATM    6  H   UNL     1      -9.592  16.243  65.677  1.00  0.00     0.000 HD 
BRANCH   5   7
HETATM    7  C   UNL     1     -10.819  15.850  67.360  1.00  0.00    -0.291 A  
HETATM    8  C   UNL     1     -10.354  16.825  68.252  1.00  0.00    -0.319 A  
HETATM    9  C   UNL     1     -10.669  16.784  69.610  1.00  0.00    -0.229 A  
HETATM   10  C   UNL     1     -11.437  15.739  70.126  1.00  0.00    -0.366 A  
HETATM   11  C   UNL     1     -11.575  14.795  67.892  1.00  0.00    -0.373 A  
HETATM   12  C   UNL     1     -11.890  14.737  69.260  1.00  0.00    -0.352 A  
BRANCH  10  13
HETATM   13  C   UNL     1     -11.702  15.746  71.587  1.00  0.00    -0.464 C  
HETATM   14  O   UNL     1     -11.771  16.772  72.249  1.00  0.00    -0.375 OA 
BRANCH  13  15
HETATM   15  O   UNL     1     -11.821  14.489  72.072  1.00  0.00    -0.248 OA 
BRANCH  15  16
HETATM   16  C   UNL     1     -13.060  14.225  72.756  1.00  0.00    -0.497 C  
BRANCH  16  17
HETATM   17  C   UNL     1     -13.853  13.117  72.062  1.00  0.00    -0.303 C  
BRANCH  17  18
HETATM   18  O   UNL     1     -13.437  11.847  72.576  1.00  0.00    -0.228 OA 
BRANCH  18  19
HETATM   19  C   UNL     1     -13.273  10.893  71.529  1.00  0.00    -0.319 C  
BRANCH  19  20
HETATM   20  C   UNL     1     -12.175  11.360  70.583  1.00  0.00    -0.389 C  
BRANCH  20  21
HETATM   21  O   UNL     1     -11.136  10.382  70.559  1.00  0.00    -0.311 OA 
BRANCH  21  22
HETATM   22  C   UNL     1     -11.450   9.269  71.392  1.00  0.00    -0.369 C  
BRANCH  22  23
HETATM   23  C   UNL     1     -10.169   8.746  72.030  1.00  0.00    -0.331 C  
BRANCH  23  24
HETATM   24  O   UNL     1     -10.339   7.369  72.359  1.00  0.00    -0.203 OA 
BRANCH  24  25
HETATM   25  C   UNL     1     -10.059   7.129  73.736  1.00  0.00    -0.349 C  
BRANCH  25  26
HETATM   26  C   UNL     1     -10.501   5.717  74.094  1.00  0.00    -0.247 C  
BRANCH  26  27
HETATM   27  O   UNL     1     -10.823   5.014  72.897  1.00  0.00    -0.225 OA 
BRANCH  27  28
HETATM   28  C   UNL     1     -10.240   3.713  72.891  1.00  0.00    -0.163 C  
BRANCH  28  29
HETATM   29  C   UNL     1      -8.743   3.842  72.653  1.00  0.00    -0.099 C  
BRANCH  29  30
HETATM   30  O   UNL     1      -8.517   4.125  71.275  1.00  0.00    -0.082 OA 
BRANCH  30  31
HETATM   31  C   UNL     1      -7.642   5.238  71.115  1.00  0.00    -0.096 C  
BRANCH  31  32
HETATM   32  C   UNL     1      -8.023   5.988  69.847  1.00  0.00    -0.113 C  
BRANCH  32  33
HETATM   33  O   UNL     1      -9.339   5.603  69.462  1.00  0.00    -0.129 OA 
BRANCH  33  34
HETATM   34  C   UNL     1      -9.788   6.361  68.342  1.00  0.00    -0.137 C  
BRANCH  34  35
HETATM   35  C   UNL     1      -9.314   7.799  68.497  1.00  0.00    -0.147 C  
BRANCH  35  36
HETATM   36  O   UNL     1      -8.957   8.310  67.215  1.00  0.00    -0.134 OA 
BRANCH  36  37
HETATM   37  C   UNL     1      -9.457   9.632  67.030  1.00  0.00    -0.154 C  
BRANCH  37  38
HETATM   38  C   UNL     1     -10.082   9.736  65.646  1.00  0.00    -0.212 C  
BRANCH  38  39
HETATM   39  O   UNL     1      -9.128   9.324  64.671  1.00  0.00    -0.210 OA 
BRANCH  39  40
HETATM   40  C   UNL     1      -8.119  10.317  64.483  1.00  0.00    -0.150 C  
BRANCH  40  41
HETATM   41  C   UNL     1      -6.888   9.665  63.870  1.00  0.00    -0.113 C  
BRANCH  41  42
HETATM   42  O   UNL     1      -6.109   9.061  64.901  1.00  0.00    -0.063 OA 
HETATM   43  C   UNL     1      -5.653  10.028  65.837  1.00  0.00    -0.058 C  
ENDBRANCH  41  42
ENDBRANCH  40  41
ENDBRANCH  39  40
ENDBRANCH  38  39
ENDBRANCH  37  38
ENDBRANCH  36  37
ENDBRANCH  35  36
ENDBRANCH  34  35
ENDBRANCH  33  34
ENDBRANCH  32  33
ENDBRANCH  31  32
ENDBRANCH  30  31
ENDBRANCH  29  30
ENDBRANCH  28  29
ENDBRANCH  27  28
ENDBRANCH  26  27
ENDBRANCH  25  26
ENDBRANCH  24  25
ENDBRANCH  23  24
ENDBRANCH  22  23
ENDBRANCH  21  22
ENDBRANCH  20  21
ENDBRANCH  19  20
ENDBRANCH  18  19
ENDBRANCH  17  18
ENDBRANCH  16  17
ENDBRANCH  15  16
ENDBRANCH  13  15
ENDBRANCH  10  13
ENDBRANCH   5   7
ENDBRANCH   4   5
ENDBRANCH   3   4
ENDBRANCH   2   3
TORSDOF 33
ENDMDL
MODEL       89
REMARK 921   NORMALIZED FREE ENERGY PREDICTED BY IDOCK:   -3.73 KCAL/MOL
REMARK 922        TOTAL FREE ENERGY PREDICTED BY IDOCK:  -13.72 KCAL/MOL
REMARK 923 INTER-LIGAND FREE ENERGY PREDICTED BY IDOCK:  -11.07 KCAL/MOL
REMARK 924 INTRA-LIGAND FREE ENERGY PREDICTED BY IDOCK:   -2.65 KCAL/MOL
REMARK 927      BINDING AFFINITY PREDICTED BY RF-SCORE:    0.00 PKD
ROOT
HETATM    1  C   UNL     1     -10.531   3.894  63.494  1.00  0.00    -0.198 C  
HETATM    2  C   UNL     1     -10.075   2.866  64.513  1.00  0.00     0.045 C  
ENDROOT
BRANCH   2   3
HETATM    3  C   UNL     1      -9.381   3.512  65.714  1.00  0.00    -0.157 C  
BRANCH   3   4
HETATM    4  C   UNL     1      -9.828   4.965  65.840  1.00  0.00    -0.191 C  
BRANCH   4   5
HETATM    5  N   UNL     1      -8.691   5.873  65.939  1.00  0.00    -0.148 NA 
HETATM    6  H   UNL     1      -7.733   5.527  65.872  1.00  0.00     0.000 HD 
BRANCH   5   7
HETATM    7  C   UNL     1      -8.958   7.238  66.130  1.00  0.00    -0.149 A  
HETATM    8  C   UNL     1     -10.215   7.726  66.511  1.00  0.00    -0.195 A  
HETATM    9  C   UNL     1     -10.466   9.094  66.618  1.00  0.00    -0.237 A  
HETATM   10  C   UNL     1      -9.469  10.022  66.311  1.00  0.00    -0.241 A  
HETATM   11  C   UNL     1      -7.968   8.179  65.807  1.00  0.00    -0.105 A  
HETATM   12  C   UNL     1      -8.213   9.559  65.900  1.00  0.00    -0.115 A  
BRANCH  10  13
HETATM   13  C   UNL     1      -9.823  11.460  66.416  1.00  0.00    -0.211 C  
HETATM   14  O   UNL     1      -9.192  12.257  67.096  1.00  0.00    -0.184 OA 
BRANCH  13  15
HETATM   15  O   UNL     1     -10.932  11.747  65.697  1.00  0.00    -0.293 OA 
BRANCH  15  16
HETATM   16  C   UNL     1     -10.732  12.705  64.642  1.00  0.00    -0.326 C  
BRANCH  16  17
HETATM   17  C   UNL     1     -11.744  13.847  64.728  1.00  0.00    -0.386 C  
BRANCH  17  18
HETATM   18  O   UNL     1     -11.311  14.788  65.716  1.00  0.00    -0.340 OA 
BRANCH  18  19
HETATM   19  C   UNL     1     -10.223  15.576  65.238  1.00  0.00    -0.346 C  
BRANCH  19  20
HETATM   20  C   UNL     1      -9.162  15.690  66.324  1.00  0.00    -0.330 C  
BRANCH  20  21
HETATM   21  O   UNL     1      -8.972  17.067  66.646  1.00  0.00    -0.228 OA 
BRANCH  21  22
HETATM   22  C   UNL     1     -10.117  17.611  67.298  1.00  0.00    -0.331 C  
BRANCH  22  23
HETATM   23  C   UNL     1     -10.114  17.176  68.758  1.00  0.00    -0.329 C  
BRANCH  23  24
HETATM   24  O   UNL     1     -11.254  16.354  69.002  1.00  0.00    -0.325 OA 
BRANCH  24  25
HETATM   25  C   UNL     1     -11.038  15.489  70.116  1.00  0.00    -0.323 C  
BRANCH  25  26
HETATM   26  C   UNL     1     -11.859  15.985  71.297  1.00  0.00    -0.449 C  
BRANCH  26  27
HETATM   27  O   UNL     1     -11.843  14.996  72.322  1.00  0.00    -0.371 OA 
BRANCH  27  28
HETATM   28  C   UNL     1     -13.142  14.808  72.878  1.00  0.00    -0.499 C  
BRANCH  28  29
HETATM   29  C   UNL     1     -13.876  13.744  72.075  1.00  0.00    -0.485 C  
BRANCH  29  30
HETATM   30  O   UNL     1     -13.226  12.491  72.269  1.00  0.00    -0.469 OA 
BRANCH  30  31
HETATM   31  C   UNL     1     -12.551  12.073  71.085  1.00  0.00    -0.271 C  
BRANCH  31  32
HETATM   32  C   UNL     1     -12.845  10.600  70.843  1.00  0.00    -0.382 C  
BRANCH  32  33
HETATM   33  O   UNL     1     -12.160   9.825  71.822  1.00  0.00    -0.390 OA 
BRANCH  33  34
HETATM   34  C   UNL     1     -12.663   8.493  71.867  1.00  0.00    -0.360 C  
BRANCH  34  35
HETATM   35  C   UNL     1     -11.736   7.644  72.723  1.00  0.00    -0.223 C  
BRANCH  35  36
HETATM   36  O   UNL     1     -11.383   6.468  71.998  1.00  0.00    -0.257 OA 
BRANCH  36  37
HETATM   37  C   UNL     1     -11.905   6.504  70.672  1.00  0.00    -0.335 C  
BRANCH  37  38
HETATM   38  C   UNL     1     -10.831   6.026  69.705  1.00  0.00    -0.369 C  
BRANCH  38  39
HETATM   39  O   UNL     1     -10.362   4.747  70.123  1.00  0.00    -0.242 OA 
BRANCH  39  40
HETATM   40  C   UNL     1      -9.220   4.344  69.369  1.00  0.00    -0.135 C  
BRANCH  40  41
HETATM   41  C   UNL     1      -8.179   5.454  69.409  1.00  0.00    -0.096 C  
BRANCH  41  42
HETATM   42  O   UNL     1      -6.874   4.881  69.362  1.00  0.00    -0.050 OA 
HETATM   43  C   UNL     1      -6.787   3.874  68.363  1.00  0.00    -0.047 C  
ENDBRANCH  41  42
ENDBRANCH  40  41
ENDBRANCH  39  40
ENDBRANCH  38  39
ENDBRANCH  37  38
ENDBRANCH  36  37
ENDBRANCH  35  36
ENDBRANCH  34  35
ENDBRANCH  33  34
ENDBRANCH  32  33
ENDBRANCH  31  32
ENDBRANCH  30  31
ENDBRANCH  29  30
ENDBRANCH  28  29
ENDBRANCH  27  28
ENDBRANCH  26  27
ENDBRANCH  25  26
ENDBRANCH  24  25
ENDBRANCH  23  24
ENDBRANCH  22  23
ENDBRANCH  21  22
ENDBRANCH  20  21
ENDBRANCH  19  20
ENDBRANCH  18  19
ENDBRANCH  17  18
ENDBRANCH  16  17
ENDBRANCH  15  16
ENDBRANCH  13  15
ENDBRANCH  10  13
ENDBRANCH   5   7
ENDBRANCH   4   5
ENDBRANCH   3   4
ENDBRANCH   2   3
TORSDOF 33
ENDMDL
MODEL       90
REMARK 921   NORMALIZED FREE ENERGY PREDICTED BY IDOCK:   -3.72 KCAL/MOL
REMARK 922        TOTAL FREE ENERGY PREDICTED BY IDOCK:  -13.71 KCAL/MOL
REMARK 923 INTER-LIGAND FREE ENERGY PREDICTED BY IDOCK:  -10.81 KCAL/MOL
REMARK 924 INTRA-LIGAND FREE ENERGY PREDICTED BY IDOCK:   -2.90 KCAL/MOL
REMARK 927      BINDING AFFINITY PREDICTED BY RF-SCORE:    0.00 PKD
ROOT
HETATM    1  C   UNL     1     -12.503  15.900  73.280  1.00  0.00    -0.636 C  
HETATM    2  C   UNL     1     -13.220  14.625  72.879  1.00  0.00    -0.609 C  
ENDROOT
BRANCH   2   3
HETATM    3  C   UNL     1     -13.654  14.643  71.411  1.00  0.00    -0.474 C  
BRANCH   3   4
HETATM    4  C   UNL     1     -12.534  14.081  70.542  1.00  0.00    -0.359 C  
BRANCH   4   5
HETATM    5  N   UNL     1     -12.447  14.771  69.260  1.00  0.00    -0.579 NA 
HETATM    6  H   UNL     1     -12.660  15.765  69.182  1.00  0.00     0.000 HD 
BRANCH   5   7
HETATM    7  C   UNL     1     -12.061  14.021  68.137  1.00  0.00    -0.272 A  
HETATM    8  C   UNL     1     -12.138  14.510  66.827  1.00  0.00    -0.313 A  
HETATM    9  C   UNL     1     -11.818  13.711  65.729  1.00  0.00    -0.397 A  
HETATM   10  C   UNL     1     -11.441  12.379  65.909  1.00  0.00    -0.422 A  
HETATM   11  C   UNL     1     -11.698  12.676  68.307  1.00  0.00    -0.389 A  
HETATM   12  C   UNL     1     -11.384  11.860  67.207  1.00  0.00    -0.393 A  
BRANCH  10  13
HETATM   13  C   UNL     1     -11.149  11.584  64.689  1.00  0.00    -0.250 C  
HETATM   14  O   UNL     1     -11.564  11.885  63.579  1.00  0.00    -0.439 OA 
BRANCH  13  15
HETATM   15  O   UNL     1     -10.404  10.494  64.980  1.00  0.00    -0.316 OA 
BRANCH  15  16
HETATM   16  C   UNL     1      -9.225  10.338  64.169  1.00  0.00    -0.267 C  
BRANCH  16  17
HETATM   17  C   UNL     1      -8.038   9.853  65.001  1.00  0.00    -0.140 C  
BRANCH  17  18
HETATM   18  O   UNL     1      -8.476   8.817  65.887  1.00  0.00    -0.127 OA 
BRANCH  18  19
HETATM   19  C   UNL     1      -7.918   7.556  65.525  1.00  0.00    -0.121 C  
BRANCH  19  20
HETATM   20  C   UNL     1      -7.646   6.740  66.782  1.00  0.00    -0.090 C  
BRANCH  20  21
HETATM   21  O   UNL     1      -8.396   5.527  66.720  1.00  0.00    -0.108 OA 
BRANCH  21  22
HETATM   22  C   UNL     1      -9.798   5.783  66.673  1.00  0.00    -0.165 C  
BRANCH  22  23
HETATM   23  C   UNL     1     -10.400   5.510  68.045  1.00  0.00    -0.177 C  
BRANCH  23  24
HETATM   24  O   UNL     1     -11.168   6.641  68.453  1.00  0.00    -0.230 OA 
BRANCH  24  25
HETATM   25  C   UNL     1     -10.350   7.612  69.102  1.00  0.00    -0.213 C  
BRANCH  25  26
HETATM   26  C   UNL     1     -10.055   7.145  70.520  1.00  0.00    -0.195 C  
BRANCH  26  27
HETATM   27  O   UNL     1      -8.659   6.884  70.642  1.00  0.00    -0.138 OA 
BRANCH  27  28
HETATM   28  C   UNL     1      -8.052   7.757  71.592  1.00  0.00    -0.105 C  
BRANCH  28  29
HETATM   29  C   UNL     1      -6.859   8.442  70.943  1.00  0.00    -0.047 C  
BRANCH  29  30
HETATM   30  O   UNL     1      -6.805   9.795  71.389  1.00  0.00    -0.326 OA 
BRANCH  30  31
HETATM   31  C   UNL     1      -6.579  10.686  70.300  1.00  0.00    -0.125 C  
BRANCH  31  32
HETATM   32  C   UNL     1      -7.658  10.468  69.250  1.00  0.00    -0.134 C  
BRANCH  32  33
HETATM   33  O   UNL     1      -7.333  11.228  68.090  1.00  0.00    -0.081 OA 
BRANCH  33  34
HETATM   34  C   UNL     1      -7.616  12.610  68.286  1.00  0.00    -0.133 C  
BRANCH  34  35
HETATM   35  C   UNL     1      -8.121  13.200  66.977  1.00  0.00    -0.019 C  
BRANCH  35  36
HETATM   36  O   UNL     1      -8.441  14.574  67.182  1.00  0.00    -0.200 OA 
BRANCH  36  37
HETATM   37  C   UNL     1      -8.893  14.806  68.513  1.00  0.00    -0.176 C  
BRANCH  37  38
HETATM   38  C   UNL     1      -8.788  16.293  68.820  1.00  0.00    -0.243 C  
BRANCH  38  39
HETATM   39  O   UNL     1      -9.815  16.988  68.117  1.00  0.00    -0.254 OA 
BRANCH  39  40
HETATM   40  C   UNL     1      -9.680  18.401  68.269  1.00  0.00    -0.344 C  
BRANCH  40  41
HETATM   41  C   UNL     1      -8.201  18.763  68.270  1.00  0.00    -0.325 C  
BRANCH  41  42
HETATM   42  O   UNL     1      -7.931  19.647  67.184  1.00  0.00    -0.260 OA 
HETATM   43  C   UNL     1      -6.590  20.116  67.221  1.00  0.00    -0.216 C  
ENDBRANCH  41  42
ENDBRANCH  40  41
ENDBRANCH  39  40
ENDBRANCH  38  39
ENDBRANCH  37  38
ENDBRANCH  36  37
ENDBRANCH  35  36
ENDBRANCH  34  35
ENDBRANCH  33  34
ENDBRANCH  32  33
ENDBRANCH  31  32
ENDBRANCH  30  31
ENDBRANCH  29  30
ENDBRANCH  28  29
ENDBRANCH  27  28
ENDBRANCH  26  27
ENDBRANCH  25  26
ENDBRANCH  24  25
ENDBRANCH  23  24
ENDBRANCH  22  23
ENDBRANCH  21  22
ENDBRANCH  20  21
ENDBRANCH  19  20
ENDBRANCH  18  19
ENDBRANCH  17  18
ENDBRANCH  16  17
ENDBRANCH  15  16
ENDBRANCH  13  15
ENDBRANCH  10  13
ENDBRANCH   5   7
ENDBRANCH   4   5
ENDBRANCH   3   4
ENDBRANCH   2   3
TORSDOF 33
ENDMDL
MODEL       91
REMARK 921   NORMALIZED FREE ENERGY PREDICTED BY IDOCK:   -3.72 KCAL/MOL
REMARK 922        TOTAL FREE ENERGY PREDICTED BY IDOCK:  -13.69 KCAL/MOL
REMARK 923 INTER-LIGAND FREE ENERGY PREDICTED BY IDOCK:   -9.91 KCAL/MOL
REMARK 924 INTRA-LIGAND FREE ENERGY PREDICTED BY IDOCK:   -3.78 KCAL/MOL
REMARK 927      BINDING AFFINITY PREDICTED BY RF-SCORE:    0.00 PKD
ROOT
HETATM    1  C   UNL     1     -10.049   3.668  64.403  1.00  0.00    -0.203 C  
HETATM    2  C   UNL     1      -8.792   4.301  64.968  1.00  0.00    -0.136 C  
ENDROOT
BRANCH   2   3
HETATM    3  C   UNL     1      -8.953   4.690  66.440  1.00  0.00    -0.114 C  
BRANCH   3   4
HETATM    4  C   UNL     1      -8.002   3.858  67.294  1.00  0.00    -0.091 C  
BRANCH   4   5
HETATM    5  N   UNL     1      -6.811   4.613  67.665  1.00  0.00    -0.058 NA 
HETATM    6  H   UNL     1      -5.878   4.220  67.541  1.00  0.00     0.000 HD 
BRANCH   5   7
HETATM    7  C   UNL     1      -6.991   5.900  68.200  1.00  0.00    -0.069 A  
HETATM    8  C   UNL     1      -6.621   7.069  67.521  1.00  0.00    -0.055 A  
HETATM    9  C   UNL     1      -6.744   8.326  68.112  1.00  0.00    -0.065 A  
HETATM   10  C   UNL     1      -7.212   8.449  69.422  1.00  0.00    -0.059 A  
HETATM   11  C   UNL     1      -7.443   6.033  69.521  1.00  0.00    -0.088 A  
HETATM   12  C   UNL     1      -7.560   7.293  70.130  1.00  0.00    -0.090 A  
BRANCH  10  13
HETATM   13  C   UNL     1      -7.282   9.819  69.993  1.00  0.00    -0.130 C  
HETATM   14  O   UNL     1      -6.792  10.119  71.072  1.00  0.00    -0.341 OA 
BRANCH  13  15
HETATM   15  O   UNL     1      -7.973  10.653  69.184  1.00  0.00    -0.129 OA 
BRANCH  15  16
HETATM   16  C   UNL     1      -7.229  11.797  68.726  1.00  0.00    -0.113 C  
BRANCH  16  17
HETATM   17  C   UNL     1      -7.274  11.916  67.203  1.00  0.00    -0.144 C  
BRANCH  17  18
HETATM   18  O   UNL     1      -8.533  11.426  66.728  1.00  0.00    -0.154 OA 
BRANCH  18  19
HETATM   19  C   UNL     1      -8.393  10.774  65.469  1.00  0.00    -0.129 C  
BRANCH  19  20
HETATM   20  C   UNL     1      -9.118   9.435  65.506  1.00  0.00    -0.218 C  
BRANCH  20  21
HETATM   21  O   UNL     1      -9.803   9.313  66.752  1.00  0.00    -0.189 OA 
BRANCH  21  22
HETATM   22  C   UNL     1     -10.392   8.022  66.898  1.00  0.00    -0.338 C  
BRANCH  22  23
HETATM   23  C   UNL     1     -10.661   7.761  68.375  1.00  0.00    -0.036 C  
BRANCH  23  24
HETATM   24  O   UNL     1     -11.167   6.437  68.530  1.00  0.00    -0.328 OA 
BRANCH  24  25
HETATM   25  C   UNL     1     -11.404   6.132  69.902  1.00  0.00    -0.384 C  
BRANCH  25  26
HETATM   26  C   UNL     1     -11.023   7.336  70.752  1.00  0.00    -0.251 C  
BRANCH  26  27
HETATM   27  O   UNL     1     -11.931   7.440  71.845  1.00  0.00    -0.285 OA 
BRANCH  27  28
HETATM   28  C   UNL     1     -12.117   8.798  72.234  1.00  0.00    -0.353 C  
BRANCH  28  29
HETATM   29  C   UNL     1     -13.528   9.230  71.866  1.00  0.00    -0.430 C  
BRANCH  29  30
HETATM   30  O   UNL     1     -13.454  10.366  71.009  1.00  0.00    -0.277 OA 
BRANCH  30  31
HETATM   31  C   UNL     1     -12.701  11.416  71.611  1.00  0.00    -0.322 C  
BRANCH  31  32
HETATM   32  C   UNL     1     -13.660  12.453  72.175  1.00  0.00    -0.306 C  
BRANCH  32  33
HETATM   33  O   UNL     1     -12.993  13.709  72.244  1.00  0.00    -0.349 OA 
BRANCH  33  34
HETATM   34  C   UNL     1     -12.389  14.039  70.997  1.00  0.00    -0.369 C  
BRANCH  34  35
HETATM   35  C   UNL     1     -12.363  15.553  70.846  1.00  0.00    -0.422 C  
BRANCH  35  36
HETATM   36  O   UNL     1     -11.022  15.971  70.601  1.00  0.00    -0.321 OA 
BRANCH  36  37
HETATM   37  C   UNL     1     -10.523  15.416  69.387  1.00  0.00    -0.257 C  
BRANCH  37  38
HETATM   38  C   UNL     1     -11.017  16.256  68.218  1.00  0.00    -0.348 C  
BRANCH  38  39
HETATM   39  O   UNL     1     -11.220  15.411  67.089  1.00  0.00    -0.326 OA 
BRANCH  39  40
HETATM   40  C   UNL     1     -11.689  14.122  67.485  1.00  0.00    -0.386 C  
BRANCH  40  41
HETATM   41  C   UNL     1     -11.569  13.165  66.308  1.00  0.00    -0.356 C  
BRANCH  41  42
HETATM   42  O   UNL     1     -11.895  11.844  66.737  1.00  0.00    -0.598 OA 
HETATM   43  C   UNL     1     -11.770  11.713  68.146  1.00  0.00    -0.295 C  
ENDBRANCH  41  42
ENDBRANCH  40  41
ENDBRANCH  39  40
ENDBRANCH  38  39
ENDBRANCH  37  38
ENDBRANCH  36  37
ENDBRANCH  35  36
ENDBRANCH  34  35
ENDBRANCH  33  34
ENDBRANCH  32  33
ENDBRANCH  31  32
ENDBRANCH  30  31
ENDBRANCH  29  30
ENDBRANCH  28  29
ENDBRANCH  27  28
ENDBRANCH  26  27
ENDBRANCH  25  26
ENDBRANCH  24  25
ENDBRANCH  23  24
ENDBRANCH  22  23
ENDBRANCH  21  22
ENDBRANCH  20  21
ENDBRANCH  19  20
ENDBRANCH  18  19
ENDBRANCH  17  18
ENDBRANCH  16  17
ENDBRANCH  15  16
ENDBRANCH  13  15
ENDBRANCH  10  13
ENDBRANCH   5   7
ENDBRANCH   4   5
ENDBRANCH   3   4
ENDBRANCH   2   3
TORSDOF 33
ENDMDL
MODEL       92
REMARK 921   NORMALIZED FREE ENERGY PREDICTED BY IDOCK:   -3.70 KCAL/MOL
REMARK 922        TOTAL FREE ENERGY PREDICTED BY IDOCK:  -13.63 KCAL/MOL
REMARK 923 INTER-LIGAND FREE ENERGY PREDICTED BY IDOCK:  -10.92 KCAL/MOL
REMARK 924 INTRA-LIGAND FREE ENERGY PREDICTED BY IDOCK:   -2.72 KCAL/MOL
REMARK 927      BINDING AFFINITY PREDICTED BY RF-SCORE:    0.00 PKD
ROOT
HETATM    1  C   UNL     1      -6.014   6.004  64.556  1.00  0.00    -0.025 C  
HETATM    2  C   UNL     1      -7.026   5.627  63.491  1.00  0.00    -0.045 C  
ENDROOT
BRANCH   2   3
HETATM    3  C   UNL     1      -7.622   6.856  62.799  1.00  0.00    -0.097 C  
BRANCH   3   4
HETATM    4  C   UNL     1      -7.897   7.939  63.836  1.00  0.00    -0.141 C  
BRANCH   4   5
HETATM    5  N   UNL     1      -8.039   9.253  63.218  1.00  0.00    -0.149 NA 
HETATM    6  H   UNL     1      -7.395   9.566  62.491  1.00  0.00     0.000 HD 
BRANCH   5   7
HETATM    7  C   UNL     1      -9.092  10.072  63.656  1.00  0.00    -0.268 A  
HETATM    8  C   UNL     1      -9.648  11.090  62.869  1.00  0.00    -0.369 A  
HETATM    9  C   UNL     1     -10.641  11.935  63.363  1.00  0.00    -0.485 A  
HETATM   10  C   UNL     1     -11.088  11.808  64.680  1.00  0.00    -0.363 A  
HETATM   11  C   UNL     1      -9.535   9.964  64.982  1.00  0.00    -0.343 A  
HETATM   12  C   UNL     1     -10.527  10.817  65.494  1.00  0.00    -0.264 A  
BRANCH  10  13
HETATM   13  C   UNL     1     -12.124  12.767  65.142  1.00  0.00    -0.450 C  
HETATM   14  O   UNL     1     -12.709  13.533  64.391  1.00  0.00    -0.643 OA 
BRANCH  13  15
HETATM   15  O   UNL     1     -12.298  12.693  66.482  1.00  0.00    -0.500 OA 
BRANCH  15  16
HETATM   16  C   UNL     1     -12.036  13.920  67.189  1.00  0.00    -0.420 C  
BRANCH  16  17
HETATM   17  C   UNL     1     -10.581  13.995  67.651  1.00  0.00    -0.249 C  
BRANCH  17  18
HETATM   18  O   UNL     1     -10.388  15.194  68.409  1.00  0.00    -0.222 OA 
BRANCH  18  19
HETATM   19  C   UNL     1     -11.618  15.663  68.958  1.00  0.00    -0.386 C  
BRANCH  19  20
HETATM   20  C   UNL     1     -11.496  15.754  70.473  1.00  0.00    -0.381 C  
BRANCH  20  21
HETATM   21  O   UNL     1     -12.796  15.640  71.051  1.00  0.00    -0.467 OA 
BRANCH  21  22
HETATM   22  C   UNL     1     -13.364  14.356  70.803  1.00  0.00    -0.155 C  
BRANCH  22  23
HETATM   23  C   UNL     1     -12.883  13.382  71.871  1.00  0.00    -0.256 C  
BRANCH  23  24
HETATM   24  O   UNL     1     -12.636  12.113  71.269  1.00  0.00    -0.342 OA 
BRANCH  24  25
HETATM   25  C   UNL     1     -13.292  11.067  71.983  1.00  0.00    -0.288 C  
BRANCH  25  26
HETATM   26  C   UNL     1     -12.867   9.727  71.401  1.00  0.00    -0.392 C  
BRANCH  26  27
HETATM   27  O   UNL     1     -13.939   8.798  71.543  1.00  0.00    -0.388 OA 
BRANCH  27  28
HETATM   28  C   UNL     1     -13.451   7.467  71.694  1.00  0.00    -0.365 C  
BRANCH  28  29
HETATM   29  C   UNL     1     -12.113   7.345  70.981  1.00  0.00    -0.298 C  
BRANCH  29  30
HETATM   30  O   UNL     1     -11.511   6.104  71.339  1.00  0.00    -0.293 OA 
BRANCH  30  31
HETATM   31  C   UNL     1     -11.832   5.745  72.680  1.00  0.00    -0.142 C  
BRANCH  31  32
HETATM   32  C   UNL     1     -10.551   5.693  73.499  1.00  0.00    -0.269 C  
BRANCH  32  33
HETATM   33  O   UNL     1     -10.422   6.908  74.230  1.00  0.00    -0.312 OA 
BRANCH  33  34
HETATM   34  C   UNL     1      -9.194   7.563  73.925  1.00  0.00    -0.262 C  
BRANCH  34  35
HETATM   35  C   UNL     1      -8.350   6.646  73.053  1.00  0.00    -0.117 C  
BRANCH  35  36
HETATM   36  O   UNL     1      -7.055   7.222  72.893  1.00  0.00    -0.068 OA 
BRANCH  36  37
HETATM   37  C   UNL     1      -6.707   7.334  71.515  1.00  0.00    -0.051 C  
BRANCH  37  38
HETATM   38  C   UNL     1      -6.495   8.802  71.176  1.00  0.00    -0.061 C  
BRANCH  38  39
HETATM   39  O   UNL     1      -6.692   8.992  69.778  1.00  0.00    -0.047 OA 
BRANCH  39  40
HETATM   40  C   UNL     1      -7.343   7.866  69.190  1.00  0.00    -0.083 C  
BRANCH  40  41
HETATM   41  C   UNL     1      -8.579   8.341  68.440  1.00  0.00    -0.133 C  
BRANCH  41  42
HETATM   42  O   UNL     1      -8.699   9.756  68.575  1.00  0.00    -0.118 OA 
HETATM   43  C   UNL     1      -9.937  10.115  69.172  1.00  0.00    -0.210 C  
ENDBRANCH  41  42
ENDBRANCH  40  41
ENDBRANCH  39  40
ENDBRANCH  38  39
ENDBRANCH  37  38
ENDBRANCH  36  37
ENDBRANCH  35  36
ENDBRANCH  34  35
ENDBRANCH  33  34
ENDBRANCH  32  33
ENDBRANCH  31  32
ENDBRANCH  30  31
ENDBRANCH  29  30
ENDBRANCH  28  29
ENDBRANCH  27  28
ENDBRANCH  26  27
ENDBRANCH  25  26
ENDBRANCH  24  25
ENDBRANCH  23  24
ENDBRANCH  22  23
ENDBRANCH  21  22
ENDBRANCH  20  21
ENDBRANCH  19  20
ENDBRANCH  18  19
ENDBRANCH  17  18
ENDBRANCH  16  17
ENDBRANCH  15  16
ENDBRANCH  13  15
ENDBRANCH  10  13
ENDBRANCH   5   7
ENDBRANCH   4   5
ENDBRANCH   3   4
ENDBRANCH   2   3
TORSDOF 33
ENDMDL
MODEL       93
REMARK 921   NORMALIZED FREE ENERGY PREDICTED BY IDOCK:   -3.70 KCAL/MOL
REMARK 922        TOTAL FREE ENERGY PREDICTED BY IDOCK:  -13.63 KCAL/MOL
REMARK 923 INTER-LIGAND FREE ENERGY PREDICTED BY IDOCK:  -10.09 KCAL/MOL
REMARK 924 INTRA-LIGAND FREE ENERGY PREDICTED BY IDOCK:   -3.54 KCAL/MOL
REMARK 927      BINDING AFFINITY PREDICTED BY RF-SCORE:    0.00 PKD
ROOT
HETATM    1  C   UNL     1     -10.489  17.449  68.381  1.00  0.00    -0.384 C  
HETATM    2  C   UNL     1     -10.069  18.742  67.709  1.00  0.00    -0.417 C  
ENDROOT
BRANCH   2   3
HETATM    3  C   UNL     1      -9.840  18.564  66.206  1.00  0.00    -0.352 C  
BRANCH   3   4
HETATM    4  C   UNL     1     -11.036  17.847  65.589  1.00  0.00     0.246 C  
BRANCH   4   5
HETATM    5  N   UNL     1     -10.621  16.722  64.758  1.00  0.00    -0.580 NA 
HETATM    6  H   UNL     1     -10.267  16.868  63.813  1.00  0.00     0.000 HD 
BRANCH   5   7
HETATM    7  C   UNL     1     -10.725  15.432  65.303  1.00  0.00    -0.421 A  
HETATM    8  C   UNL     1      -9.646  14.762  65.895  1.00  0.00    -0.320 A  
HETATM    9  C   UNL     1      -9.765  13.452  66.358  1.00  0.00    -0.282 A  
HETATM   10  C   UNL     1     -10.966  12.756  66.210  1.00  0.00    -0.307 A  
HETATM   11  C   UNL     1     -11.922  14.718  65.143  1.00  0.00    -0.278 A  
HETATM   12  C   UNL     1     -12.049  13.394  65.596  1.00  0.00    -0.476 A  
BRANCH  10  13
HETATM   13  C   UNL     1     -11.003  11.353  66.697  1.00  0.00    -0.285 C  
HETATM   14  O   UNL     1     -10.301  10.465  66.235  1.00  0.00    -0.236 OA 
BRANCH  13  15
HETATM   15  O   UNL     1     -11.923  11.198  67.677  1.00  0.00    -0.613 OA 
BRANCH  15  16
HETATM   16  C   UNL     1     -11.612  11.881  68.905  1.00  0.00    -0.311 C  
BRANCH  16  17
HETATM   17  C   UNL     1     -11.586  10.912  70.088  1.00  0.00    -0.338 C  
BRANCH  17  18
HETATM   18  O   UNL     1     -12.926  10.520  70.405  1.00  0.00    -0.314 OA 
BRANCH  18  19
HETATM   19  C   UNL     1     -13.152  10.544  71.813  1.00  0.00    -0.464 C  
BRANCH  19  20
HETATM   20  C   UNL     1     -13.118   9.122  72.357  1.00  0.00    -0.423 C  
BRANCH  20  21
HETATM   21  O   UNL     1     -13.420   8.212  71.300  1.00  0.00    -0.238 OA 
BRANCH  21  22
HETATM   22  C   UNL     1     -12.379   7.255  71.124  1.00  0.00    -0.345 C  
BRANCH  22  23
HETATM   23  C   UNL     1     -11.439   7.313  72.321  1.00  0.00    -0.278 C  
BRANCH  23  24
HETATM   24  O   UNL     1     -11.346   6.016  72.905  1.00  0.00    -0.256 OA 
BRANCH  24  25
HETATM   25  C   UNL     1     -10.282   5.952  73.853  1.00  0.00    -0.257 C  
BRANCH  25  26
HETATM   26  C   UNL     1      -9.754   4.526  73.911  1.00  0.00    -0.130 C  
BRANCH  26  27
HETATM   27  O   UNL     1      -8.763   4.356  72.901  1.00  0.00    -0.107 OA 
BRANCH  27  28
HETATM   28  C   UNL     1      -9.173   3.394  71.933  1.00  0.00    -0.117 C  
BRANCH  28  29
HETATM   29  C   UNL     1      -8.818   3.906  70.545  1.00  0.00    -0.081 C  
BRANCH  29  30
HETATM   30  O   UNL     1      -9.629   5.040  70.250  1.00  0.00    -0.157 OA 
BRANCH  30  31
HETATM   31  C   UNL     1      -8.833   6.145  69.829  1.00  0.00    -0.135 C  
BRANCH  31  32
HETATM   32  C   UNL     1      -9.548   6.865  68.695  1.00  0.00    -0.133 C  
BRANCH  32  33
HETATM   33  O   UNL     1      -9.350   8.268  68.840  1.00  0.00    -0.147 OA 
BRANCH  33  34
HETATM   34  C   UNL     1      -8.694   8.568  70.069  1.00  0.00    -0.136 C  
BRANCH  34  35
HETATM   35  C   UNL     1      -7.666   9.662  69.825  1.00  0.00    -0.133 C  
BRANCH  35  36
HETATM   36  O   UNL     1      -8.268  10.702  69.059  1.00  0.00    -0.138 OA 
BRANCH  36  37
HETATM   37  C   UNL     1      -7.362  11.218  68.088  1.00  0.00    -0.088 C  
BRANCH  37  38
HETATM   38  C   UNL     1      -6.416  10.108  67.654  1.00  0.00    -0.063 C  
BRANCH  38  39
HETATM   39  O   UNL     1      -6.638   9.817  66.277  1.00  0.00    -0.069 OA 
BRANCH  39  40
HETATM   40  C   UNL     1      -6.960   8.440  66.085  1.00  0.00    -0.072 C  
BRANCH  40  41
HETATM   41  C   UNL     1      -7.770   8.292  64.804  1.00  0.00    -0.114 C  
BRANCH  41  42
HETATM   42  O   UNL     1      -7.664   9.489  64.037  1.00  0.00    -0.113 OA 
HETATM   43  C   UNL     1      -8.724   9.596  63.097  1.00  0.00    -0.230 C  
ENDBRANCH  41  42
ENDBRANCH  40  41
ENDBRANCH  39  40
ENDBRANCH  38  39
ENDBRANCH  37  38
ENDBRANCH  36  37
ENDBRANCH  35  36
ENDBRANCH  34  35
ENDBRANCH  33  34
ENDBRANCH  32  33
ENDBRANCH  31  32
ENDBRANCH  30  31
ENDBRANCH  29  30
ENDBRANCH  28  29
ENDBRANCH  27  28
ENDBRANCH  26  27
ENDBRANCH  25  26
ENDBRANCH  24  25
ENDBRANCH  23  24
ENDBRANCH  22  23
ENDBRANCH  21  22
ENDBRANCH  20  21
ENDBRANCH  19  20
ENDBRANCH  18  19
ENDBRANCH  17  18
ENDBRANCH  16  17
ENDBRANCH  15  16
ENDBRANCH  13  15
ENDBRANCH  10  13
ENDBRANCH   5   7
ENDBRANCH   4   5
ENDBRANCH   3   4
ENDBRANCH   2   3
TORSDOF 33
ENDMDL
MODEL       94
REMARK 921   NORMALIZED FREE ENERGY PREDICTED BY IDOCK:   -3.68 KCAL/MOL
REMARK 922        TOTAL FREE ENERGY PREDICTED BY IDOCK:  -13.58 KCAL/MOL
REMARK 923 INTER-LIGAND FREE ENERGY PREDICTED BY IDOCK:  -10.25 KCAL/MOL
REMARK 924 INTRA-LIGAND FREE ENERGY PREDICTED BY IDOCK:   -3.33 KCAL/MOL
REMARK 927      BINDING AFFINITY PREDICTED BY RF-SCORE:    0.00 PKD
ROOT
HETATM    1  C   UNL     1     -10.284  17.755  68.891  1.00  0.00    -0.345 C  
HETATM    2  C   UNL     1     -10.147  19.075  68.157  1.00  0.00    -0.467 C  
ENDROOT
BRANCH   2   3
HETATM    3  C   UNL     1      -9.613  18.893  66.734  1.00  0.00    -0.354 C  
BRANCH   3   4
HETATM    4  C   UNL     1     -10.603  18.066  65.921  1.00  0.00    -0.219 C  
BRANCH   4   5
HETATM    5  N   UNL     1      -9.964  16.903  65.315  1.00  0.00    -0.384 NA 
HETATM    6  H   UNL     1      -9.295  17.007  64.552  1.00  0.00     0.000 HD 
BRANCH   5   7
HETATM    7  C   UNL     1     -10.301  15.635  65.816  1.00  0.00    -0.365 A  
HETATM    8  C   UNL     1      -9.412  14.844  66.555  1.00  0.00    -0.307 A  
HETATM    9  C   UNL     1      -9.753  13.558  66.972  1.00  0.00    -0.251 A  
HETATM   10  C   UNL     1     -10.991  13.008  66.632  1.00  0.00    -0.301 A  
HETATM   11  C   UNL     1     -11.534  15.068  65.464  1.00  0.00    -0.265 A  
HETATM   12  C   UNL     1     -11.884  13.769  65.870  1.00  0.00    -0.405 A  
BRANCH  10  13
HETATM   13  C   UNL     1     -11.267  11.621  67.085  1.00  0.00    -0.309 C  
HETATM   14  O   UNL     1     -10.724  10.638  66.599  1.00  0.00    -0.239 OA 
BRANCH  13  15
HETATM   15  O   UNL     1     -12.201  11.600  68.062  1.00  0.00    -0.551 OA 
BRANCH  15  16
HETATM   16  C   UNL     1     -11.671  11.642  69.400  1.00  0.00    -0.340 C  
BRANCH  16  17
HETATM   17  C   UNL     1     -11.987  10.355  70.163  1.00  0.00    -0.276 C  
BRANCH  17  18
HETATM   18  O   UNL     1     -13.365  10.363  70.550  1.00  0.00    -0.238 OA 
BRANCH  18  19
HETATM   19  C   UNL     1     -13.505  10.446  71.966  1.00  0.00    -0.255 C  
BRANCH  19  20
HETATM   20  C   UNL     1     -13.403   9.051  72.570  1.00  0.00    -0.423 C  
BRANCH  20  21
HETATM   21  O   UNL     1     -14.245   8.164  71.834  1.00  0.00    -0.407 OA 
BRANCH  21  22
HETATM   22  C   UNL     1     -13.520   7.032  71.359  1.00  0.00    -0.233 C  
BRANCH  22  23
HETATM   23  C   UNL     1     -12.211   6.919  72.129  1.00  0.00    -0.217 C  
BRANCH  23  24
HETATM   24  O   UNL     1     -12.125   5.623  72.717  1.00  0.00    -0.181 OA 
BRANCH  24  25
HETATM   25  C   UNL     1     -10.860   5.424  73.346  1.00  0.00    -0.297 C  
BRANCH  25  26
HETATM   26  C   UNL     1     -10.327   4.051  72.966  1.00  0.00    -0.168 C  
BRANCH  26  27
HETATM   27  O   UNL     1      -9.166   4.212  72.155  1.00  0.00    -0.117 OA 
BRANCH  27  28
HETATM   28  C   UNL     1      -9.407   3.780  70.818  1.00  0.00    -0.148 C  
BRANCH  28  29
HETATM   29  C   UNL     1      -9.396   4.991  69.896  1.00  0.00    -0.139 C  
BRANCH  29  30
HETATM   30  O   UNL     1     -10.714   5.205  69.400  1.00  0.00    -0.166 OA 
BRANCH  30  31
HETATM   31  C   UNL     1     -10.817   6.463  68.738  1.00  0.00    -0.317 C  
BRANCH  31  32
HETATM   32  C   UNL     1     -10.791   6.234  67.235  1.00  0.00    -0.375 C  
BRANCH  32  33
HETATM   33  O   UNL     1     -10.134   7.333  66.612  1.00  0.00    -0.217 OA 
BRANCH  33  34
HETATM   34  C   UNL     1      -8.720   7.158  66.622  1.00  0.00    -0.128 C  
BRANCH  34  35
HETATM   35  C   UNL     1      -8.069   8.438  67.125  1.00  0.00    -0.104 C  
BRANCH  35  36
HETATM   36  O   UNL     1      -7.801   8.305  68.519  1.00  0.00    -0.116 OA 
BRANCH  36  37
HETATM   37  C   UNL     1      -8.389   9.371  69.261  1.00  0.00    -0.131 C  
BRANCH  37  38
HETATM   38  C   UNL     1      -8.359   9.020  70.741  1.00  0.00    -0.192 C  
BRANCH  38  39
HETATM   39  O   UNL     1      -7.017   9.104  71.214  1.00  0.00    -0.143 OA 
BRANCH  39  40
HETATM   40  C   UNL     1      -6.901   8.580  72.537  1.00  0.00    -0.055 C  
BRANCH  40  41
HETATM   41  C   UNL     1      -6.771   7.065  72.462  1.00  0.00    -0.061 C  
BRANCH  41  42
HETATM   42  O   UNL     1      -5.954   6.715  71.347  1.00  0.00    -0.035 OA 
HETATM   43  C   UNL     1      -5.196   5.542  71.609  1.00  0.00    -0.009 C  
ENDBRANCH  41  42
ENDBRANCH  40  41
ENDBRANCH  39  40
ENDBRANCH  38  39
ENDBRANCH  37  38
ENDBRANCH  36  37
ENDBRANCH  35  36
ENDBRANCH  34  35
ENDBRANCH  33  34
ENDBRANCH  32  33
ENDBRANCH  31  32
ENDBRANCH  30  31
ENDBRANCH  29  30
ENDBRANCH  28  29
ENDBRANCH  27  28
ENDBRANCH  26  27
ENDBRANCH  25  26
ENDBRANCH  24  25
ENDBRANCH  23  24
ENDBRANCH  22  23
ENDBRANCH  21  22
ENDBRANCH  20  21
ENDBRANCH  19  20
ENDBRANCH  18  19
ENDBRANCH  17  18
ENDBRANCH  16  17
ENDBRANCH  15  16
ENDBRANCH  13  15
ENDBRANCH  10  13
ENDBRANCH   5   7
ENDBRANCH   4   5
ENDBRANCH   3   4
ENDBRANCH   2   3
TORSDOF 33
ENDMDL
MODEL       95
REMARK 921   NORMALIZED FREE ENERGY PREDICTED BY IDOCK:   -3.65 KCAL/MOL
REMARK 922        TOTAL FREE ENERGY PREDICTED BY IDOCK:  -13.50 KCAL/MOL
REMARK 923 INTER-LIGAND FREE ENERGY PREDICTED BY IDOCK:  -10.26 KCAL/MOL
REMARK 924 INTRA-LIGAND FREE ENERGY PREDICTED BY IDOCK:   -3.24 KCAL/MOL
REMARK 927      BINDING AFFINITY PREDICTED BY RF-SCORE:    0.00 PKD
ROOT
HETATM    1  C   UNL     1     -11.400   5.427  72.912  1.00  0.00    -0.365 C  
HETATM    2  C   UNL     1     -11.931   6.363  71.842  1.00  0.00    -0.381 C  
ENDROOT
BRANCH   2   3
HETATM    3  C   UNL     1     -11.983   7.816  72.321  1.00  0.00    -0.356 C  
BRANCH   3   4
HETATM    4  C   UNL     1     -13.092   8.556  71.581  1.00  0.00    -0.341 C  
BRANCH   4   5
HETATM    5  N   UNL     1     -13.528   9.742  72.309  1.00  0.00    -0.586 NA 
HETATM    6  H   UNL     1     -14.055   9.662  73.179  1.00  0.00     0.000 HD 
BRANCH   5   7
HETATM    7  C   UNL     1     -13.198  10.998  71.773  1.00  0.00    -0.400 A  
HETATM    8  C   UNL     1     -12.340  11.160  70.677  1.00  0.00    -0.482 A  
HETATM    9  C   UNL     1     -11.973  12.425  70.219  1.00  0.00    -0.371 A  
HETATM   10  C   UNL     1     -12.430  13.574  70.869  1.00  0.00    -0.448 A  
HETATM   11  C   UNL     1     -13.637  12.157  72.430  1.00  0.00    -0.087 A  
HETATM   12  C   UNL     1     -13.264  13.436  71.984  1.00  0.00    -0.531 A  
BRANCH  10  13
HETATM   13  C   UNL     1     -11.968  14.883  70.341  1.00  0.00    -0.314 C  
HETATM   14  O   UNL     1     -12.304  15.955  70.824  1.00  0.00    -0.406 OA 
BRANCH  13  15
HETATM   15  O   UNL     1     -11.169  14.723  69.262  1.00  0.00    -0.256 OA 
BRANCH  15  16
HETATM   16  C   UNL     1     -11.596  15.439  68.088  1.00  0.00    -0.319 C  
BRANCH  16  17
HETATM   17  C   UNL     1     -10.904  16.798  67.984  1.00  0.00    -0.341 C  
BRANCH  17  18
HETATM   18  O   UNL     1      -9.527  16.602  67.646  1.00  0.00    -0.223 OA 
BRANCH  18  19
HETATM   19  C   UNL     1      -8.680  17.459  68.407  1.00  0.00    -0.271 C  
BRANCH  19  20
HETATM   20  C   UNL     1      -7.395  16.722  68.760  1.00  0.00    -0.227 C  
BRANCH  20  21
HETATM   21  O   UNL     1      -7.719  15.567  69.531  1.00  0.00    -0.220 OA 
BRANCH  21  22
HETATM   22  C   UNL     1      -6.546  14.914  70.010  1.00  0.00    -0.162 C  
BRANCH  22  23
HETATM   23  C   UNL     1      -6.531  13.478  69.504  1.00  0.00    -0.089 C  
BRANCH  23  24
HETATM   24  O   UNL     1      -6.048  13.461  68.162  1.00  0.00    -0.086 OA 
BRANCH  24  25
HETATM   25  C   UNL     1      -6.781  12.536  67.361  1.00  0.00    -0.147 C  
BRANCH  25  26
HETATM   26  C   UNL     1      -8.164  12.342  67.966  1.00  0.00    -0.163 C  
BRANCH  26  27
HETATM   27  O   UNL     1      -9.142  12.850  67.063  1.00  0.00    -0.214 OA 
BRANCH  27  28
HETATM   28  C   UNL     1     -10.294  12.012  67.025  1.00  0.00    -0.211 C  
BRANCH  28  29
HETATM   29  C   UNL     1     -10.007  10.739  67.806  1.00  0.00    -0.171 C  
BRANCH  29  30
HETATM   30  O   UNL     1     -10.904   9.720  67.373  1.00  0.00    -0.274 OA 
BRANCH  30  31
HETATM   31  C   UNL     1     -10.248   8.786  66.519  1.00  0.00    -0.244 C  
BRANCH  31  32
HETATM   32  C   UNL     1     -10.553   7.376  67.001  1.00  0.00    -0.344 C  
BRANCH  32  33
HETATM   33  O   UNL     1     -10.483   7.349  68.423  1.00  0.00    -0.195 OA 
BRANCH  33  34
HETATM   34  C   UNL     1      -9.429   6.500  68.868  1.00  0.00    -0.129 C  
BRANCH  34  35
HETATM   35  C   UNL     1      -9.986   5.103  69.102  1.00  0.00    -0.203 C  
BRANCH  35  36
HETATM   36  O   UNL     1      -8.965   4.286  69.669  1.00  0.00    -0.088 OA 
BRANCH  36  37
HETATM   37  C   UNL     1      -7.863   5.073  70.115  1.00  0.00    -0.067 C  
BRANCH  37  38
HETATM   38  C   UNL     1      -7.682   4.868  71.612  1.00  0.00    -0.097 C  
BRANCH  38  39
HETATM   39  O   UNL     1      -7.783   6.127  72.271  1.00  0.00    -0.099 OA 
BRANCH  39  40
HETATM   40  C   UNL     1      -7.095   7.146  71.547  1.00  0.00    -0.069 C  
BRANCH  40  41
HETATM   41  C   UNL     1      -7.743   8.491  71.843  1.00  0.00    -0.104 C  
BRANCH  41  42
HETATM   42  O   UNL     1      -7.998   9.173  70.617  1.00  0.00    -0.123 OA 
HETATM   43  C   UNL     1      -6.796   9.405  69.895  1.00  0.00    -0.061 C  
ENDBRANCH  41  42
ENDBRANCH  40  41
ENDBRANCH  39  40
ENDBRANCH  38  39
ENDBRANCH  37  38
ENDBRANCH  36  37
ENDBRANCH  35  36
ENDBRANCH  34  35
ENDBRANCH  33  34
ENDBRANCH  32  33
ENDBRANCH  31  32
ENDBRANCH  30  31
ENDBRANCH  29  30
ENDBRANCH  28  29
ENDBRANCH  27  28
ENDBRANCH  26  27
ENDBRANCH  25  26
ENDBRANCH  24  25
ENDBRANCH  23  24
ENDBRANCH  22  23
ENDBRANCH  21  22
ENDBRANCH  20  21
ENDBRANCH  19  20
ENDBRANCH  18  19
ENDBRANCH  17  18
ENDBRANCH  16  17
ENDBRANCH  15  16
ENDBRANCH  13  15
ENDBRANCH  10  13
ENDBRANCH   5   7
ENDBRANCH   4   5
ENDBRANCH   3   4
ENDBRANCH   2   3
TORSDOF 33
ENDMDL
MODEL       96
REMARK 921   NORMALIZED FREE ENERGY PREDICTED BY IDOCK:   -3.65 KCAL/MOL
REMARK 922        TOTAL FREE ENERGY PREDICTED BY IDOCK:  -13.48 KCAL/MOL
REMARK 923 INTER-LIGAND FREE ENERGY PREDICTED BY IDOCK:  -10.54 KCAL/MOL
REMARK 924 INTRA-LIGAND FREE ENERGY PREDICTED BY IDOCK:   -2.94 KCAL/MOL
REMARK 927      BINDING AFFINITY PREDICTED BY RF-SCORE:    0.00 PKD
ROOT
HETATM    1  C   UNL     1      -6.962   4.382  64.265  1.00  0.00    -0.046 C  
HETATM    2  C   UNL     1      -7.572   4.439  65.653  1.00  0.00    -0.085 C  
ENDROOT
BRANCH   2   3
HETATM    3  C   UNL     1      -8.917   5.170  65.663  1.00  0.00    -0.154 C  
BRANCH   3   4
HETATM    4  C   UNL     1      -9.918   4.382  66.502  1.00  0.00    -0.223 C  
BRANCH   4   5
HETATM    5  N   UNL     1      -9.400   4.100  67.836  1.00  0.00    -0.152 NA 
HETATM    6  H   UNL     1      -8.722   3.354  67.991  1.00  0.00     0.000 HD 
BRANCH   5   7
HETATM    7  C   UNL     1      -9.865   4.890  68.899  1.00  0.00    -0.170 A  
HETATM    8  C   UNL     1      -9.425   4.731  70.220  1.00  0.00    -0.243 A  
HETATM    9  C   UNL     1      -9.964   5.481  71.265  1.00  0.00    -0.249 A  
HETATM   10  C   UNL     1     -10.990   6.397  71.023  1.00  0.00    -0.328 A  
HETATM   11  C   UNL     1     -10.908   5.799  68.669  1.00  0.00    -0.270 A  
HETATM   12  C   UNL     1     -11.466   6.553  69.716  1.00  0.00    -0.443 A  
BRANCH  10  13
HETATM   13  C   UNL     1     -11.534   7.133  72.192  1.00  0.00    -0.269 C  
HETATM   14  O   UNL     1     -10.876   7.381  73.192  1.00  0.00    -0.343 OA 
BRANCH  13  15
HETATM   15  O   UNL     1     -12.835   7.453  72.008  1.00  0.00    -0.273 OA 
BRANCH  15  16
HETATM   16  C   UNL     1     -13.216   8.741  72.527  1.00  0.00    -0.347 C  
BRANCH  16  17
HETATM   17  C   UNL     1     -13.342   9.775  71.409  1.00  0.00    -0.371 C  
BRANCH  17  18
HETATM   18  O   UNL     1     -12.115  10.505  71.301  1.00  0.00    -0.354 OA 
BRANCH  18  19
HETATM   19  C   UNL     1     -12.250  11.617  70.419  1.00  0.00    -0.347 C  
BRANCH  19  20
HETATM   20  C   UNL     1     -11.209  11.518  69.312  1.00  0.00    -0.272 C  
BRANCH  20  21
HETATM   21  O   UNL     1     -11.652  10.570  68.342  1.00  0.00    -0.321 OA 
BRANCH  21  22
HETATM   22  C   UNL     1     -10.687   9.539  68.144  1.00  0.00    -0.197 C  
BRANCH  22  23
HETATM   23  C   UNL     1      -9.532   9.742  69.116  1.00  0.00    -0.188 C  
BRANCH  23  24
HETATM   24  O   UNL     1      -8.688   8.594  69.085  1.00  0.00    -0.134 OA 
BRANCH  24  25
HETATM   25  C   UNL     1      -7.381   8.926  68.621  1.00  0.00    -0.077 C  
BRANCH  25  26
HETATM   26  C   UNL     1      -7.244  10.441  68.563  1.00  0.00    -0.084 C  
BRANCH  26  27
HETATM   27  O   UNL     1      -7.184  10.850  67.200  1.00  0.00    -0.093 OA 
BRANCH  27  28
HETATM   28  C   UNL     1      -7.491  12.235  67.063  1.00  0.00    -0.063 C  
BRANCH  28  29
HETATM   29  C   UNL     1      -8.930  12.379  66.592  1.00  0.00    -0.184 C  
BRANCH  29  30
HETATM   30  O   UNL     1      -9.180  11.415  65.572  1.00  0.00    -0.217 OA 
BRANCH  30  31
HETATM   31  C   UNL     1      -9.801  12.015  64.438  1.00  0.00    -0.155 C  
BRANCH  31  32
HETATM   32  C   UNL     1     -11.163  11.373  64.222  1.00  0.00    -0.232 C  
BRANCH  32  33
HETATM   33  O   UNL     1     -12.148  12.398  64.139  1.00  0.00    -0.394 OA 
BRANCH  33  34
HETATM   34  C   UNL     1     -12.525  12.854  65.435  1.00  0.00    -0.454 C  
BRANCH  34  35
HETATM   35  C   UNL     1     -12.774  14.354  65.377  1.00  0.00    -0.285 C  
BRANCH  35  36
HETATM   36  O   UNL     1     -11.612  14.997  64.857  1.00  0.00    -0.386 OA 
BRANCH  36  37
HETATM   37  C   UNL     1     -10.612  15.146  65.862  1.00  0.00    -0.337 C  
BRANCH  37  38
HETATM   38  C   UNL     1     -10.757  16.518  66.505  1.00  0.00    -0.144 C  
BRANCH  38  39
HETATM   39  O   UNL     1     -10.219  16.475  67.823  1.00  0.00    -0.261 OA 
BRANCH  39  40
HETATM   40  C   UNL     1     -10.829  15.442  68.597  1.00  0.00    -0.259 C  
BRANCH  40  41
HETATM   41  C   UNL     1     -11.385  16.043  69.880  1.00  0.00    -0.340 C  
BRANCH  41  42
HETATM   42  O   UNL     1     -10.933  15.278  70.995  1.00  0.00    -0.321 OA 
HETATM   43  C   UNL     1     -11.694  15.565  72.161  1.00  0.00    -0.476 C  
ENDBRANCH  41  42
ENDBRANCH  40  41
ENDBRANCH  39  40
ENDBRANCH  38  39
ENDBRANCH  37  38
ENDBRANCH  36  37
ENDBRANCH  35  36
ENDBRANCH  34  35
ENDBRANCH  33  34
ENDBRANCH  32  33
ENDBRANCH  31  32
ENDBRANCH  30  31
ENDBRANCH  29  30
ENDBRANCH  28  29
ENDBRANCH  27  28
ENDBRANCH  26  27
ENDBRANCH  25  26
ENDBRANCH  24  25
ENDBRANCH  23  24
ENDBRANCH  22  23
ENDBRANCH  21  22
ENDBRANCH  20  21
ENDBRANCH  19  20
ENDBRANCH  18  19
ENDBRANCH  17  18
ENDBRANCH  16  17
ENDBRANCH  15  16
ENDBRANCH  13  15
ENDBRANCH  10  13
ENDBRANCH   5   7
ENDBRANCH   4   5
ENDBRANCH   3   4
ENDBRANCH   2   3
TORSDOF 33
ENDMDL
MODEL       97
REMARK 921   NORMALIZED FREE ENERGY PREDICTED BY IDOCK:   -3.64 KCAL/MOL
REMARK 922        TOTAL FREE ENERGY PREDICTED BY IDOCK:  -13.48 KCAL/MOL
REMARK 923 INTER-LIGAND FREE ENERGY PREDICTED BY IDOCK:  -10.77 KCAL/MOL
REMARK 924 INTRA-LIGAND FREE ENERGY PREDICTED BY IDOCK:   -2.70 KCAL/MOL
REMARK 927      BINDING AFFINITY PREDICTED BY RF-SCORE:    0.00 PKD
ROOT
HETATM    1  C   UNL     1      -9.490   2.794  70.454  1.00  0.00    -0.193 C  
HETATM    2  C   UNL     1      -9.943   4.224  70.682  1.00  0.00    -0.218 C  
ENDROOT
BRANCH   2   3
HETATM    3  C   UNL     1      -9.708   4.681  72.124  1.00  0.00    -0.219 C  
BRANCH   3   4
HETATM    4  C   UNL     1     -11.049   4.959  72.795  1.00  0.00    -0.210 C  
BRANCH   4   5
HETATM    5  N   UNL     1     -11.071   6.271  73.431  1.00  0.00    -0.462 NA 
HETATM    6  H   UNL     1     -10.969   6.369  74.441  1.00  0.00     0.000 HD 
BRANCH   5   7
HETATM    7  C   UNL     1     -11.238   7.396  72.607  1.00  0.00    -0.332 A  
HETATM    8  C   UNL     1     -10.213   8.317  72.352  1.00  0.00    -0.397 A  
HETATM    9  C   UNL     1     -10.435   9.464  71.590  1.00  0.00    -0.204 A  
HETATM   10  C   UNL     1     -11.706   9.743  71.085  1.00  0.00    -0.465 A  
HETATM   11  C   UNL     1     -12.516   7.695  72.110  1.00  0.00    -0.249 A  
HETATM   12  C   UNL     1     -12.753   8.853  71.351  1.00  0.00    -0.350 A  
BRANCH  10  13
HETATM   13  C   UNL     1     -11.870  11.001  70.312  1.00  0.00    -0.367 C  
HETATM   14  O   UNL     1     -12.283  12.040  70.806  1.00  0.00    -0.377 OA 
BRANCH  13  15
HETATM   15  O   UNL     1     -11.535  10.827  69.014  1.00  0.00    -0.262 OA 
BRANCH  15  16
HETATM   16  C   UNL     1     -10.449  11.655  68.558  1.00  0.00    -0.217 C  
BRANCH  16  17
HETATM   17  C   UNL     1      -9.372  10.824  67.860  1.00  0.00    -0.150 C  
BRANCH  17  18
HETATM   18  O   UNL     1      -9.468   9.465  68.297  1.00  0.00    -0.137 OA 
BRANCH  18  19
HETATM   19  C   UNL     1      -8.781   8.586  67.409  1.00  0.00    -0.134 C  
BRANCH  19  20
HETATM   20  C   UNL     1      -7.444   8.188  68.021  1.00  0.00    -0.097 C  
BRANCH  20  21
HETATM   21  O   UNL     1      -6.404   8.929  67.384  1.00  0.00    -0.055 OA 
BRANCH  21  22
HETATM   22  C   UNL     1      -6.703   9.173  66.012  1.00  0.00    -0.076 C  
BRANCH  22  23
HETATM   23  C   UNL     1      -5.607  10.043  65.409  1.00  0.00    -0.071 C  
BRANCH  23  24
HETATM   24  O   UNL     1      -5.853  10.204  64.014  1.00  0.00    -0.120 OA 
BRANCH  24  25
HETATM   25  C   UNL     1      -6.125   8.951  63.390  1.00  0.00    -0.088 C  
BRANCH  25  26
HETATM   26  C   UNL     1      -7.316   9.109  62.456  1.00  0.00    -0.096 C  
BRANCH  26  27
HETATM   27  O   UNL     1      -7.923  10.377  62.688  1.00  0.00    -0.146 OA 
BRANCH  27  28
HETATM   28  C   UNL     1      -9.338  10.256  62.813  1.00  0.00    -0.314 C  
BRANCH  28  29
HETATM   29  C   UNL     1      -9.700  10.174  64.289  1.00  0.00    -0.258 C  
BRANCH  29  30
HETATM   30  O   UNL     1     -10.804  11.039  64.541  1.00  0.00    -0.313 OA 
BRANCH  30  31
HETATM   31  C   UNL     1     -11.277  11.634  63.336  1.00  0.00    -0.310 C  
BRANCH  31  32
HETATM   32  C   UNL     1     -11.876  12.995  63.658  1.00  0.00    -0.516 C  
BRANCH  32  33
HETATM   33  O   UNL     1     -13.006  12.813  64.506  1.00  0.00    -0.730 OA 
BRANCH  33  34
HETATM   34  C   UNL     1     -13.026  13.783  65.549  1.00  0.00    -0.315 C  
BRANCH  34  35
HETATM   35  C   UNL     1     -11.619  13.939  66.105  1.00  0.00    -0.359 C  
BRANCH  35  36
HETATM   36  O   UNL     1     -11.202  15.292  65.937  1.00  0.00    -0.322 OA 
BRANCH  36  37
HETATM   37  C   UNL     1      -9.924  15.364  65.311  1.00  0.00    -0.270 C  
BRANCH  37  38
HETATM   38  C   UNL     1      -8.936  16.006  66.274  1.00  0.00    -0.345 C  
BRANCH  38  39
HETATM   39  O   UNL     1      -8.349  14.992  67.086  1.00  0.00    -0.189 OA 
BRANCH  39  40
HETATM   40  C   UNL     1      -8.754  15.122  68.448  1.00  0.00    -0.169 C  
BRANCH  40  41
HETATM   41  C   UNL     1      -8.377  16.509  68.950  1.00  0.00    -0.241 C  
BRANCH  41  42
HETATM   42  O   UNL     1      -7.115  16.445  69.612  1.00  0.00    -0.190 OA 
HETATM   43  C   UNL     1      -6.283  17.536  69.245  1.00  0.00    -0.239 C  
ENDBRANCH  41  42
ENDBRANCH  40  41
ENDBRANCH  39  40
ENDBRANCH  38  39
ENDBRANCH  37  38
ENDBRANCH  36  37
ENDBRANCH  35  36
ENDBRANCH  34  35
ENDBRANCH  33  34
ENDBRANCH  32  33
ENDBRANCH  31  32
ENDBRANCH  30  31
ENDBRANCH  29  30
ENDBRANCH  28  29
ENDBRANCH  27  28
ENDBRANCH  26  27
ENDBRANCH  25  26
ENDBRANCH  24  25
ENDBRANCH  23  24
ENDBRANCH  22  23
ENDBRANCH  21  22
ENDBRANCH  20  21
ENDBRANCH  19  20
ENDBRANCH  18  19
ENDBRANCH  17  18
ENDBRANCH  16  17
ENDBRANCH  15  16
ENDBRANCH  13  15
ENDBRANCH  10  13
ENDBRANCH   5   7
ENDBRANCH   4   5
ENDBRANCH   3   4
ENDBRANCH   2   3
TORSDOF 33
ENDMDL
MODEL       98
REMARK 921   NORMALIZED FREE ENERGY PREDICTED BY IDOCK:   -3.64 KCAL/MOL
REMARK 922        TOTAL FREE ENERGY PREDICTED BY IDOCK:  -13.46 KCAL/MOL
REMARK 923 INTER-LIGAND FREE ENERGY PREDICTED BY IDOCK:  -10.61 KCAL/MOL
REMARK 924 INTRA-LIGAND FREE ENERGY PREDICTED BY IDOCK:   -2.84 KCAL/MOL
REMARK 927      BINDING AFFINITY PREDICTED BY RF-SCORE:    0.00 PKD
ROOT
HETATM    1  C   UNL     1      -8.961   2.675  69.855  1.00  0.00    -0.163 C  
HETATM    2  C   UNL     1      -9.596   3.762  70.701  1.00  0.00    -0.259 C  
ENDROOT
BRANCH   2   3
HETATM    3  C   UNL     1      -9.350   3.548  72.197  1.00  0.00    -0.178 C  
BRANCH   3   4
HETATM    4  C   UNL     1     -10.663   3.700  72.956  1.00  0.00    -0.142 C  
BRANCH   4   5
HETATM    5  N   UNL     1     -10.713   4.951  73.704  1.00  0.00    -0.265 NA 
HETATM    6  H   UNL     1     -10.562   4.968  74.713  1.00  0.00     0.000 HD 
BRANCH   5   7
HETATM    7  C   UNL     1     -10.975   6.131  72.989  1.00  0.00    -0.249 A  
HETATM    8  C   UNL     1     -10.244   7.313  73.170  1.00  0.00    -0.344 A  
HETATM    9  C   UNL     1     -10.579   8.489  72.499  1.00  0.00    -0.308 A  
HETATM   10  C   UNL     1     -11.685   8.527  71.647  1.00  0.00    -0.369 A  
HETATM   11  C   UNL     1     -12.094   6.184  72.146  1.00  0.00    -0.263 A  
HETATM   12  C   UNL     1     -12.448   7.366  71.474  1.00  0.00    -0.394 A  
BRANCH  10  13
HETATM   13  C   UNL     1     -11.998   9.824  70.996  1.00  0.00    -0.352 C  
HETATM   14  O   UNL     1     -12.426  10.793  71.607  1.00  0.00    -0.354 OA 
BRANCH  13  15
HETATM   15  O   UNL     1     -11.776   9.771  69.663  1.00  0.00    -0.067 OA 
BRANCH  15  16
HETATM   16  C   UNL     1     -10.442  10.135  69.262  1.00  0.00    -0.225 C  
BRANCH  16  17
HETATM   17  C   UNL     1      -9.816   9.059  68.375  1.00  0.00    -0.166 C  
BRANCH  17  18
HETATM   18  O   UNL     1     -10.653   7.897  68.380  1.00  0.00    -0.188 OA 
BRANCH  18  19
HETATM   19  C   UNL     1     -10.840   7.388  67.062  1.00  0.00    -0.237 C  
BRANCH  19  20
HETATM   20  C   UNL     1     -10.786   5.867  67.092  1.00  0.00    -0.285 C  
BRANCH  20  21
HETATM   21  O   UNL     1      -9.469   5.442  66.745  1.00  0.00    -0.128 OA 
BRANCH  21  22
HETATM   22  C   UNL     1      -8.858   6.340  65.822  1.00  0.00    -0.111 C  
BRANCH  22  23
HETATM   23  C   UNL     1      -7.552   5.733  65.325  1.00  0.00    -0.085 C  
BRANCH  23  24
HETATM   24  O   UNL     1      -7.036   6.536  64.266  1.00  0.00    -0.054 OA 
BRANCH  24  25
HETATM   25  C   UNL     1      -7.997   6.694  63.224  1.00  0.00    -0.076 C  
BRANCH  25  26
HETATM   26  C   UNL     1      -7.857   8.086  62.625  1.00  0.00    -0.139 C  
BRANCH  26  27
HETATM   27  O   UNL     1      -7.136   8.912  63.535  1.00  0.00    -0.089 OA 
BRANCH  27  28
HETATM   28  C   UNL     1      -7.777  10.174  63.704  1.00  0.00    -0.142 C  
BRANCH  28  29
HETATM   29  C   UNL     1      -8.660  10.119  64.942  1.00  0.00    -0.178 C  
BRANCH  29  30
HETATM   30  O   UNL     1      -9.602  11.188  64.884  1.00  0.00    -0.223 OA 
BRANCH  30  31
HETATM   31  C   UNL     1     -10.357  11.143  63.676  1.00  0.00    -0.389 C  
BRANCH  31  32
HETATM   32  C   UNL     1     -11.224  12.390  63.589  1.00  0.00    -0.474 C  
BRANCH  32  33
HETATM   33  O   UNL     1     -12.282  12.283  64.535  1.00  0.00    -0.410 OA 
BRANCH  33  34
HETATM   34  C   UNL     1     -12.417  13.483  65.291  1.00  0.00    -0.482 C  
BRANCH  34  35
HETATM   35  C   UNL     1     -11.803  14.633  64.506  1.00  0.00    -0.431 C  
BRANCH  35  36
HETATM   36  O   UNL     1     -11.117  15.496  65.410  1.00  0.00    -0.337 OA 
BRANCH  36  37
HETATM   37  C   UNL     1      -9.732  15.167  65.486  1.00  0.00    -0.268 C  
BRANCH  37  38
HETATM   38  C   UNL     1      -9.374  14.864  66.934  1.00  0.00    -0.241 C  
BRANCH  38  39
HETATM   39  O   UNL     1      -8.827  16.034  67.534  1.00  0.00    -0.185 OA 
BRANCH  39  40
HETATM   40  C   UNL     1      -9.433  16.298  68.799  1.00  0.00    -0.237 C  
BRANCH  40  41
HETATM   41  C   UNL     1     -10.700  17.114  68.583  1.00  0.00    -0.306 C  
BRANCH  41  42
HETATM   42  O   UNL     1     -10.450  18.127  67.611  1.00  0.00    -0.385 OA 
HETATM   43  C   UNL     1     -10.050  19.345  68.225  1.00  0.00    -0.433 C  
ENDBRANCH  41  42
ENDBRANCH  40  41
ENDBRANCH  39  40
ENDBRANCH  38  39
ENDBRANCH  37  38
ENDBRANCH  36  37
ENDBRANCH  35  36
ENDBRANCH  34  35
ENDBRANCH  33  34
ENDBRANCH  32  33
ENDBRANCH  31  32
ENDBRANCH  30  31
ENDBRANCH  29  30
ENDBRANCH  28  29
ENDBRANCH  27  28
ENDBRANCH  26  27
ENDBRANCH  25  26
ENDBRANCH  24  25
ENDBRANCH  23  24
ENDBRANCH  22  23
ENDBRANCH  21  22
ENDBRANCH  20  21
ENDBRANCH  19  20
ENDBRANCH  18  19
ENDBRANCH  17  18
ENDBRANCH  16  17
ENDBRANCH  15  16
ENDBRANCH  13  15
ENDBRANCH  10  13
ENDBRANCH   5   7
ENDBRANCH   4   5
ENDBRANCH   3   4
ENDBRANCH   2   3
TORSDOF 33
ENDMDL
MODEL       99
REMARK 921   NORMALIZED FREE ENERGY PREDICTED BY IDOCK:   -3.64 KCAL/MOL
REMARK 922        TOTAL FREE ENERGY PREDICTED BY IDOCK:  -13.45 KCAL/MOL
REMARK 923 INTER-LIGAND FREE ENERGY PREDICTED BY IDOCK:  -10.69 KCAL/MOL
REMARK 924 INTRA-LIGAND FREE ENERGY PREDICTED BY IDOCK:   -2.76 KCAL/MOL
REMARK 927      BINDING AFFINITY PREDICTED BY RF-SCORE:    0.00 PKD
ROOT
HETATM    1  C   UNL     1     -12.379  15.160  74.247  1.00  0.00    -0.675 C  
HETATM    2  C   UNL     1     -12.832  16.187  73.226  1.00  0.00    -0.592 C  
ENDROOT
BRANCH   2   3
HETATM    3  C   UNL     1     -12.090  16.044  71.895  1.00  0.00    -0.590 C  
BRANCH   3   4
HETATM    4  C   UNL     1     -13.006  15.384  70.870  1.00  0.00    -0.478 C  
BRANCH   4   5
HETATM    5  N   UNL     1     -12.289  14.410  70.055  1.00  0.00    -0.370 NA 
HETATM    6  H   UNL     1     -11.787  14.695  69.213  1.00  0.00     0.000 HD 
BRANCH   5   7
HETATM    7  C   UNL     1     -12.311  13.068  70.467  1.00  0.00    -0.287 A  
HETATM    8  C   UNL     1     -11.724  12.031  69.729  1.00  0.00    -0.390 A  
HETATM    9  C   UNL     1     -11.831  10.699  70.128  1.00  0.00    -0.421 A  
HETATM   10  C   UNL     1     -12.562  10.359  71.268  1.00  0.00    -0.525 A  
HETATM   11  C   UNL     1     -13.059  12.714  71.600  1.00  0.00    -0.421 A  
HETATM   12  C   UNL     1     -13.182  11.374  72.005  1.00  0.00    -0.432 A  
BRANCH  10  13
HETATM   13  C   UNL     1     -12.658   8.916  71.609  1.00  0.00    -0.346 C  
HETATM   14  O   UNL     1     -13.708   8.370  71.918  1.00  0.00    -0.364 OA 
BRANCH  13  15
HETATM   15  O   UNL     1     -11.446   8.319  71.561  1.00  0.00    -0.256 OA 
BRANCH  15  16
HETATM   16  C   UNL     1     -10.997   7.771  72.814  1.00  0.00    -0.388 C  
BRANCH  16  17
HETATM   17  C   UNL     1     -10.202   6.482  72.604  1.00  0.00    -0.186 C  
BRANCH  17  18
HETATM   18  O   UNL     1      -9.238   6.686  71.566  1.00  0.00    -0.147 OA 
BRANCH  18  19
HETATM   19  C   UNL     1      -8.046   5.945  71.814  1.00  0.00    -0.118 C  
BRANCH  19  20
HETATM   20  C   UNL     1      -8.403   4.596  72.424  1.00  0.00    -0.115 C  
BRANCH  20  21
HETATM   21  O   UNL     1      -8.131   3.569  71.472  1.00  0.00    -0.060 OA 
BRANCH  21  22
HETATM   22  C   UNL     1      -9.296   3.230  70.723  1.00  0.00    -0.153 C  
BRANCH  22  23
HETATM   23  C   UNL     1      -8.940   3.175  69.243  1.00  0.00    -0.117 C  
BRANCH  23  24
HETATM   24  O   UNL     1      -8.848   4.504  68.735  1.00  0.00    -0.095 OA 
BRANCH  24  25
HETATM   25  C   UNL     1      -7.979   4.566  67.606  1.00  0.00    -0.096 C  
BRANCH  25  26
HETATM   26  C   UNL     1      -7.878   6.010  67.136  1.00  0.00    -0.102 C  
BRANCH  26  27
HETATM   27  O   UNL     1      -6.541   6.269  66.718  1.00  0.00    -0.051 OA 
BRANCH  27  28
HETATM   28  C   UNL     1      -6.512   7.144  65.593  1.00  0.00    -0.047 C  
BRANCH  28  29
HETATM   29  C   UNL     1      -7.922   7.286  65.040  1.00  0.00    -0.129 C  
BRANCH  29  30
HETATM   30  O   UNL     1      -8.116   8.631  64.612  1.00  0.00    -0.139 OA 
BRANCH  30  31
HETATM   31  C   UNL     1      -7.942   9.545  65.693  1.00  0.00    -0.108 C  
BRANCH  31  32
HETATM   32  C   UNL     1      -9.256   9.671  66.450  1.00  0.00    -0.163 C  
BRANCH  32  33
HETATM   33  O   UNL     1     -10.232  10.246  65.587  1.00  0.00    -0.273 OA 
BRANCH  33  34
HETATM   34  C   UNL     1     -10.965  11.271  66.253  1.00  0.00    -0.205 C  
BRANCH  34  35
HETATM   35  C   UNL     1     -11.266  12.386  65.262  1.00  0.00    -0.318 C  
BRANCH  35  36
HETATM   36  O   UNL     1     -11.002  13.641  65.884  1.00  0.00    -0.282 OA 
BRANCH  36  37
HETATM   37  C   UNL     1      -9.741  13.635  66.546  1.00  0.00    -0.292 C  
BRANCH  37  38
HETATM   38  C   UNL     1      -9.718  14.753  67.579  1.00  0.00    -0.213 C  
BRANCH  38  39
HETATM   39  O   UNL     1      -8.662  14.512  68.505  1.00  0.00    -0.169 OA 
BRANCH  39  40
HETATM   40  C   UNL     1      -8.684  15.459  69.572  1.00  0.00    -0.210 C  
BRANCH  40  41
HETATM   41  C   UNL     1      -7.897  16.695  69.157  1.00  0.00    -0.170 C  
BRANCH  41  42
HETATM   42  O   UNL     1      -6.506  16.381  69.128  1.00  0.00    -0.162 OA 
HETATM   43  C   UNL     1      -5.887  16.661  70.376  1.00  0.00    -0.041 C  
ENDBRANCH  41  42
ENDBRANCH  40  41
ENDBRANCH  39  40
ENDBRANCH  38  39
ENDBRANCH  37  38
ENDBRANCH  36  37
ENDBRANCH  35  36
ENDBRANCH  34  35
ENDBRANCH  33  34
ENDBRANCH  32  33
ENDBRANCH  31  32
ENDBRANCH  30  31
ENDBRANCH  29  30
ENDBRANCH  28  29
ENDBRANCH  27  28
ENDBRANCH  26  27
ENDBRANCH  25  26
ENDBRANCH  24  25
ENDBRANCH  23  24
ENDBRANCH  22  23
ENDBRANCH  21  22
ENDBRANCH  20  21
ENDBRANCH  19  20
ENDBRANCH  18  19
ENDBRANCH  17  18
ENDBRANCH  16  17
ENDBRANCH  15  16
ENDBRANCH  13  15
ENDBRANCH  10  13
ENDBRANCH   5   7
ENDBRANCH   4   5
ENDBRANCH   3   4
ENDBRANCH   2   3
TORSDOF 33
ENDMDL
MODEL      100
REMARK 921   NORMALIZED FREE ENERGY PREDICTED BY IDOCK:   -3.59 KCAL/MOL
REMARK 922        TOTAL FREE ENERGY PREDICTED BY IDOCK:  -13.33 KCAL/MOL
REMARK 923 INTER-LIGAND FREE ENERGY PREDICTED BY IDOCK:  -10.25 KCAL/MOL
REMARK 924 INTRA-LIGAND FREE ENERGY PREDICTED BY IDOCK:   -3.08 KCAL/MOL
REMARK 927      BINDING AFFINITY PREDICTED BY RF-SCORE:    0.00 PKD
ROOT
HETATM    1  C   UNL     1     -11.815  15.837  71.977  1.00  0.00    -0.582 C  
HETATM    2  C   UNL     1     -12.451  14.463  71.887  1.00  0.00    -0.387 C  
ENDROOT
BRANCH   2   3
HETATM    3  C   UNL     1     -12.647  14.011  70.437  1.00  0.00    -0.374 C  
BRANCH   3   4
HETATM    4  C   UNL     1     -11.830  14.905  69.511  1.00  0.00    -0.325 C  
BRANCH   4   5
HETATM    5  N   UNL     1     -12.407  14.966  68.173  1.00  0.00    -0.538 NA 
HETATM    6  H   UNL     1     -13.198  15.576  67.966  1.00  0.00     0.000 HD 
BRANCH   5   7
HETATM    7  C   UNL     1     -11.837  14.155  67.177  1.00  0.00    -0.423 A  
HETATM    8  C   UNL     1     -12.522  13.775  66.015  1.00  0.00    -0.491 A  
HETATM    9  C   UNL     1     -11.953  12.907  65.084  1.00  0.00    -0.452 A  
HETATM   10  C   UNL     1     -10.687  12.363  65.304  1.00  0.00    -0.322 A  
HETATM   11  C   UNL     1     -10.573  13.589  67.398  1.00  0.00    -0.254 A  
HETATM   12  C   UNL     1      -9.995  12.706  66.472  1.00  0.00    -0.256 A  
BRANCH  10  13
HETATM   13  C   UNL     1     -10.164  11.420  64.282  1.00  0.00    -0.315 C  
HETATM   14  O   UNL     1     -10.168  11.663  63.084  1.00  0.00    -0.385 OA 
BRANCH  13  15
HETATM   15  O   UNL     1      -9.723  10.275  64.851  1.00  0.00    -0.273 OA 
BRANCH  15  16
HETATM   16  C   UNL     1      -8.723   9.573  64.089  1.00  0.00    -0.215 C  
BRANCH  16  17
HETATM   17  C   UNL     1      -7.317  10.063  64.434  1.00  0.00    -0.138 C  
BRANCH  17  18
HETATM   18  O   UNL     1      -7.297  10.523  65.789  1.00  0.00    -0.142 OA 
BRANCH  18  19
HETATM   19  C   UNL     1      -6.908   9.484  66.683  1.00  0.00    -0.084 C  
BRANCH  19  20
HETATM   20  C   UNL     1      -7.118   9.944  68.119  1.00  0.00    -0.077 C  
BRANCH  20  21
HETATM   21  O   UNL     1      -6.497   9.010  69.002  1.00  0.00    -0.046 OA 
BRANCH  21  22
HETATM   22  C   UNL     1      -7.233   7.791  69.071  1.00  0.00    -0.080 C  
BRANCH  22  23
HETATM   23  C   UNL     1      -6.357   6.715  69.700  1.00  0.00    -0.042 C  
BRANCH  23  24
HETATM   24  O   UNL     1      -6.374   5.555  68.870  1.00  0.00    -0.034 OA 
BRANCH  24  25
HETATM   25  C   UNL     1      -6.562   5.904  67.500  1.00  0.00    -0.056 C  
BRANCH  25  26
HETATM   26  C   UNL     1      -6.525   4.638  66.656  1.00  0.00    -0.041 C  
BRANCH  26  27
HETATM   27  O   UNL     1      -7.854   4.151  66.491  1.00  0.00    -0.092 OA 
BRANCH  27  28
HETATM   28  C   UNL     1      -8.757   5.210  66.183  1.00  0.00    -0.123 C  
BRANCH  28  29
HETATM   29  C   UNL     1     -10.160   4.803  66.605  1.00  0.00    -0.245 C  
BRANCH  29  30
HETATM   30  O   UNL     1     -10.991   5.960  66.621  1.00  0.00    -0.287 OA 
BRANCH  30  31
HETATM   31  C   UNL     1     -10.745   6.755  67.778  1.00  0.00    -0.268 C  
BRANCH  31  32
HETATM   32  C   UNL     1     -10.528   8.198  67.350  1.00  0.00    -0.285 C  
BRANCH  32  33
HETATM   33  O   UNL     1     -10.417   9.013  68.513  1.00  0.00    -0.211 OA 
BRANCH  33  34
HETATM   34  C   UNL     1     -10.749   8.278  69.687  1.00  0.00    -0.194 C  
BRANCH  34  35
HETATM   35  C   UNL     1     -10.151   8.983  70.896  1.00  0.00    -0.262 C  
BRANCH  35  36
HETATM   36  O   UNL     1     -11.194   9.290  71.817  1.00  0.00    -0.362 OA 
BRANCH  36  37
HETATM   37  C   UNL     1     -11.790   8.104  72.336  1.00  0.00    -0.388 C  
BRANCH  37  38
HETATM   38  C   UNL     1     -10.785   7.397  73.235  1.00  0.00    -0.391 C  
BRANCH  38  39
HETATM   39  O   UNL     1     -10.822   5.998  72.967  1.00  0.00    -0.237 OA 
BRANCH  39  40
HETATM   40  C   UNL     1      -9.591   5.547  72.404  1.00  0.00    -0.150 C  
BRANCH  40  41
HETATM   41  C   UNL     1      -9.840   5.069  70.980  1.00  0.00    -0.198 C  
BRANCH  41  42
HETATM   42  O   UNL     1      -9.603   3.665  70.904  1.00  0.00    -0.160 OA 
HETATM   43  C   UNL     1      -8.216   3.369  70.990  1.00  0.00    -0.065 C  
ENDBRANCH  41  42
ENDBRANCH  40  41
ENDBRANCH  39  40
ENDBRANCH  38  39
ENDBRANCH  37  38
ENDBRANCH  36  37
ENDBRANCH  35  36
ENDBRANCH  34  35
ENDBRANCH  33  34
ENDBRANCH  32  33
ENDBRANCH  31  32
ENDBRANCH  30  31
ENDBRANCH  29  30
ENDBRANCH  28  29
ENDBRANCH  27  28
ENDBRANCH  26  27
ENDBRANCH  25  26
ENDBRANCH  24  25
ENDBRANCH  23  24
ENDBRANCH  22  23
ENDBRANCH  21  22
ENDBRANCH  20  21
ENDBRANCH  19  20
ENDBRANCH  18  19
ENDBRANCH  17  18
ENDBRANCH  16  17
ENDBRANCH  15  16
ENDBRANCH  13  15
ENDBRANCH  10  13
ENDBRANCH   5   7
ENDBRANCH   4   5
ENDBRANCH   3   4
ENDBRANCH   2   3
TORSDOF 33
ENDMDL
MODEL      101
REMARK 921   NORMALIZED FREE ENERGY PREDICTED BY IDOCK:   -3.58 KCAL/MOL
REMARK 922        TOTAL FREE ENERGY PREDICTED BY IDOCK:  -13.28 KCAL/MOL
REMARK 923 INTER-LIGAND FREE ENERGY PREDICTED BY IDOCK:   -9.72 KCAL/MOL
REMARK 924 INTRA-LIGAND FREE ENERGY PREDICTED BY IDOCK:   -3.56 KCAL/MOL
REMARK 927      BINDING AFFINITY PREDICTED BY RF-SCORE:    0.00 PKD
ROOT
HETATM    1  C   UNL     1     -10.134   3.686  64.354  1.00  0.00    -0.203 C  
HETATM    2  C   UNL     1      -8.865   3.925  65.150  1.00  0.00    -0.126 C  
ENDROOT
BRANCH   2   3
HETATM    3  C   UNL     1      -9.154   4.508  66.536  1.00  0.00    -0.119 C  
BRANCH   3   4
HETATM    4  C   UNL     1      -8.003   4.173  67.479  1.00  0.00    -0.091 C  
BRANCH   4   5
HETATM    5  N   UNL     1      -6.902   5.120  67.343  1.00  0.00    -0.055 NA 
HETATM    6  H   UNL     1      -6.047   4.866  66.847  1.00  0.00     0.000 HD 
BRANCH   5   7
HETATM    7  C   UNL     1      -7.057   6.392  67.916  1.00  0.00    -0.085 A  
HETATM    8  C   UNL     1      -6.981   7.579  67.175  1.00  0.00    -0.083 A  
HETATM    9  C   UNL     1      -7.064   8.829  67.788  1.00  0.00    -0.083 A  
HETATM   10  C   UNL     1      -7.193   8.930  69.175  1.00  0.00    -0.067 A  
HETATM   11  C   UNL     1      -7.168   6.505  69.309  1.00  0.00    -0.090 A  
HETATM   12  C   UNL     1      -7.242   7.758  69.939  1.00  0.00    -0.067 A  
BRANCH  10  13
HETATM   13  C   UNL     1      -7.240  10.296  69.756  1.00  0.00    -0.147 C  
HETATM   14  O   UNL     1      -6.562  10.640  70.713  1.00  0.00    -0.343 OA 
BRANCH  13  15
HETATM   15  O   UNL     1      -8.140  11.073  69.110  1.00  0.00    -0.135 OA 
BRANCH  15  16
HETATM   16  C   UNL     1      -7.586  12.259  68.510  1.00  0.00    -0.118 C  
BRANCH  16  17
HETATM   17  C   UNL     1      -8.047  12.414  67.060  1.00  0.00    -0.124 C  
BRANCH  17  18
HETATM   18  O   UNL     1      -9.248  11.661  66.864  1.00  0.00    -0.175 OA 
BRANCH  18  19
HETATM   19  C   UNL     1      -9.355  11.197  65.520  1.00  0.00    -0.223 C  
BRANCH  19  20
HETATM   20  C   UNL     1      -9.979   9.808  65.509  1.00  0.00    -0.259 C  
BRANCH  20  21
HETATM   21  O   UNL     1     -10.334   9.448  66.843  1.00  0.00    -0.242 OA 
BRANCH  21  22
HETATM   22  C   UNL     1     -10.556   8.045  66.962  1.00  0.00    -0.294 C  
BRANCH  22  23
HETATM   23  C   UNL     1     -10.572   7.664  68.437  1.00  0.00    -0.122 C  
BRANCH  23  24
HETATM   24  O   UNL     1     -11.289   6.442  68.596  1.00  0.00    -0.313 OA 
BRANCH  24  25
HETATM   25  C   UNL     1     -11.147   5.930  69.920  1.00  0.00    -0.347 C  
BRANCH  25  26
HETATM   26  C   UNL     1     -10.769   7.068  70.856  1.00  0.00    -0.235 C  
BRANCH  26  27
HETATM   27  O   UNL     1     -11.716   7.128  71.919  1.00  0.00    -0.273 OA 
BRANCH  27  28
HETATM   28  C   UNL     1     -11.808   8.447  72.453  1.00  0.00    -0.384 C  
BRANCH  28  29
HETATM   29  C   UNL     1     -13.162   9.036  72.087  1.00  0.00    -0.446 C  
BRANCH  29  30
HETATM   30  O   UNL     1     -13.005  10.430  71.834  1.00  0.00    -0.438 OA 
BRANCH  30  31
HETATM   31  C   UNL     1     -12.099  10.659  70.758  1.00  0.00    -0.374 C  
BRANCH  31  32
HETATM   32  C   UNL     1     -12.150  12.130  70.374  1.00  0.00    -0.309 C  
BRANCH  32  33
HETATM   33  O   UNL     1     -11.302  12.343  69.250  1.00  0.00    -0.259 OA 
BRANCH  33  34
HETATM   34  C   UNL     1     -11.846  13.328  68.376  1.00  0.00    -0.360 C  
BRANCH  34  35
HETATM   35  C   UNL     1     -11.901  14.660  69.109  1.00  0.00    -0.312 C  
BRANCH  35  36
HETATM   36  O   UNL     1     -11.347  15.673  68.272  1.00  0.00    -0.334 OA 
BRANCH  36  37
HETATM   37  C   UNL     1     -11.097  15.177  66.959  1.00  0.00    -0.328 C  
BRANCH  37  38
HETATM   38  C   UNL     1     -10.326  16.227  66.172  1.00  0.00    -0.341 C  
BRANCH  38  39
HETATM   39  O   UNL     1      -8.931  15.957  66.276  1.00  0.00    -0.292 OA 
BRANCH  39  40
HETATM   40  C   UNL     1      -8.183  17.160  66.452  1.00  0.00    -0.292 C  
BRANCH  40  41
HETATM   41  C   UNL     1      -9.119  18.263  66.925  1.00  0.00    -0.282 C  
BRANCH  41  42
HETATM   42  O   UNL     1      -8.672  18.752  68.188  1.00  0.00    -0.288 OA 
HETATM   43  C   UNL     1      -7.767  17.845  68.803  1.00  0.00    -0.259 C  
ENDBRANCH  41  42
ENDBRANCH  40  41
ENDBRANCH  39  40
ENDBRANCH  38  39
ENDBRANCH  37  38
ENDBRANCH  36  37
ENDBRANCH  35  36
ENDBRANCH  34  35
ENDBRANCH  33  34
ENDBRANCH  32  33
ENDBRANCH  31  32
ENDBRANCH  30  31
ENDBRANCH  29  30
ENDBRANCH  28  29
ENDBRANCH  27  28
ENDBRANCH  26  27
ENDBRANCH  25  26
ENDBRANCH  24  25
ENDBRANCH  23  24
ENDBRANCH  22  23
ENDBRANCH  21  22
ENDBRANCH  20  21
ENDBRANCH  19  20
ENDBRANCH  18  19
ENDBRANCH  17  18
ENDBRANCH  16  17
ENDBRANCH  15  16
ENDBRANCH  13  15
ENDBRANCH  10  13
ENDBRANCH   5   7
ENDBRANCH   4   5
ENDBRANCH   3   4
ENDBRANCH   2   3
TORSDOF 33
ENDMDL
MODEL      102
REMARK 921   NORMALIZED FREE ENERGY PREDICTED BY IDOCK:   -3.57 KCAL/MOL
REMARK 922        TOTAL FREE ENERGY PREDICTED BY IDOCK:  -13.26 KCAL/MOL
REMARK 923 INTER-LIGAND FREE ENERGY PREDICTED BY IDOCK:  -11.12 KCAL/MOL
REMARK 924 INTRA-LIGAND FREE ENERGY PREDICTED BY IDOCK:   -2.14 KCAL/MOL
REMARK 927      BINDING AFFINITY PREDICTED BY RF-SCORE:    0.00 PKD
ROOT
HETATM    1  C   UNL     1      -9.419  10.157  63.034  1.00  0.00    -0.292 C  
HETATM    2  C   UNL     1      -8.355   9.285  63.672  1.00  0.00    -0.185 C  
ENDROOT
BRANCH   2   3
HETATM    3  C   UNL     1      -7.884   8.170  62.735  1.00  0.00    -0.140 C  
BRANCH   3   4
HETATM    4  C   UNL     1      -7.509   6.940  63.556  1.00  0.00    -0.088 C  
BRANCH   4   5
HETATM    5  N   UNL     1      -8.640   6.032  63.714  1.00  0.00    -0.331 NA 
HETATM    6  H   UNL     1      -9.308   5.886  62.957  1.00  0.00     0.000 HD 
BRANCH   5   7
HETATM    7  C   UNL     1      -8.778   5.366  64.942  1.00  0.00    -0.096 A  
HETATM    8  C   UNL     1      -8.940   3.978  65.045  1.00  0.00    -0.133 A  
HETATM    9  C   UNL     1      -9.151   3.357  66.276  1.00  0.00    -0.160 A  
HETATM   10  C   UNL     1      -9.240   4.115  67.445  1.00  0.00    -0.180 A  
HETATM   11  C   UNL     1      -8.887   6.120  66.119  1.00  0.00    -0.158 A  
HETATM   12  C   UNL     1      -9.110   5.506  67.363  1.00  0.00    -0.110 A  
BRANCH  10  13
HETATM   13  C   UNL     1      -9.500   3.384  68.712  1.00  0.00    -0.131 C  
HETATM   14  O   UNL     1      -9.376   2.172  68.822  1.00  0.00    -0.149 OA 
BRANCH  13  15
HETATM   15  O   UNL     1      -9.911   4.224  69.688  1.00  0.00    -0.214 OA 
BRANCH  15  16
HETATM   16  C   UNL     1      -9.363   3.945  70.990  1.00  0.00    -0.152 C  
BRANCH  16  17
HETATM   17  C   UNL     1      -8.039   4.677  71.204  1.00  0.00    -0.088 C  
BRANCH  17  18
HETATM   18  O   UNL     1      -8.300   5.979  71.738  1.00  0.00    -0.118 OA 
BRANCH  18  19
HETATM   19  C   UNL     1      -8.370   5.949  73.162  1.00  0.00    -0.116 C  
BRANCH  19  20
HETATM   20  C   UNL     1      -9.536   6.809  73.631  1.00  0.00    -0.198 C  
BRANCH  20  21
HETATM   21  O   UNL     1     -10.635   5.960  73.961  1.00  0.00    -0.270 OA 
BRANCH  21  22
HETATM   22  C   UNL     1     -11.529   5.814  72.860  1.00  0.00    -0.212 C  
BRANCH  22  23
HETATM   23  C   UNL     1     -11.680   7.158  72.159  1.00  0.00    -0.284 C  
BRANCH  23  24
HETATM   24  O   UNL     1     -12.742   7.072  71.210  1.00  0.00    -0.377 OA 
BRANCH  24  25
HETATM   25  C   UNL     1     -13.841   7.897  71.590  1.00  0.00    -0.379 C  
BRANCH  25  26
HETATM   26  C   UNL     1     -13.322   9.280  71.957  1.00  0.00    -0.450 C  
BRANCH  26  27
HETATM   27  O   UNL     1     -13.173  10.050  70.767  1.00  0.00    -0.348 OA 
BRANCH  27  28
HETATM   28  C   UNL     1     -12.482  11.270  71.026  1.00  0.00    -0.400 C  
BRANCH  28  29
HETATM   29  C   UNL     1     -12.048  11.884  69.704  1.00  0.00    -0.239 C  
BRANCH  29  30
HETATM   30  O   UNL     1     -12.204  10.913  68.672  1.00  0.00    -0.533 OA 
BRANCH  30  31
HETATM   31  C   UNL     1     -11.024  10.813  67.879  1.00  0.00    -0.289 C  
BRANCH  31  32
HETATM   32  C   UNL     1     -10.995  11.965  66.887  1.00  0.00    -0.289 C  
BRANCH  32  33
HETATM   33  O   UNL     1     -12.277  12.083  66.278  1.00  0.00    -0.548 OA 
BRANCH  33  34
HETATM   34  C   UNL     1     -12.248  13.006  65.193  1.00  0.00    -0.459 C  
BRANCH  34  35
HETATM   35  C   UNL     1     -11.766  14.355  65.706  1.00  0.00    -0.362 C  
BRANCH  35  36
HETATM   36  O   UNL     1     -10.517  14.665  65.092  1.00  0.00    -0.365 OA 
BRANCH  36  37
HETATM   37  C   UNL     1      -9.609  15.235  66.031  1.00  0.00    -0.338 C  
BRANCH  37  38
HETATM   38  C   UNL     1     -10.400  15.811  67.197  1.00  0.00    -0.291 C  
BRANCH  38  39
HETATM   39  O   UNL     1      -9.663  15.617  68.401  1.00  0.00    -0.198 OA 
BRANCH  39  40
HETATM   40  C   UNL     1     -10.360  14.753  69.299  1.00  0.00    -0.206 C  
BRANCH  40  41
HETATM   41  C   UNL     1     -11.030  15.593  70.378  1.00  0.00    -0.348 C  
BRANCH  41  42
HETATM   42  O   UNL     1     -12.426  15.687  70.105  1.00  0.00    -0.389 OA 
HETATM   43  C   UNL     1     -13.199  15.454  71.275  1.00  0.00    -0.510 C  
ENDBRANCH  41  42
ENDBRANCH  40  41
ENDBRANCH  39  40
ENDBRANCH  38  39
ENDBRANCH  37  38
ENDBRANCH  36  37
ENDBRANCH  35  36
ENDBRANCH  34  35
ENDBRANCH  33  34
ENDBRANCH  32  33
ENDBRANCH  31  32
ENDBRANCH  30  31
ENDBRANCH  29  30
ENDBRANCH  28  29
ENDBRANCH  27  28
ENDBRANCH  26  27
ENDBRANCH  25  26
ENDBRANCH  24  25
ENDBRANCH  23  24
ENDBRANCH  22  23
ENDBRANCH  21  22
ENDBRANCH  20  21
ENDBRANCH  19  20
ENDBRANCH  18  19
ENDBRANCH  17  18
ENDBRANCH  16  17
ENDBRANCH  15  16
ENDBRANCH  13  15
ENDBRANCH  10  13
ENDBRANCH   5   7
ENDBRANCH   4   5
ENDBRANCH   3   4
ENDBRANCH   2   3
TORSDOF 33
ENDMDL
MODEL      103
REMARK 921   NORMALIZED FREE ENERGY PREDICTED BY IDOCK:   -3.57 KCAL/MOL
REMARK 922        TOTAL FREE ENERGY PREDICTED BY IDOCK:  -13.25 KCAL/MOL
REMARK 923 INTER-LIGAND FREE ENERGY PREDICTED BY IDOCK:   -9.88 KCAL/MOL
REMARK 924 INTRA-LIGAND FREE ENERGY PREDICTED BY IDOCK:   -3.37 KCAL/MOL
REMARK 927      BINDING AFFINITY PREDICTED BY RF-SCORE:    0.00 PKD
ROOT
HETATM    1  C   UNL     1      -9.096   8.345  72.554  1.00  0.00    -0.326 C  
HETATM    2  C   UNL     1      -9.505   8.989  71.243  1.00  0.00    -0.339 C  
ENDROOT
BRANCH   2   3
HETATM    3  C   UNL     1     -10.981   9.392  71.233  1.00  0.00    -0.440 C  
BRANCH   3   4
HETATM    4  C   UNL     1     -11.798   8.351  71.991  1.00  0.00    -0.353 C  
BRANCH   4   5
HETATM    5  N   UNL     1     -12.377   7.360  71.090  1.00  0.00    -0.415 NA 
HETATM    6  H   UNL     1     -13.371   7.374  70.861  1.00  0.00     0.000 HD 
BRANCH   5   7
HETATM    7  C   UNL     1     -11.521   6.388  70.548  1.00  0.00    -0.379 A  
HETATM    8  C   UNL     1     -10.782   5.495  71.336  1.00  0.00    -0.290 A  
HETATM    9  C   UNL     1      -9.883   4.592  70.769  1.00  0.00    -0.284 A  
HETATM   10  C   UNL     1      -9.669   4.579  69.389  1.00  0.00    -0.272 A  
HETATM   11  C   UNL     1     -11.285   6.379  69.166  1.00  0.00    -0.421 A  
HETATM   12  C   UNL     1     -10.374   5.482  68.584  1.00  0.00    -0.255 A  
BRANCH  10  13
HETATM   13  C   UNL     1      -8.671   3.613  68.864  1.00  0.00    -0.093 C  
HETATM   14  O   UNL     1      -8.365   3.542  67.683  1.00  0.00    -0.087 OA 
BRANCH  13  15
HETATM   15  O   UNL     1      -8.187   2.823  69.850  1.00  0.00    -0.041 OA 
BRANCH  15  16
HETATM   16  C   UNL     1      -6.750   2.749  69.908  1.00  0.00    -0.033 C  
BRANCH  16  17
HETATM   17  C   UNL     1      -6.194   3.610  71.042  1.00  0.00    -0.018 C  
BRANCH  17  18
HETATM   18  O   UNL     1      -5.669   4.825  70.498  1.00  0.00    -0.014 OA 
BRANCH  18  19
HETATM   19  C   UNL     1      -6.352   5.963  71.017  1.00  0.00    -0.040 C  
BRANCH  19  20
HETATM   20  C   UNL     1      -6.797   6.858  69.868  1.00  0.00    -0.050 C  
BRANCH  20  21
HETATM   21  O   UNL     1      -6.553   6.184  68.634  1.00  0.00    -0.053 OA 
BRANCH  21  22
HETATM   22  C   UNL     1      -7.049   6.932  67.526  1.00  0.00    -0.085 C  
BRANCH  22  23
HETATM   23  C   UNL     1      -7.454   8.321  68.003  1.00  0.00    -0.097 C  
BRANCH  23  24
HETATM   24  O   UNL     1      -8.717   8.660  67.433  1.00  0.00    -0.132 OA 
BRANCH  24  25
HETATM   25  C   UNL     1      -8.924  10.071  67.441  1.00  0.00    -0.131 C  
BRANCH  25  26
HETATM   26  C   UNL     1      -7.710  10.749  68.058  1.00  0.00    -0.101 C  
BRANCH  26  27
HETATM   27  O   UNL     1      -8.129  11.939  68.720  1.00  0.00    -0.117 OA 
BRANCH  27  28
HETATM   28  C   UNL     1      -7.127  12.951  68.645  1.00  0.00    -0.103 C  
BRANCH  28  29
HETATM   29  C   UNL     1      -7.592  14.038  67.687  1.00  0.00    -0.179 C  
BRANCH  29  30
HETATM   30  O   UNL     1      -6.498  14.908  67.411  1.00  0.00    -0.295 OA 
BRANCH  30  31
HETATM   31  C   UNL     1      -6.842  16.266  67.674  1.00  0.00    -0.141 C  
BRANCH  31  32
HETATM   32  C   UNL     1      -6.465  17.113  66.469  1.00  0.00    -0.233 C  
BRANCH  32  33
HETATM   33  O   UNL     1      -7.649  17.672  65.909  1.00  0.00    -0.487 OA 
BRANCH  33  34
HETATM   34  C   UNL     1      -8.590  18.006  66.925  1.00  0.00    -0.250 C  
BRANCH  34  35
HETATM   35  C   UNL     1      -9.987  18.009  66.323  1.00  0.00    -0.337 C  
BRANCH  35  36
HETATM   36  O   UNL     1     -10.095  16.931  65.397  1.00  0.00    -0.586 OA 
BRANCH  36  37
HETATM   37  C   UNL     1     -11.271  16.162  65.634  1.00  0.00     0.107 C  
BRANCH  37  38
HETATM   38  C   UNL     1     -10.920  14.989  66.539  1.00  0.00    -0.327 C  
BRANCH  38  39
HETATM   39  O   UNL     1     -11.912  13.976  66.394  1.00  0.00    -0.396 OA 
BRANCH  39  40
HETATM   40  C   UNL     1     -12.480  13.991  65.085  1.00  0.00    -0.452 C  
BRANCH  40  41
HETATM   41  C   UNL     1     -12.636  12.559  64.593  1.00  0.00    -0.426 C  
BRANCH  41  42
HETATM   42  O   UNL     1     -12.026  12.431  63.310  1.00  0.00    -0.479 OA 
HETATM   43  C   UNL     1     -10.654  12.078  63.422  1.00  0.00    -0.428 C  
ENDBRANCH  41  42
ENDBRANCH  40  41
ENDBRANCH  39  40
ENDBRANCH  38  39
ENDBRANCH  37  38
ENDBRANCH  36  37
ENDBRANCH  35  36
ENDBRANCH  34  35
ENDBRANCH  33  34
ENDBRANCH  32  33
ENDBRANCH  31  32
ENDBRANCH  30  31
ENDBRANCH  29  30
ENDBRANCH  28  29
ENDBRANCH  27  28
ENDBRANCH  26  27
ENDBRANCH  25  26
ENDBRANCH  24  25
ENDBRANCH  23  24
ENDBRANCH  22  23
ENDBRANCH  21  22
ENDBRANCH  20  21
ENDBRANCH  19  20
ENDBRANCH  18  19
ENDBRANCH  17  18
ENDBRANCH  16  17
ENDBRANCH  15  16
ENDBRANCH  13  15
ENDBRANCH  10  13
ENDBRANCH   5   7
ENDBRANCH   4   5
ENDBRANCH   3   4
ENDBRANCH   2   3
TORSDOF 33
ENDMDL
MODEL      104
REMARK 921   NORMALIZED FREE ENERGY PREDICTED BY IDOCK:   -3.54 KCAL/MOL
REMARK 922        TOTAL FREE ENERGY PREDICTED BY IDOCK:  -13.18 KCAL/MOL
REMARK 923 INTER-LIGAND FREE ENERGY PREDICTED BY IDOCK:  -10.39 KCAL/MOL
REMARK 924 INTRA-LIGAND FREE ENERGY PREDICTED BY IDOCK:   -2.79 KCAL/MOL
REMARK 927      BINDING AFFINITY PREDICTED BY RF-SCORE:    0.00 PKD
ROOT
HETATM    1  C   UNL     1     -10.802  19.616  67.244  1.00  0.00    -0.519 C  
HETATM    2  C   UNL     1      -9.526  20.430  67.336  1.00  0.00    -0.561 C  
ENDROOT
BRANCH   2   3
HETATM    3  C   UNL     1      -8.287  19.546  67.505  1.00  0.00    -0.333 C  
BRANCH   3   4
HETATM    4  C   UNL     1      -8.009  18.805  66.202  1.00  0.00    -0.217 C  
BRANCH   4   5
HETATM    5  N   UNL     1      -7.497  17.461  66.444  1.00  0.00    -0.277 NA 
HETATM    6  H   UNL     1      -6.499  17.292  66.570  1.00  0.00     0.000 HD 
BRANCH   5   7
HETATM    7  C   UNL     1      -8.425  16.408  66.500  1.00  0.00    -0.301 A  
HETATM    8  C   UNL     1      -8.124  15.152  67.044  1.00  0.00    -0.240 A  
HETATM    9  C   UNL     1      -9.044  14.104  67.014  1.00  0.00    -0.255 A  
HETATM   10  C   UNL     1     -10.289  14.272  66.405  1.00  0.00    -0.287 A  
HETATM   11  C   UNL     1      -9.670  16.561  65.874  1.00  0.00    -0.303 A  
HETATM   12  C   UNL     1     -10.601  15.509  65.828  1.00  0.00    -0.370 A  
BRANCH  10  13
HETATM   13  C   UNL     1     -11.200  13.100  66.383  1.00  0.00    -0.300 C  
HETATM   14  O   UNL     1     -11.018  12.124  65.669  1.00  0.00    -0.276 OA 
BRANCH  13  15
HETATM   15  O   UNL     1     -12.247  13.276  67.221  1.00  0.00    -0.321 OA 
BRANCH  15  16
HETATM   16  C   UNL     1     -11.902  13.278  68.619  1.00  0.00    -0.345 C  
BRANCH  16  17
HETATM   17  C   UNL     1     -11.349  11.923  69.058  1.00  0.00    -0.279 C  
BRANCH  17  18
HETATM   18  O   UNL     1     -12.428  10.991  69.183  1.00  0.00    -0.432 OA 
BRANCH  18  19
HETATM   19  C   UNL     1     -12.669  10.658  70.549  1.00  0.00    -0.313 C  
BRANCH  19  20
HETATM   20  C   UNL     1     -11.524   9.802  71.073  1.00  0.00    -0.383 C  
BRANCH  20  21
HETATM   21  O   UNL     1     -12.004   8.990  72.144  1.00  0.00    -0.357 OA 
BRANCH  21  22
HETATM   22  C   UNL     1     -11.008   8.071  72.587  1.00  0.00    -0.382 C  
BRANCH  22  23
HETATM   23  C   UNL     1      -9.642   8.547  72.110  1.00  0.00    -0.312 C  
BRANCH  23  24
HETATM   24  O   UNL     1      -8.735   8.540  73.210  1.00  0.00    -0.337 OA 
BRANCH  24  25
HETATM   25  C   UNL     1      -7.650   7.643  72.980  1.00  0.00    -0.098 C  
BRANCH  25  26
HETATM   26  C   UNL     1      -8.080   6.235  73.364  1.00  0.00    -0.111 C  
BRANCH  26  27
HETATM   27  O   UNL     1      -8.079   5.415  72.198  1.00  0.00    -0.108 OA 
BRANCH  27  28
HETATM   28  C   UNL     1      -9.211   4.549  72.176  1.00  0.00    -0.130 C  
BRANCH  28  29
HETATM   29  C   UNL     1      -9.691   4.398  70.740  1.00  0.00    -0.201 C  
BRANCH  29  30
HETATM   30  O   UNL     1     -10.572   5.474  70.433  1.00  0.00    -0.276 OA 
BRANCH  30  31
HETATM   31  C   UNL     1     -10.117   6.204  69.296  1.00  0.00    -0.174 C  
BRANCH  31  32
HETATM   32  C   UNL     1     -11.160   6.103  68.194  1.00  0.00    -0.227 C  
BRANCH  32  33
HETATM   33  O   UNL     1     -10.566   6.496  66.960  1.00  0.00    -0.255 OA 
BRANCH  33  34
HETATM   34  C   UNL     1     -10.079   5.365  66.242  1.00  0.00    -0.174 C  
BRANCH  34  35
HETATM   35  C   UNL     1      -8.736   5.717  65.621  1.00  0.00    -0.149 C  
BRANCH  35  36
HETATM   36  O   UNL     1      -8.154   6.794  66.352  1.00  0.00    -0.103 OA 
BRANCH  36  37
HETATM   37  C   UNL     1      -7.791   7.867  65.489  1.00  0.00    -0.112 C  
BRANCH  37  38
HETATM   38  C   UNL     1      -8.768   9.017  65.690  1.00  0.00    -0.175 C  
BRANCH  38  39
HETATM   39  O   UNL     1      -8.352   9.793  66.811  1.00  0.00    -0.123 OA 
BRANCH  39  40
HETATM   40  C   UNL     1      -7.479  10.849  66.412  1.00  0.00    -0.145 C  
BRANCH  40  41
HETATM   41  C   UNL     1      -6.566  11.207  67.577  1.00  0.00    -0.070 C  
BRANCH  41  42
HETATM   42  O   UNL     1      -7.347  11.744  68.642  1.00  0.00    -0.103 OA 
HETATM   43  C   UNL     1      -6.687  11.597  69.892  1.00  0.00     0.045 C  
ENDBRANCH  41  42
ENDBRANCH  40  41
ENDBRANCH  39  40
ENDBRANCH  38  39
ENDBRANCH  37  38
ENDBRANCH  36  37
ENDBRANCH  35  36
ENDBRANCH  34  35
ENDBRANCH  33  34
ENDBRANCH  32  33
ENDBRANCH  31  32
ENDBRANCH  30  31
ENDBRANCH  29  30
ENDBRANCH  28  29
ENDBRANCH  27  28
ENDBRANCH  26  27
ENDBRANCH  25  26
ENDBRANCH  24  25
ENDBRANCH  23  24
ENDBRANCH  22  23
ENDBRANCH  21  22
ENDBRANCH  20  21
ENDBRANCH  19  20
ENDBRANCH  18  19
ENDBRANCH  17  18
ENDBRANCH  16  17
ENDBRANCH  15  16
ENDBRANCH  13  15
ENDBRANCH  10  13
ENDBRANCH   5   7
ENDBRANCH   4   5
ENDBRANCH   3   4
ENDBRANCH   2   3
TORSDOF 33
ENDMDL
MODEL      105
REMARK 921   NORMALIZED FREE ENERGY PREDICTED BY IDOCK:   -3.54 KCAL/MOL
REMARK 922        TOTAL FREE ENERGY PREDICTED BY IDOCK:  -13.16 KCAL/MOL
REMARK 923 INTER-LIGAND FREE ENERGY PREDICTED BY IDOCK:  -10.33 KCAL/MOL
REMARK 924 INTRA-LIGAND FREE ENERGY PREDICTED BY IDOCK:   -2.83 KCAL/MOL
REMARK 927      BINDING AFFINITY PREDICTED BY RF-SCORE:    0.00 PKD
ROOT
HETATM    1  C   UNL     1      -8.901   3.627  62.330  1.00  0.00    -0.086 C  
HETATM    2  C   UNL     1      -8.905   4.360  63.658  1.00  0.00    -0.139 C  
ENDROOT
BRANCH   2   3
HETATM    3  C   UNL     1      -9.626   3.569  64.753  1.00  0.00    -0.168 C  
BRANCH   3   4
HETATM    4  C   UNL     1     -10.746   4.420  65.341  1.00  0.00    -0.110 C  
BRANCH   4   5
HETATM    5  N   UNL     1     -10.224   5.566  66.077  1.00  0.00    -0.412 NA 
HETATM    6  H   UNL     1      -9.744   6.326  65.596  1.00  0.00     0.000 HD 
BRANCH   5   7
HETATM    7  C   UNL     1     -10.405   5.588  67.469  1.00  0.00    -0.214 A  
HETATM    8  C   UNL     1     -11.204   6.536  68.122  1.00  0.00    -0.250 A  
HETATM    9  C   UNL     1     -11.300   6.576  69.513  1.00  0.00    -0.419 A  
HETATM   10  C   UNL     1     -10.570   5.683  70.299  1.00  0.00    -0.370 A  
HETATM   11  C   UNL     1      -9.661   4.707  68.268  1.00  0.00    -0.193 A  
HETATM   12  C   UNL     1      -9.743   4.745  69.670  1.00  0.00    -0.272 A  
BRANCH  10  13
HETATM   13  C   UNL     1     -10.700   5.811  71.773  1.00  0.00    -0.249 C  
HETATM   14  O   UNL     1     -11.768   5.719  72.361  1.00  0.00    -0.301 OA 
BRANCH  13  15
HETATM   15  O   UNL     1      -9.505   6.067  72.351  1.00  0.00    -0.147 OA 
BRANCH  15  16
HETATM   16  C   UNL     1      -8.994   7.392  72.111  1.00  0.00    -0.131 C  
BRANCH  16  17
HETATM   17  C   UNL     1      -9.920   8.459  72.695  1.00  0.00    -0.258 C  
BRANCH  17  18
HETATM   18  O   UNL     1     -10.309   9.365  71.658  1.00  0.00    -0.309 OA 
BRANCH  18  19
HETATM   19  C   UNL     1      -9.295   9.477  70.661  1.00  0.00    -0.199 C  
BRANCH  19  20
HETATM   20  C   UNL     1      -9.833  10.267  69.476  1.00  0.00    -0.220 C  
BRANCH  20  21
HETATM   21  O   UNL     1     -11.257  10.188  69.472  1.00  0.00    -0.238 OA 
BRANCH  21  22
HETATM   22  C   UNL     1     -11.832  11.197  68.645  1.00  0.00    -0.287 C  
BRANCH  22  23
HETATM   23  C   UNL     1     -10.942  12.432  68.672  1.00  0.00    -0.247 C  
BRANCH  23  24
HETATM   24  O   UNL     1     -11.617  13.509  68.024  1.00  0.00    -0.296 OA 
BRANCH  24  25
HETATM   25  C   UNL     1     -12.379  13.045  66.912  1.00  0.00    -0.001 C  
BRANCH  25  26
HETATM   26  C   UNL     1     -12.401  14.125  65.840  1.00  0.00    -0.463 C  
BRANCH  26  27
HETATM   27  O   UNL     1     -12.491  13.505  64.560  1.00  0.00    -0.556 OA 
BRANCH  27  28
HETATM   28  C   UNL     1     -12.097  12.136  64.620  1.00  0.00    -0.311 C  
BRANCH  28  29
HETATM   29  C   UNL     1     -10.848  11.942  63.774  1.00  0.00    -0.418 C  
BRANCH  29  30
HETATM   30  O   UNL     1     -10.237  10.705  64.131  1.00  0.00    -0.347 OA 
BRANCH  30  31
HETATM   31  C   UNL     1     -10.067  10.602  65.542  1.00  0.00    -0.280 C  
BRANCH  31  32
HETATM   32  C   UNL     1      -8.883  11.460  65.961  1.00  0.00    -0.174 C  
BRANCH  32  33
HETATM   33  O   UNL     1      -7.793  10.609  66.298  1.00  0.00    -0.138 OA 
BRANCH  33  34
HETATM   34  C   UNL     1      -6.573  11.342  66.374  1.00  0.00    -0.069 C  
BRANCH  34  35
HETATM   35  C   UNL     1      -6.556  12.138  67.670  1.00  0.00    -0.116 C  
BRANCH  35  36
HETATM   36  O   UNL     1      -6.266  13.501  67.373  1.00  0.00    -0.311 OA 
BRANCH  36  37
HETATM   37  C   UNL     1      -7.153  14.379  68.061  1.00  0.00    -0.138 C  
BRANCH  37  38
HETATM   38  C   UNL     1      -8.174  14.926  67.073  1.00  0.00    -0.196 C  
BRANCH  38  39
HETATM   39  O   UNL     1      -8.926  15.959  67.704  1.00  0.00    -0.187 OA 
BRANCH  39  40
HETATM   40  C   UNL     1      -8.685  17.223  67.088  1.00  0.00    -0.218 C  
BRANCH  40  41
HETATM   41  C   UNL     1      -9.285  18.322  67.955  1.00  0.00    -0.290 C  
BRANCH  41  42
HETATM   42  O   UNL     1      -8.237  19.031  68.613  1.00  0.00    -0.349 OA 
HETATM   43  C   UNL     1      -7.408  19.711  67.680  1.00  0.00    -0.254 C  
ENDBRANCH  41  42
ENDBRANCH  40  41
ENDBRANCH  39  40
ENDBRANCH  38  39
ENDBRANCH  37  38
ENDBRANCH  36  37
ENDBRANCH  35  36
ENDBRANCH  34  35
ENDBRANCH  33  34
ENDBRANCH  32  33
ENDBRANCH  31  32
ENDBRANCH  30  31
ENDBRANCH  29  30
ENDBRANCH  28  29
ENDBRANCH  27  28
ENDBRANCH  26  27
ENDBRANCH  25  26
ENDBRANCH  24  25
ENDBRANCH  23  24
ENDBRANCH  22  23
ENDBRANCH  21  22
ENDBRANCH  20  21
ENDBRANCH  19  20
ENDBRANCH  18  19
ENDBRANCH  17  18
ENDBRANCH  16  17
ENDBRANCH  15  16
ENDBRANCH  13  15
ENDBRANCH  10  13
ENDBRANCH   5   7
ENDBRANCH   4   5
ENDBRANCH   3   4
ENDBRANCH   2   3
TORSDOF 33
ENDMDL
MODEL      106
REMARK 921   NORMALIZED FREE ENERGY PREDICTED BY IDOCK:   -3.53 KCAL/MOL
REMARK 922        TOTAL FREE ENERGY PREDICTED BY IDOCK:  -13.13 KCAL/MOL
REMARK 923 INTER-LIGAND FREE ENERGY PREDICTED BY IDOCK:  -10.72 KCAL/MOL
REMARK 924 INTRA-LIGAND FREE ENERGY PREDICTED BY IDOCK:   -2.41 KCAL/MOL
REMARK 927      BINDING AFFINITY PREDICTED BY RF-SCORE:    0.00 PKD
ROOT
HETATM    1  C   UNL     1      -5.955   3.185  72.977  1.00  0.00    -0.008 C  
HETATM    2  C   UNL     1      -6.237   3.114  71.488  1.00  0.00    -0.015 C  
ENDROOT
BRANCH   2   3
HETATM    3  C   UNL     1      -6.456   4.500  70.875  1.00  0.00    -0.030 C  
BRANCH   3   4
HETATM    4  C   UNL     1      -7.648   4.454  69.925  1.00  0.00    -0.050 C  
BRANCH   4   5
HETATM    5  N   UNL     1      -8.834   3.908  70.573  1.00  0.00    -0.076 NA 
HETATM    6  H   UNL     1      -8.891   2.920  70.822  1.00  0.00     0.000 HD 
BRANCH   5   7
HETATM    7  C   UNL     1      -9.896   4.786  70.844  1.00  0.00    -0.209 A  
HETATM    8  C   UNL     1     -10.494   5.589  69.864  1.00  0.00    -0.386 A  
HETATM    9  C   UNL     1     -11.495   6.506  70.182  1.00  0.00    -0.477 A  
HETATM   10  C   UNL     1     -11.907   6.673  71.505  1.00  0.00    -0.387 A  
HETATM   11  C   UNL     1     -10.304   4.974  72.173  1.00  0.00    -0.276 A  
HETATM   12  C   UNL     1     -11.304   5.903  72.506  1.00  0.00    -0.352 A  
BRANCH  10  13
HETATM   13  C   UNL     1     -12.954   7.694  71.768  1.00  0.00    -0.328 C  
HETATM   14  O   UNL     1     -14.124   7.551  71.444  1.00  0.00    -0.415 OA 
BRANCH  13  15
HETATM   15  O   UNL     1     -12.434   8.786  72.373  1.00  0.00    -0.379 OA 
BRANCH  15  16
HETATM   16  C   UNL     1     -11.699   9.663  71.499  1.00  0.00    -0.400 C  
BRANCH  16  17
HETATM   17  C   UNL     1     -12.566  10.827  71.022  1.00  0.00    -0.420 C  
BRANCH  17  18
HETATM   18  O   UNL     1     -13.203  11.435  72.151  1.00  0.00    -0.490 OA 
BRANCH  18  19
HETATM   19  C   UNL     1     -13.267  12.852  72.008  1.00  0.00    -0.448 C  
BRANCH  19  20
HETATM   20  C   UNL     1     -12.533  13.269  70.741  1.00  0.00    -0.324 C  
BRANCH  20  21
HETATM   21  O   UNL     1     -12.078  14.613  70.889  1.00  0.00    -0.290 OA 
BRANCH  21  22
HETATM   22  C   UNL     1     -11.247  15.005  69.798  1.00  0.00    -0.277 C  
BRANCH  22  23
HETATM   23  C   UNL     1     -12.126  15.436  68.631  1.00  0.00    -0.099 C  
BRANCH  23  24
HETATM   24  O   UNL     1     -11.548  14.970  67.414  1.00  0.00    -0.348 OA 
BRANCH  24  25
HETATM   25  C   UNL     1     -12.055  13.684  67.061  1.00  0.00    -0.380 C  
BRANCH  25  26
HETATM   26  C   UNL     1     -12.634  13.746  65.655  1.00  0.00    -0.509 C  
BRANCH  26  27
HETATM   27  O   UNL     1     -11.664  14.314  64.779  1.00  0.00    -0.373 OA 
BRANCH  27  28
HETATM   28  C   UNL     1     -10.670  13.357  64.420  1.00  0.00    -0.408 C  
BRANCH  28  29
HETATM   29  C   UNL     1     -11.302  12.299  63.528  1.00  0.00    -0.470 C  
BRANCH  29  30
HETATM   30  O   UNL     1     -10.783  11.021  63.890  1.00  0.00    -0.369 OA 
BRANCH  30  31
HETATM   31  C   UNL     1      -9.389  11.094  64.176  1.00  0.00    -0.165 C  
BRANCH  31  32
HETATM   32  C   UNL     1      -8.673   9.978  63.431  1.00  0.00    -0.222 C  
BRANCH  32  33
HETATM   33  O   UNL     1      -7.658   9.439  64.272  1.00  0.00    -0.107 OA 
BRANCH  33  34
HETATM   34  C   UNL     1      -7.735   9.987  65.585  1.00  0.00    -0.136 C  
BRANCH  34  35
HETATM   35  C   UNL     1      -7.451   8.886  66.597  1.00  0.00    -0.086 C  
BRANCH  35  36
HETATM   36  O   UNL     1      -8.669   8.527  67.245  1.00  0.00    -0.128 OA 
BRANCH  36  37
HETATM   37  C   UNL     1      -9.501   7.752  66.386  1.00  0.00    -0.180 C  
BRANCH  37  38
HETATM   38  C   UNL     1      -8.838   6.404  66.139  1.00  0.00    -0.150 C  
BRANCH  38  39
HETATM   39  O   UNL     1      -9.790   5.368  66.361  1.00  0.00    -0.155 OA 
BRANCH  39  40
HETATM   40  C   UNL     1      -9.333   4.123  65.834  1.00  0.00    -0.163 C  
BRANCH  40  41
HETATM   41  C   UNL     1      -7.863   3.943  66.188  1.00  0.00    -0.090 C  
BRANCH  41  42
HETATM   42  O   UNL     1      -7.280   2.981  65.312  1.00  0.00    -0.063 OA 
HETATM   43  C   UNL     1      -8.250   2.055  64.842  1.00  0.00    -0.080 C  
ENDBRANCH  41  42
ENDBRANCH  40  41
ENDBRANCH  39  40
ENDBRANCH  38  39
ENDBRANCH  37  38
ENDBRANCH  36  37
ENDBRANCH  35  36
ENDBRANCH  34  35
ENDBRANCH  33  34
ENDBRANCH  32  33
ENDBRANCH  31  32
ENDBRANCH  30  31
ENDBRANCH  29  30
ENDBRANCH  28  29
ENDBRANCH  27  28
ENDBRANCH  26  27
ENDBRANCH  25  26
ENDBRANCH  24  25
ENDBRANCH  23  24
ENDBRANCH  22  23
ENDBRANCH  21  22
ENDBRANCH  20  21
ENDBRANCH  19  20
ENDBRANCH  18  19
ENDBRANCH  17  18
ENDBRANCH  16  17
ENDBRANCH  15  16
ENDBRANCH  13  15
ENDBRANCH  10  13
ENDBRANCH   5   7
ENDBRANCH   4   5
ENDBRANCH   3   4
ENDBRANCH   2   3
TORSDOF 33
ENDMDL
MODEL      107
REMARK 921   NORMALIZED FREE ENERGY PREDICTED BY IDOCK:   -3.52 KCAL/MOL
REMARK 922        TOTAL FREE ENERGY PREDICTED BY IDOCK:  -13.10 KCAL/MOL
REMARK 923 INTER-LIGAND FREE ENERGY PREDICTED BY IDOCK:  -10.19 KCAL/MOL
REMARK 924 INTRA-LIGAND FREE ENERGY PREDICTED BY IDOCK:   -2.91 KCAL/MOL
REMARK 927      BINDING AFFINITY PREDICTED BY RF-SCORE:    0.00 PKD
ROOT
HETATM    1  C   UNL     1     -10.332  17.717  69.017  1.00  0.00    -0.272 C  
HETATM    2  C   UNL     1     -10.090  19.102  68.447  1.00  0.00    -0.498 C  
ENDROOT
BRANCH   2   3
HETATM    3  C   UNL     1      -9.510  19.051  67.031  1.00  0.00    -0.358 C  
BRANCH   3   4
HETATM    4  C   UNL     1     -10.445  18.255  66.127  1.00  0.00    -0.383 C  
BRANCH   4   5
HETATM    5  N   UNL     1      -9.764  17.122  65.510  1.00  0.00    -0.450 NA 
HETATM    6  H   UNL     1      -9.033  17.262  64.813  1.00  0.00     0.000 HD 
BRANCH   5   7
HETATM    7  C   UNL     1     -10.148  15.832  65.909  1.00  0.00    -0.356 A  
HETATM    8  C   UNL     1      -9.335  14.998  66.689  1.00  0.00    -0.290 A  
HETATM    9  C   UNL     1      -9.715  13.693  67.003  1.00  0.00    -0.251 A  
HETATM   10  C   UNL     1     -10.914  13.169  66.515  1.00  0.00    -0.303 A  
HETATM   11  C   UNL     1     -11.341  15.289  65.409  1.00  0.00    -0.253 A  
HETATM   12  C   UNL     1     -11.729  13.973  65.711  1.00  0.00    -0.368 A  
BRANCH  10  13
HETATM   13  C   UNL     1     -11.232  11.761  66.866  1.00  0.00    -0.327 C  
HETATM   14  O   UNL     1     -10.786  10.802  66.253  1.00  0.00    -0.220 OA 
BRANCH  13  15
HETATM   15  O   UNL     1     -12.088  11.697  67.911  1.00  0.00    -0.613 OA 
BRANCH  15  16
HETATM   16  C   UNL     1     -11.457  11.524  69.193  1.00  0.00    -0.297 C  
BRANCH  16  17
HETATM   17  C   UNL     1     -11.853  10.193  69.833  1.00  0.00    -0.135 C  
BRANCH  17  18
HETATM   18  O   UNL     1     -13.145  10.326  70.436  1.00  0.00    -0.258 OA 
BRANCH  18  19
HETATM   19  C   UNL     1     -13.044  10.459  71.852  1.00  0.00    -0.458 C  
BRANCH  19  20
HETATM   20  C   UNL     1     -12.770   9.095  72.472  1.00  0.00    -0.282 C  
BRANCH  20  21
HETATM   21  O   UNL     1     -13.820   8.200  72.106  1.00  0.00    -0.306 OA 
BRANCH  21  22
HETATM   22  C   UNL     1     -13.305   7.006  71.519  1.00  0.00    -0.294 C  
BRANCH  22  23
HETATM   23  C   UNL     1     -11.882   6.780  72.014  1.00  0.00    -0.314 C  
BRANCH  23  24
HETATM   24  O   UNL     1     -11.798   5.494  72.623  1.00  0.00    -0.274 OA 
BRANCH  24  25
HETATM   25  C   UNL     1     -10.451   5.169  72.960  1.00  0.00    -0.210 C  
BRANCH  25  26
HETATM   26  C   UNL     1     -10.158   3.742  72.520  1.00  0.00    -0.167 C  
BRANCH  26  27
HETATM   27  O   UNL     1      -9.096   3.758  71.570  1.00  0.00    -0.102 OA 
BRANCH  27  28
HETATM   28  C   UNL     1      -9.578   3.501  70.254  1.00  0.00    -0.162 C  
BRANCH  28  29
HETATM   29  C   UNL     1      -9.299   4.714  69.378  1.00  0.00    -0.141 C  
BRANCH  29  30
HETATM   30  O   UNL     1     -10.472   5.520  69.321  1.00  0.00    -0.249 OA 
BRANCH  30  31
HETATM   31  C   UNL     1     -10.244   6.706  68.563  1.00  0.00    -0.171 C  
BRANCH  31  32
HETATM   32  C   UNL     1     -10.851   6.531  67.179  1.00  0.00    -0.401 C  
BRANCH  32  33
HETATM   33  O   UNL     1     -10.116   7.323  66.250  1.00  0.00    -0.050 OA 
BRANCH  33  34
HETATM   34  C   UNL     1      -8.737   6.963  66.248  1.00  0.00    -0.142 C  
BRANCH  34  35
HETATM   35  C   UNL     1      -7.994   7.865  65.274  1.00  0.00    -0.126 C  
BRANCH  35  36
HETATM   36  O   UNL     1      -7.291   8.863  66.011  1.00  0.00    -0.087 OA 
BRANCH  36  37
HETATM   37  C   UNL     1      -7.420  10.143  65.398  1.00  0.00    -0.144 C  
BRANCH  37  38
HETATM   38  C   UNL     1      -7.248  11.220  66.460  1.00  0.00    -0.096 C  
BRANCH  38  39
HETATM   39  O   UNL     1      -7.069  10.598  67.730  1.00  0.00    -0.081 OA 
BRANCH  39  40
HETATM   40  C   UNL     1      -5.994  11.198  68.452  1.00  0.00    -0.045 C  
BRANCH  40  41
HETATM   41  C   UNL     1      -6.475  12.506  69.066  1.00  0.00    -0.097 C  
BRANCH  41  42
HETATM   42  O   UNL     1      -5.458  13.496  68.926  1.00  0.00    -0.072 OA 
HETATM   43  C   UNL     1      -6.014  14.769  68.628  1.00  0.00    -0.089 C  
ENDBRANCH  41  42
ENDBRANCH  40  41
ENDBRANCH  39  40
ENDBRANCH  38  39
ENDBRANCH  37  38
ENDBRANCH  36  37
ENDBRANCH  35  36
ENDBRANCH  34  35
ENDBRANCH  33  34
ENDBRANCH  32  33
ENDBRANCH  31  32
ENDBRANCH  30  31
ENDBRANCH  29  30
ENDBRANCH  28  29
ENDBRANCH  27  28
ENDBRANCH  26  27
ENDBRANCH  25  26
ENDBRANCH  24  25
ENDBRANCH  23  24
ENDBRANCH  22  23
ENDBRANCH  21  22
ENDBRANCH  20  21
ENDBRANCH  19  20
ENDBRANCH  18  19
ENDBRANCH  17  18
ENDBRANCH  16  17
ENDBRANCH  15  16
ENDBRANCH  13  15
ENDBRANCH  10  13
ENDBRANCH   5   7
ENDBRANCH   4   5
ENDBRANCH   3   4
ENDBRANCH   2   3
TORSDOF 33
ENDMDL
MODEL      108
REMARK 921   NORMALIZED FREE ENERGY PREDICTED BY IDOCK:   -3.51 KCAL/MOL
REMARK 922        TOTAL FREE ENERGY PREDICTED BY IDOCK:  -13.08 KCAL/MOL
REMARK 923 INTER-LIGAND FREE ENERGY PREDICTED BY IDOCK:  -10.55 KCAL/MOL
REMARK 924 INTRA-LIGAND FREE ENERGY PREDICTED BY IDOCK:   -2.54 KCAL/MOL
REMARK 927      BINDING AFFINITY PREDICTED BY RF-SCORE:    0.00 PKD
ROOT
HETATM    1  C   UNL     1     -10.209   5.013  68.241  1.00  0.00    -0.143 C  
HETATM    2  C   UNL     1     -10.612   5.895  67.074  1.00  0.00    -0.376 C  
ENDROOT
BRANCH   2   3
HETATM    3  C   UNL     1      -9.403   6.540  66.393  1.00  0.00    -0.175 C  
BRANCH   3   4
HETATM    4  C   UNL     1      -9.106   7.884  67.048  1.00  0.00    -0.137 C  
BRANCH   4   5
HETATM    5  N   UNL     1      -7.845   7.862  67.779  1.00  0.00    -0.121 NA 
HETATM    6  H   UNL     1      -6.951   7.829  67.288  1.00  0.00     0.000 HD 
BRANCH   5   7
HETATM    7  C   UNL     1      -7.901   7.888  69.182  1.00  0.00    -0.109 A  
HETATM    8  C   UNL     1      -7.416   6.848  69.986  1.00  0.00    -0.093 A  
HETATM    9  C   UNL     1      -7.557   6.871  71.374  1.00  0.00    -0.087 A  
HETATM   10  C   UNL     1      -8.221   7.928  72.000  1.00  0.00    -0.149 A  
HETATM   11  C   UNL     1      -8.582   8.936  69.819  1.00  0.00    -0.134 A  
HETATM   12  C   UNL     1      -8.739   8.964  71.215  1.00  0.00    -0.279 A  
BRANCH  10  13
HETATM   13  C   UNL     1      -8.359   7.864  73.477  1.00  0.00    -0.216 C  
HETATM   14  O   UNL     1      -7.910   8.718  74.229  1.00  0.00    -0.402 OA 
BRANCH  13  15
HETATM   15  O   UNL     1      -9.008   6.742  73.861  1.00  0.00    -0.140 OA 
BRANCH  15  16
HETATM   16  C   UNL     1     -10.442   6.812  73.756  1.00  0.00    -0.354 C  
BRANCH  16  17
HETATM   17  C   UNL     1     -11.018   5.531  73.151  1.00  0.00    -0.293 C  
BRANCH  17  18
HETATM   18  O   UNL     1     -10.912   5.595  71.725  1.00  0.00    -0.256 OA 
BRANCH  18  19
HETATM   19  C   UNL     1     -11.472   6.804  71.217  1.00  0.00    -0.302 C  
BRANCH  19  20
HETATM   20  C   UNL     1     -12.970   6.623  71.010  1.00  0.00     0.165 C  
BRANCH  20  21
HETATM   21  O   UNL     1     -13.670   7.425  71.960  1.00  0.00    -0.237 OA 
BRANCH  21  22
HETATM   22  C   UNL     1     -14.147   8.632  71.372  1.00  0.00    -0.273 C  
BRANCH  22  23
HETATM   23  C   UNL     1     -13.496   9.819  72.070  1.00  0.00    -0.407 C  
BRANCH  23  24
HETATM   24  O   UNL     1     -12.172   9.987  71.569  1.00  0.00    -0.373 OA 
BRANCH  24  25
HETATM   25  C   UNL     1     -12.106  11.061  70.633  1.00  0.00    -0.373 C  
BRANCH  25  26
HETATM   26  C   UNL     1     -12.646  12.324  71.287  1.00  0.00    -0.234 C  
BRANCH  26  27
HETATM   27  O   UNL     1     -11.987  13.456  70.726  1.00  0.00    -0.297 OA 
BRANCH  27  28
HETATM   28  C   UNL     1     -12.160  13.504  69.311  1.00  0.00    -0.288 C  
BRANCH  28  29
HETATM   29  C   UNL     1     -10.832  13.863  68.662  1.00  0.00    -0.262 C  
BRANCH  29  30
HETATM   30  O   UNL     1     -10.604  12.985  67.563  1.00  0.00    -0.228 OA 
BRANCH  30  31
HETATM   31  C   UNL     1      -9.978  13.668  66.480  1.00  0.00    -0.288 C  
BRANCH  31  32
HETATM   32  C   UNL     1      -8.575  14.080  66.900  1.00  0.00    -0.125 C  
BRANCH  32  33
HETATM   33  O   UNL     1      -8.379  15.452  66.574  1.00  0.00    -0.258 OA 
BRANCH  33  34
HETATM   34  C   UNL     1      -9.536  16.001  65.950  1.00  0.00    -0.335 C  
BRANCH  34  35
HETATM   35  C   UNL     1     -10.074  17.132  66.815  1.00  0.00    -0.303 C  
BRANCH  35  36
HETATM   36  O   UNL     1     -10.448  18.221  65.975  1.00  0.00    -0.450 OA 
BRANCH  36  37
HETATM   37  C   UNL     1     -10.655  19.409  66.733  1.00  0.00    -0.472 C  
BRANCH  37  38
HETATM   38  C   UNL     1      -9.414  20.284  66.631  1.00  0.00    -0.355 C  
BRANCH  38  39
HETATM   39  O   UNL     1      -8.531  19.730  65.660  1.00  0.00    -0.362 OA 
BRANCH  39  40
HETATM   40  C   UNL     1      -7.171  20.035  65.964  1.00  0.00    -0.301 C  
BRANCH  40  41
HETATM   41  C   UNL     1      -6.330  18.775  65.808  1.00  0.00    -0.241 C  
BRANCH  41  42
HETATM   42  O   UNL     1      -5.595  18.845  64.588  1.00  0.00    -0.217 OA 
HETATM   43  C   UNL     1      -5.857  20.058  63.895  1.00  0.00    -0.263 C  
ENDBRANCH  41  42
ENDBRANCH  40  41
ENDBRANCH  39  40
ENDBRANCH  38  39
ENDBRANCH  37  38
ENDBRANCH  36  37
ENDBRANCH  35  36
ENDBRANCH  34  35
ENDBRANCH  33  34
ENDBRANCH  32  33
ENDBRANCH  31  32
ENDBRANCH  30  31
ENDBRANCH  29  30
ENDBRANCH  28  29
ENDBRANCH  27  28
ENDBRANCH  26  27
ENDBRANCH  25  26
ENDBRANCH  24  25
ENDBRANCH  23  24
ENDBRANCH  22  23
ENDBRANCH  21  22
ENDBRANCH  20  21
ENDBRANCH  19  20
ENDBRANCH  18  19
ENDBRANCH  17  18
ENDBRANCH  16  17
ENDBRANCH  15  16
ENDBRANCH  13  15
ENDBRANCH  10  13
ENDBRANCH   5   7
ENDBRANCH   4   5
ENDBRANCH   3   4
ENDBRANCH   2   3
TORSDOF 33
ENDMDL
MODEL      109
REMARK 921   NORMALIZED FREE ENERGY PREDICTED BY IDOCK:   -3.51 KCAL/MOL
REMARK 922        TOTAL FREE ENERGY PREDICTED BY IDOCK:  -13.08 KCAL/MOL
REMARK 923 INTER-LIGAND FREE ENERGY PREDICTED BY IDOCK:  -10.20 KCAL/MOL
REMARK 924 INTRA-LIGAND FREE ENERGY PREDICTED BY IDOCK:   -2.88 KCAL/MOL
REMARK 927      BINDING AFFINITY PREDICTED BY RF-SCORE:    0.00 PKD
ROOT
HETATM    1  C   UNL     1      -9.659  10.652  64.551  1.00  0.00    -0.341 C  
HETATM    2  C   UNL     1     -10.214  11.970  65.058  1.00  0.00    -0.308 C  
ENDROOT
BRANCH   2   3
HETATM    3  C   UNL     1     -11.098  11.787  66.295  1.00  0.00    -0.364 C  
BRANCH   3   4
HETATM    4  C   UNL     1     -10.231  11.395  67.487  1.00  0.00    -0.185 C  
BRANCH   4   5
HETATM    5  N   UNL     1     -10.638  10.113  68.051  1.00  0.00    -0.213 NA 
HETATM    6  H   UNL     1     -11.623   9.852  68.111  1.00  0.00     0.000 HD 
BRANCH   5   7
HETATM    7  C   UNL     1      -9.630   9.249  68.510  1.00  0.00    -0.147 A  
HETATM    8  C   UNL     1      -9.035   8.271  67.702  1.00  0.00    -0.140 A  
HETATM    9  C   UNL     1      -8.091   7.380  68.211  1.00  0.00    -0.125 A  
HETATM   10  C   UNL     1      -7.736   7.419  69.561  1.00  0.00    -0.108 A  
HETATM   11  C   UNL     1      -9.281   9.269  69.868  1.00  0.00    -0.209 A  
HETATM   12  C   UNL     1      -8.339   8.368  70.394  1.00  0.00    -0.121 A  
BRANCH  10  13
HETATM   13  C   UNL     1      -6.749   6.415  70.034  1.00  0.00    -0.053 C  
HETATM   14  O   UNL     1      -5.918   5.898  69.302  1.00  0.00    -0.024 OA 
BRANCH  13  15
HETATM   15  O   UNL     1      -6.919   6.140  71.347  1.00  0.00    -0.071 OA 
BRANCH  15  16
HETATM   16  C   UNL     1      -6.796   4.747  71.690  1.00  0.00    -0.043 C  
BRANCH  16  17
HETATM   17  C   UNL     1      -8.165   4.107  71.919  1.00  0.00    -0.092 C  
BRANCH  17  18
HETATM   18  O   UNL     1      -8.458   3.220  70.835  1.00  0.00    -0.063 OA 
BRANCH  18  19
HETATM   19  C   UNL     1      -9.479   3.750  69.993  1.00  0.00    -0.193 C  
BRANCH  19  20
HETATM   20  C   UNL     1     -10.225   4.853  70.732  1.00  0.00    -0.206 C  
BRANCH  20  21
HETATM   21  O   UNL     1     -10.929   5.654  69.783  1.00  0.00    -0.345 OA 
BRANCH  21  22
HETATM   22  C   UNL     1     -11.718   6.651  70.427  1.00  0.00    -0.386 C  
BRANCH  22  23
HETATM   23  C   UNL     1     -11.410   6.646  71.919  1.00  0.00    -0.279 C  
BRANCH  23  24
HETATM   24  O   UNL     1     -11.955   7.822  72.513  1.00  0.00    -0.313 OA 
BRANCH  24  25
HETATM   25  C   UNL     1     -12.431   8.728  71.520  1.00  0.00    -0.326 C  
BRANCH  25  26
HETATM   26  C   UNL     1     -13.627   9.489  72.074  1.00  0.00    -0.415 C  
BRANCH  26  27
HETATM   27  O   UNL     1     -13.299  10.874  72.153  1.00  0.00    -0.443 OA 
BRANCH  27  28
HETATM   28  C   UNL     1     -12.421  11.257  71.097  1.00  0.00    -0.373 C  
BRANCH  28  29
HETATM   29  C   UNL     1     -12.531  12.758  70.881  1.00  0.00    -0.283 C  
BRANCH  29  30
HETATM   30  O   UNL     1     -11.702  13.128  69.782  1.00  0.00    -0.299 OA 
BRANCH  30  31
HETATM   31  C   UNL     1     -11.731  14.537  69.567  1.00  0.00    -0.314 C  
BRANCH  31  32
HETATM   32  C   UNL     1     -10.585  14.919  68.642  1.00  0.00    -0.251 C  
BRANCH  32  33
HETATM   33  O   UNL     1     -11.115  15.245  67.361  1.00  0.00    -0.320 OA 
BRANCH  33  34
HETATM   34  C   UNL     1     -10.897  16.618  67.050  1.00  0.00    -0.091 C  
BRANCH  34  35
HETATM   35  C   UNL     1     -10.190  16.712  65.706  1.00  0.00    -0.307 C  
BRANCH  35  36
HETATM   36  O   UNL     1      -8.902  17.290  65.899  1.00  0.00    -0.528 OA 
BRANCH  36  37
HETATM   37  C   UNL     1      -8.874  18.111  67.064  1.00  0.00    -0.262 C  
BRANCH  37  38
HETATM   38  C   UNL     1      -8.713  19.565  66.642  1.00  0.00    -0.342 C  
BRANCH  38  39
HETATM   39  O   UNL     1      -7.717  20.179  67.454  1.00  0.00    -0.281 OA 
BRANCH  39  40
HETATM   40  C   UNL     1      -6.769  20.891  66.659  1.00  0.00    -0.271 C  
BRANCH  40  41
HETATM   41  C   UNL     1      -6.712  20.265  65.273  1.00  0.00    -0.304 C  
BRANCH  41  42
HETATM   42  O   UNL     1      -5.701  20.912  64.503  1.00  0.00    -0.222 OA 
HETATM   43  C   UNL     1      -5.526  20.280  63.243  1.00  0.00    -0.236 C  
ENDBRANCH  41  42
ENDBRANCH  40  41
ENDBRANCH  39  40
ENDBRANCH  38  39
ENDBRANCH  37  38
ENDBRANCH  36  37
ENDBRANCH  35  36
ENDBRANCH  34  35
ENDBRANCH  33  34
ENDBRANCH  32  33
ENDBRANCH  31  32
ENDBRANCH  30  31
ENDBRANCH  29  30
ENDBRANCH  28  29
ENDBRANCH  27  28
ENDBRANCH  26  27
ENDBRANCH  25  26
ENDBRANCH  24  25
ENDBRANCH  23  24
ENDBRANCH  22  23
ENDBRANCH  21  22
ENDBRANCH  20  21
ENDBRANCH  19  20
ENDBRANCH  18  19
ENDBRANCH  17  18
ENDBRANCH  16  17
ENDBRANCH  15  16
ENDBRANCH  13  15
ENDBRANCH  10  13
ENDBRANCH   5   7
ENDBRANCH   4   5
ENDBRANCH   3   4
ENDBRANCH   2   3
TORSDOF 33
ENDMDL
MODEL      110
REMARK 921   NORMALIZED FREE ENERGY PREDICTED BY IDOCK:   -3.51 KCAL/MOL
REMARK 922        TOTAL FREE ENERGY PREDICTED BY IDOCK:  -13.07 KCAL/MOL
REMARK 923 INTER-LIGAND FREE ENERGY PREDICTED BY IDOCK:  -11.63 KCAL/MOL
REMARK 924 INTRA-LIGAND FREE ENERGY PREDICTED BY IDOCK:   -1.45 KCAL/MOL
REMARK 927      BINDING AFFINITY PREDICTED BY RF-SCORE:    0.00 PKD
ROOT
HETATM    1  C   UNL     1     -14.381  15.638  72.185  1.00  0.00    -0.497 C  
HETATM    2  C   UNL     1     -13.152  15.283  73.000  1.00  0.00    -0.612 C  
ENDROOT
BRANCH   2   3
HETATM    3  C   UNL     1     -12.060  14.633  72.146  1.00  0.00    -0.319 C  
BRANCH   3   4
HETATM    4  C   UNL     1     -12.695  13.653  71.167  1.00  0.00    -0.353 C  
BRANCH   4   5
HETATM    5  N   UNL     1     -13.316  12.528  71.856  1.00  0.00    -0.443 NA 
HETATM    6  H   UNL     1     -14.045  12.675  72.555  1.00  0.00     0.000 HD 
BRANCH   5   7
HETATM    7  C   UNL     1     -12.878  11.235  71.526  1.00  0.00    -0.414 A  
HETATM    8  C   UNL     1     -13.357  10.080  72.158  1.00  0.00    -0.469 A  
HETATM    9  C   UNL     1     -12.845   8.818  71.859  1.00  0.00    -0.423 A  
HETATM   10  C   UNL     1     -11.807   8.676  70.936  1.00  0.00    -0.257 A  
HETATM   11  C   UNL     1     -11.823  11.084  70.614  1.00  0.00    -0.434 A  
HETATM   12  C   UNL     1     -11.292   9.818  70.313  1.00  0.00    -0.333 A  
BRANCH  10  13
HETATM   13  C   UNL     1     -11.293   7.303  70.696  1.00  0.00    -0.284 C  
HETATM   14  O   UNL     1     -11.688   6.324  71.312  1.00  0.00    -0.310 OA 
BRANCH  13  15
HETATM   15  O   UNL     1     -10.329   7.299  69.747  1.00  0.00    -0.208 OA 
BRANCH  15  16
HETATM   16  C   UNL     1      -9.238   6.395  70.004  1.00  0.00    -0.156 C  
BRANCH  16  17
HETATM   17  C   UNL     1      -8.538   6.730  71.321  1.00  0.00    -0.125 C  
BRANCH  17  18
HETATM   18  O   UNL     1      -7.645   5.666  71.665  1.00  0.00    -0.094 OA 
BRANCH  18  19
HETATM   19  C   UNL     1      -7.998   4.457  70.996  1.00  0.00    -0.072 C  
BRANCH  19  20
HETATM   20  C   UNL     1      -6.787   3.920  70.245  1.00  0.00    -0.034 C  
BRANCH  20  21
HETATM   21  O   UNL     1      -7.028   4.022  68.842  1.00  0.00    -0.046 OA 
BRANCH  21  22
HETATM   22  C   UNL     1      -5.845   4.390  68.136  1.00  0.00    -0.026 C  
BRANCH  22  23
HETATM   23  C   UNL     1      -6.218   4.803  66.718  1.00  0.00    -0.032 C  
BRANCH  23  24
HETATM   24  O   UNL     1      -7.519   5.386  66.728  1.00  0.00    -0.085 OA 
BRANCH  24  25
HETATM   25  C   UNL     1      -7.453   6.791  66.964  1.00  0.00    -0.087 C  
BRANCH  25  26
HETATM   26  C   UNL     1      -7.559   7.524  65.635  1.00  0.00    -0.091 C  
BRANCH  26  27
HETATM   27  O   UNL     1      -7.378   8.919  65.859  1.00  0.00    -0.090 OA 
BRANCH  27  28
HETATM   28  C   UNL     1      -7.622   9.668  64.671  1.00  0.00    -0.126 C  
BRANCH  28  29
HETATM   29  C   UNL     1      -9.110   9.628  64.357  1.00  0.00    -0.229 C  
BRANCH  29  30
HETATM   30  O   UNL     1      -9.839   9.956  65.537  1.00  0.00    -0.283 OA 
BRANCH  30  31
HETATM   31  C   UNL     1     -10.470  11.228  65.414  1.00  0.00    -0.268 C  
BRANCH  31  32
HETATM   32  C   UNL     1     -10.685  11.534  63.940  1.00  0.00    -0.395 C  
BRANCH  32  33
HETATM   33  O   UNL     1     -11.928  12.210  63.785  1.00  0.00    -0.438 OA 
BRANCH  33  34
HETATM   34  C   UNL     1     -12.341  12.813  65.008  1.00  0.00    -0.499 C  
BRANCH  34  35
HETATM   35  C   UNL     1     -12.079  14.310  64.934  1.00  0.00    -0.435 C  
BRANCH  35  36
HETATM   36  O   UNL     1     -10.715  14.524  64.577  1.00  0.00    -0.356 OA 
BRANCH  36  37
HETATM   37  C   UNL     1      -9.932  14.871  65.716  1.00  0.00    -0.347 C  
BRANCH  37  38
HETATM   38  C   UNL     1     -10.732  15.822  66.595  1.00  0.00    -0.287 C  
BRANCH  38  39
HETATM   39  O   UNL     1      -9.878  16.868  67.050  1.00  0.00    -0.255 OA 
BRANCH  39  40
HETATM   40  C   UNL     1     -10.506  17.642  68.071  1.00  0.00    -0.394 C  
BRANCH  40  41
HETATM   41  C   UNL     1     -10.904  18.995  67.497  1.00  0.00    -0.391 C  
BRANCH  41  42
HETATM   42  O   UNL     1      -9.812  19.532  66.754  1.00  0.00    -0.332 OA 
HETATM   43  C   UNL     1      -9.284  20.695  67.377  1.00  0.00    -0.300 C  
ENDBRANCH  41  42
ENDBRANCH  40  41
ENDBRANCH  39  40
ENDBRANCH  38  39
ENDBRANCH  37  38
ENDBRANCH  36  37
ENDBRANCH  35  36
ENDBRANCH  34  35
ENDBRANCH  33  34
ENDBRANCH  32  33
ENDBRANCH  31  32
ENDBRANCH  30  31
ENDBRANCH  29  30
ENDBRANCH  28  29
ENDBRANCH  27  28
ENDBRANCH  26  27
ENDBRANCH  25  26
ENDBRANCH  24  25
ENDBRANCH  23  24
ENDBRANCH  22  23
ENDBRANCH  21  22
ENDBRANCH  20  21
ENDBRANCH  19  20
ENDBRANCH  18  19
ENDBRANCH  17  18
ENDBRANCH  16  17
ENDBRANCH  15  16
ENDBRANCH  13  15
ENDBRANCH  10  13
ENDBRANCH   5   7
ENDBRANCH   4   5
ENDBRANCH   3   4
ENDBRANCH   2   3
TORSDOF 33
ENDMDL
MODEL      111
REMARK 921   NORMALIZED FREE ENERGY PREDICTED BY IDOCK:   -3.51 KCAL/MOL
REMARK 922        TOTAL FREE ENERGY PREDICTED BY IDOCK:  -13.07 KCAL/MOL
REMARK 923 INTER-LIGAND FREE ENERGY PREDICTED BY IDOCK:  -10.03 KCAL/MOL
REMARK 924 INTRA-LIGAND FREE ENERGY PREDICTED BY IDOCK:   -3.04 KCAL/MOL
REMARK 927      BINDING AFFINITY PREDICTED BY RF-SCORE:    0.00 PKD
ROOT
HETATM    1  C   UNL     1     -13.731  15.779  72.823  1.00  0.00    -0.639 C  
HETATM    2  C   UNL     1     -13.510  14.289  72.636  1.00  0.00    -0.623 C  
ENDROOT
BRANCH   2   3
HETATM    3  C   UNL     1     -13.474  13.892  71.158  1.00  0.00    -0.199 C  
BRANCH   3   4
HETATM    4  C   UNL     1     -12.418  12.812  70.948  1.00  0.00    -0.283 C  
BRANCH   4   5
HETATM    5  N   UNL     1     -11.674  13.019  69.710  1.00  0.00    -0.429 NA 
HETATM    6  H   UNL     1     -11.373  12.230  69.138  1.00  0.00     0.000 HD 
BRANCH   5   7
HETATM    7  C   UNL     1     -11.387  14.341  69.332  1.00  0.00    -0.282 A  
HETATM    8  C   UNL     1     -11.768  14.883  68.097  1.00  0.00    -0.344 A  
HETATM    9  C   UNL     1     -11.400  16.175  67.722  1.00  0.00    -0.126 A  
HETATM   10  C   UNL     1     -10.606  16.957  68.564  1.00  0.00    -0.367 A  
HETATM   11  C   UNL     1     -10.574  15.127  70.162  1.00  0.00    -0.227 A  
HETATM   12  C   UNL     1     -10.189  16.426  69.790  1.00  0.00    -0.142 A  
BRANCH  10  13
HETATM   13  C   UNL     1     -10.228  18.309  68.079  1.00  0.00    -0.385 C  
HETATM   14  O   UNL     1     -10.355  19.321  68.754  1.00  0.00    -0.345 OA 
BRANCH  13  15
HETATM   15  O   UNL     1      -9.766  18.264  66.809  1.00  0.00    -0.294 OA 
BRANCH  15  16
HETATM   16  C   UNL     1      -9.504  19.552  66.221  1.00  0.00    -0.384 C  
BRANCH  16  17
HETATM   17  C   UNL     1      -8.038  19.952  66.391  1.00  0.00    -0.331 C  
BRANCH  17  18
HETATM   18  O   UNL     1      -7.384  19.899  65.119  1.00  0.00    -0.349 OA 
BRANCH  18  19
HETATM   19  C   UNL     1      -6.498  18.786  65.038  1.00  0.00    -0.133 C  
BRANCH  19  20
HETATM   20  C   UNL     1      -5.564  18.791  66.241  1.00  0.00    -0.154 C  
BRANCH  20  21
HETATM   21  O   UNL     1      -5.463  17.465  66.757  1.00  0.00    -0.144 OA 
BRANCH  21  22
HETATM   22  C   UNL     1      -6.140  17.339  68.006  1.00  0.00    -0.135 C  
BRANCH  22  23
HETATM   23  C   UNL     1      -7.002  16.083  67.981  1.00  0.00    -0.127 C  
BRANCH  23  24
HETATM   24  O   UNL     1      -7.426  15.834  66.643  1.00  0.00    -0.166 OA 
BRANCH  24  25
HETATM   25  C   UNL     1      -8.424  14.816  66.599  1.00  0.00    -0.058 C  
BRANCH  25  26
HETATM   26  C   UNL     1      -8.149  13.803  67.701  1.00  0.00    -0.177 C  
BRANCH  26  27
HETATM   27  O   UNL     1      -8.796  12.576  67.375  1.00  0.00    -0.170 OA 
BRANCH  27  28
HETATM   28  C   UNL     1      -7.950  11.460  67.643  1.00  0.00    -0.123 C  
BRANCH  28  29
HETATM   29  C   UNL     1      -8.131  11.039  69.094  1.00  0.00    -0.061 C  
BRANCH  29  30
HETATM   30  O   UNL     1      -9.093   9.989  69.153  1.00  0.00    -0.161 OA 
BRANCH  30  31
HETATM   31  C   UNL     1      -9.155   9.421  70.458  1.00  0.00    -0.256 C  
BRANCH  31  32
HETATM   32  C   UNL     1     -10.583   9.519  70.973  1.00  0.00    -0.322 C  
BRANCH  32  33
HETATM   33  O   UNL     1     -11.341   8.438  70.439  1.00  0.00    -0.250 OA 
BRANCH  33  34
HETATM   34  C   UNL     1     -11.616   7.461  71.438  1.00  0.00    -0.275 C  
BRANCH  34  35
HETATM   35  C   UNL     1     -11.150   6.101  70.940  1.00  0.00    -0.307 C  
BRANCH  35  36
HETATM   36  O   UNL     1     -10.490   5.419  72.003  1.00  0.00    -0.209 OA 
BRANCH  36  37
HETATM   37  C   UNL     1      -9.118   5.187  71.695  1.00  0.00    -0.141 C  
BRANCH  37  38
HETATM   38  C   UNL     1      -8.937   5.224  70.184  1.00  0.00    -0.129 C  
BRANCH  38  39
HETATM   39  O   UNL     1      -7.765   5.972  69.872  1.00  0.00    -0.088 OA 
BRANCH  39  40
HETATM   40  C   UNL     1      -7.808   6.467  68.534  1.00  0.00    -0.105 C  
BRANCH  40  41
HETATM   41  C   UNL     1      -9.201   6.241  67.964  1.00  0.00    -0.116 C  
BRANCH  41  42
HETATM   42  O   UNL     1      -9.345   6.985  66.756  1.00  0.00    -0.145 OA 
HETATM   43  C   UNL     1     -10.387   7.946  66.861  1.00  0.00    -0.330 C  
ENDBRANCH  41  42
ENDBRANCH  40  41
ENDBRANCH  39  40
ENDBRANCH  38  39
ENDBRANCH  37  38
ENDBRANCH  36  37
ENDBRANCH  35  36
ENDBRANCH  34  35
ENDBRANCH  33  34
ENDBRANCH  32  33
ENDBRANCH  31  32
ENDBRANCH  30  31
ENDBRANCH  29  30
ENDBRANCH  28  29
ENDBRANCH  27  28
ENDBRANCH  26  27
ENDBRANCH  25  26
ENDBRANCH  24  25
ENDBRANCH  23  24
ENDBRANCH  22  23
ENDBRANCH  21  22
ENDBRANCH  20  21
ENDBRANCH  19  20
ENDBRANCH  18  19
ENDBRANCH  17  18
ENDBRANCH  16  17
ENDBRANCH  15  16
ENDBRANCH  13  15
ENDBRANCH  10  13
ENDBRANCH   5   7
ENDBRANCH   4   5
ENDBRANCH   3   4
ENDBRANCH   2   3
TORSDOF 33
ENDMDL
MODEL      112
REMARK 921   NORMALIZED FREE ENERGY PREDICTED BY IDOCK:   -3.49 KCAL/MOL
REMARK 922        TOTAL FREE ENERGY PREDICTED BY IDOCK:  -13.02 KCAL/MOL
REMARK 923 INTER-LIGAND FREE ENERGY PREDICTED BY IDOCK:   -9.90 KCAL/MOL
REMARK 924 INTRA-LIGAND FREE ENERGY PREDICTED BY IDOCK:   -3.13 KCAL/MOL
REMARK 927      BINDING AFFINITY PREDICTED BY RF-SCORE:    0.00 PKD
ROOT
HETATM    1  C   UNL     1      -9.671   1.471  63.022  1.00  0.00    -0.096 C  
HETATM    2  C   UNL     1     -10.729   2.488  62.640  1.00  0.00    -0.167 C  
ENDROOT
BRANCH   2   3
HETATM    3  C   UNL     1     -10.759   3.679  63.601  1.00  0.00    -0.260 C  
BRANCH   3   4
HETATM    4  C   UNL     1      -9.902   3.369  64.823  1.00  0.00    -0.124 C  
BRANCH   4   5
HETATM    5  N   UNL     1      -8.886   4.391  65.043  1.00  0.00    -0.135 NA 
HETATM    6  H   UNL     1      -7.987   4.352  64.563  1.00  0.00     0.000 HD 
BRANCH   5   7
HETATM    7  C   UNL     1      -9.186   5.432  65.937  1.00  0.00    -0.156 A  
HETATM    8  C   UNL     1     -10.051   5.277  67.028  1.00  0.00    -0.243 A  
HETATM    9  C   UNL     1     -10.388   6.351  67.852  1.00  0.00    -0.234 A  
HETATM   10  C   UNL     1      -9.891   7.629  67.586  1.00  0.00    -0.207 A  
HETATM   11  C   UNL     1      -8.708   6.723  65.668  1.00  0.00    -0.086 A  
HETATM   12  C   UNL     1      -9.049   7.814  66.484  1.00  0.00    -0.208 A  
BRANCH  10  13
HETATM   13  C   UNL     1     -10.322   8.728  68.488  1.00  0.00    -0.199 C  
HETATM   14  O   UNL     1     -11.087   9.617  68.142  1.00  0.00    -0.176 OA 
BRANCH  13  15
HETATM   15  O   UNL     1      -9.739   8.622  69.704  1.00  0.00    -0.175 OA 
BRANCH  15  16
HETATM   16  C   UNL     1      -8.302   8.716  69.690  1.00  0.00    -0.123 C  
BRANCH  16  17
HETATM   17  C   UNL     1      -7.835  10.132  70.026  1.00  0.00    -0.115 C  
BRANCH  17  18
HETATM   18  O   UNL     1      -7.811  10.917  68.829  1.00  0.00    -0.116 OA 
BRANCH  18  19
HETATM   19  C   UNL     1      -6.953  10.339  67.848  1.00  0.00    -0.083 C  
BRANCH  19  20
HETATM   20  C   UNL     1      -6.766  11.317  66.696  1.00  0.00    -0.132 C  
BRANCH  20  21
HETATM   21  O   UNL     1      -5.653  10.898  65.906  1.00  0.00    -0.126 OA 
BRANCH  21  22
HETATM   22  C   UNL     1      -5.903   9.641  65.280  1.00  0.00    -0.067 C  
BRANCH  22  23
HETATM   23  C   UNL     1      -6.103   9.860  63.786  1.00  0.00    -0.123 C  
BRANCH  23  24
HETATM   24  O   UNL     1      -7.408   9.415  63.419  1.00  0.00    -0.099 OA 
BRANCH  24  25
HETATM   25  C   UNL     1      -8.195  10.489  62.908  1.00  0.00    -0.147 C  
BRANCH  25  26
HETATM   26  C   UNL     1      -9.304  10.807  63.900  1.00  0.00    -0.253 C  
BRANCH  26  27
HETATM   27  O   UNL     1      -9.942  12.020  63.509  1.00  0.00    -0.399 OA 
BRANCH  27  28
HETATM   28  C   UNL     1     -11.336  11.821  63.285  1.00  0.00    -0.253 C  
BRANCH  28  29
HETATM   29  C   UNL     1     -12.073  13.122  63.564  1.00  0.00    -0.514 C  
BRANCH  29  30
HETATM   30  O   UNL     1     -12.884  12.954  64.723  1.00  0.00    -0.706 OA 
BRANCH  30  31
HETATM   31  C   UNL     1     -12.967  14.162  65.473  1.00  0.00    -0.272 C  
BRANCH  31  32
HETATM   32  C   UNL     1     -12.118  14.025  66.728  1.00  0.00    -0.447 C  
BRANCH  32  33
HETATM   33  O   UNL     1     -11.494  12.745  66.725  1.00  0.00    -0.306 OA 
BRANCH  33  34
HETATM   34  C   UNL     1     -10.101  12.852  67.005  1.00  0.00    -0.245 C  
BRANCH  34  35
HETATM   35  C   UNL     1      -9.671  14.300  66.821  1.00  0.00    -0.275 C  
BRANCH  35  36
HETATM   36  O   UNL     1      -8.676  14.614  67.792  1.00  0.00    -0.159 OA 
BRANCH  36  37
HETATM   37  C   UNL     1      -9.266  14.975  69.038  1.00  0.00    -0.205 C  
BRANCH  37  38
HETATM   38  C   UNL     1      -9.635  16.452  69.002  1.00  0.00    -0.264 C  
BRANCH  38  39
HETATM   39  O   UNL     1     -11.049  16.582  69.118  1.00  0.00    -0.311 OA 
BRANCH  39  40
HETATM   40  C   UNL     1     -11.598  15.550  69.936  1.00  0.00    -0.335 C  
BRANCH  40  41
HETATM   41  C   UNL     1     -11.760  16.074  71.356  1.00  0.00    -0.473 C  
BRANCH  41  42
HETATM   42  O   UNL     1     -12.253  15.029  72.192  1.00  0.00    -0.334 OA 
HETATM   43  C   UNL     1     -13.298  15.492  73.037  1.00  0.00    -0.548 C  
ENDBRANCH  41  42
ENDBRANCH  40  41
ENDBRANCH  39  40
ENDBRANCH  38  39
ENDBRANCH  37  38
ENDBRANCH  36  37
ENDBRANCH  35  36
ENDBRANCH  34  35
ENDBRANCH  33  34
ENDBRANCH  32  33
ENDBRANCH  31  32
ENDBRANCH  30  31
ENDBRANCH  29  30
ENDBRANCH  28  29
ENDBRANCH  27  28
ENDBRANCH  26  27
ENDBRANCH  25  26
ENDBRANCH  24  25
ENDBRANCH  23  24
ENDBRANCH  22  23
ENDBRANCH  21  22
ENDBRANCH  20  21
ENDBRANCH  19  20
ENDBRANCH  18  19
ENDBRANCH  17  18
ENDBRANCH  16  17
ENDBRANCH  15  16
ENDBRANCH  13  15
ENDBRANCH  10  13
ENDBRANCH   5   7
ENDBRANCH   4   5
ENDBRANCH   3   4
ENDBRANCH   2   3
TORSDOF 33
ENDMDL
MODEL      113
REMARK 921   NORMALIZED FREE ENERGY PREDICTED BY IDOCK:   -3.48 KCAL/MOL
REMARK 922        TOTAL FREE ENERGY PREDICTED BY IDOCK:  -13.00 KCAL/MOL
REMARK 923 INTER-LIGAND FREE ENERGY PREDICTED BY IDOCK:  -10.52 KCAL/MOL
REMARK 924 INTRA-LIGAND FREE ENERGY PREDICTED BY IDOCK:   -2.48 KCAL/MOL
REMARK 927      BINDING AFFINITY PREDICTED BY RF-SCORE:    0.00 PKD
ROOT
HETATM    1  C   UNL     1      -6.560   5.029  64.338  1.00  0.00    -0.042 C  
HETATM    2  C   UNL     1      -7.151   4.888  65.728  1.00  0.00    -0.067 C  
ENDROOT
BRANCH   2   3
HETATM    3  C   UNL     1      -8.310   5.859  65.965  1.00  0.00    -0.128 C  
BRANCH   3   4
HETATM    4  C   UNL     1      -9.604   5.072  66.147  1.00  0.00    -0.168 C  
BRANCH   4   5
HETATM    5  N   UNL     1      -9.619   4.345  67.411  1.00  0.00    -0.174 NA 
HETATM    6  H   UNL     1      -9.294   3.381  67.469  1.00  0.00     0.000 HD 
BRANCH   5   7
HETATM    7  C   UNL     1     -10.098   5.018  68.548  1.00  0.00    -0.114 A  
HETATM    8  C   UNL     1      -9.783   4.630  69.856  1.00  0.00    -0.279 A  
HETATM    9  C   UNL     1     -10.336   5.274  70.963  1.00  0.00    -0.298 A  
HETATM   10  C   UNL     1     -11.254   6.312  70.791  1.00  0.00    -0.387 A  
HETATM   11  C   UNL     1     -11.034   6.050  68.386  1.00  0.00    -0.340 A  
HETATM   12  C   UNL     1     -11.607   6.698  69.493  1.00  0.00    -0.257 A  
BRANCH  10  13
HETATM   13  C   UNL     1     -11.825   6.924  72.018  1.00  0.00    -0.310 C  
HETATM   14  O   UNL     1     -11.162   7.164  73.017  1.00  0.00    -0.294 OA 
BRANCH  13  15
HETATM   15  O   UNL     1     -13.153   7.144  71.885  1.00  0.00    -0.309 OA 
BRANCH  15  16
HETATM   16  C   UNL     1     -13.584   8.464  72.265  1.00  0.00    -0.270 C  
BRANCH  16  17
HETATM   17  C   UNL     1     -13.411   9.457  71.117  1.00  0.00    -0.215 C  
BRANCH  17  18
HETATM   18  O   UNL     1     -12.272  10.285  71.376  1.00  0.00    -0.363 OA 
BRANCH  18  19
HETATM   19  C   UNL     1     -12.344  11.508  70.648  1.00  0.00    -0.364 C  
BRANCH  19  20
HETATM   20  C   UNL     1     -11.345  11.476  69.500  1.00  0.00    -0.274 C  
BRANCH  20  21
HETATM   21  O   UNL     1     -11.932  10.794  68.392  1.00  0.00    -0.508 OA 
BRANCH  21  22
HETATM   22  C   UNL     1     -10.973   9.991  67.708  1.00  0.00    -0.249 C  
BRANCH  22  23
HETATM   23  C   UNL     1      -9.638  10.724  67.676  1.00  0.00    -0.158 C  
BRANCH  23  24
HETATM   24  O   UNL     1      -8.849  10.211  66.605  1.00  0.00    -0.132 OA 
BRANCH  24  25
HETATM   25  C   UNL     1      -7.640  10.952  66.454  1.00  0.00    -0.146 C  
BRANCH  25  26
HETATM   26  C   UNL     1      -7.730  12.225  67.283  1.00  0.00    -0.161 C  
BRANCH  26  27
HETATM   27  O   UNL     1      -6.427  12.787  67.413  1.00  0.00    -0.155 OA 
BRANCH  27  28
HETATM   28  C   UNL     1      -6.468  14.029  68.112  1.00  0.00    -0.126 C  
BRANCH  28  29
HETATM   29  C   UNL     1      -7.436  14.965  67.402  1.00  0.00    -0.199 C  
BRANCH  29  30
HETATM   30  O   UNL     1      -6.979  16.305  67.559  1.00  0.00    -0.128 OA 
BRANCH  30  31
HETATM   31  C   UNL     1      -7.470  16.879  68.767  1.00  0.00    -0.237 C  
BRANCH  31  32
HETATM   32  C   UNL     1      -6.397  17.781  69.359  1.00  0.00    -0.239 C  
BRANCH  32  33
HETATM   33  O   UNL     1      -6.850  19.130  69.309  1.00  0.00    -0.309 OA 
BRANCH  33  34
HETATM   34  C   UNL     1      -6.386  19.784  68.132  1.00  0.00    -0.242 C  
BRANCH  34  35
HETATM   35  C   UNL     1      -7.428  20.801  67.689  1.00  0.00    -0.230 C  
BRANCH  35  36
HETATM   36  O   UNL     1      -8.703  20.164  67.633  1.00  0.00    -0.324 OA 
BRANCH  36  37
HETATM   37  C   UNL     1      -9.007  19.735  66.309  1.00  0.00    -0.376 C  
BRANCH  37  38
HETATM   38  C   UNL     1     -10.500  19.453  66.211  1.00  0.00    -0.493 C  
BRANCH  38  39
HETATM   39  O   UNL     1     -10.700  18.247  65.479  1.00  0.00    -0.596 OA 
BRANCH  39  40
HETATM   40  C   UNL     1     -10.320  17.106  66.248  1.00  0.00    -0.313 C  
BRANCH  40  41
HETATM   41  C   UNL     1     -11.271  15.959  65.938  1.00  0.00     0.065 C  
BRANCH  41  42
HETATM   42  O   UNL     1     -10.794  14.768  66.562  1.00  0.00    -0.307 OA 
HETATM   43  C   UNL     1     -11.248  13.608  65.878  1.00  0.00    -0.304 C  
ENDBRANCH  41  42
ENDBRANCH  40  41
ENDBRANCH  39  40
ENDBRANCH  38  39
ENDBRANCH  37  38
ENDBRANCH  36  37
ENDBRANCH  35  36
ENDBRANCH  34  35
ENDBRANCH  33  34
ENDBRANCH  32  33
ENDBRANCH  31  32
ENDBRANCH  30  31
ENDBRANCH  29  30
ENDBRANCH  28  29
ENDBRANCH  27  28
ENDBRANCH  26  27
ENDBRANCH  25  26
ENDBRANCH  24  25
ENDBRANCH  23  24
ENDBRANCH  22  23
ENDBRANCH  21  22
ENDBRANCH  20  21
ENDBRANCH  19  20
ENDBRANCH  18  19
ENDBRANCH  17  18
ENDBRANCH  16  17
ENDBRANCH  15  16
ENDBRANCH  13  15
ENDBRANCH  10  13
ENDBRANCH   5   7
ENDBRANCH   4   5
ENDBRANCH   3   4
ENDBRANCH   2   3
TORSDOF 33
ENDMDL
MODEL      114
REMARK 921   NORMALIZED FREE ENERGY PREDICTED BY IDOCK:   -3.46 KCAL/MOL
REMARK 922        TOTAL FREE ENERGY PREDICTED BY IDOCK:  -12.94 KCAL/MOL
REMARK 923 INTER-LIGAND FREE ENERGY PREDICTED BY IDOCK:   -9.98 KCAL/MOL
REMARK 924 INTRA-LIGAND FREE ENERGY PREDICTED BY IDOCK:   -2.96 KCAL/MOL
REMARK 927      BINDING AFFINITY PREDICTED BY RF-SCORE:    0.00 PKD
ROOT
HETATM    1  C   UNL     1      -5.637  13.652  71.089  1.00  0.00    -0.214 C  
HETATM    2  C   UNL     1      -5.258  12.780  69.907  1.00  0.00    -0.087 C  
ENDROOT
BRANCH   2   3
HETATM    3  C   UNL     1      -6.450  11.978  69.376  1.00  0.00    -0.115 C  
BRANCH   3   4
HETATM    4  C   UNL     1      -6.194  10.489  69.583  1.00  0.00    -0.063 C  
BRANCH   4   5
HETATM    5  N   UNL     1      -6.775  10.011  70.833  1.00  0.00    -0.331 NA 
HETATM    6  H   UNL     1      -6.429  10.340  71.735  1.00  0.00     0.000 HD 
BRANCH   5   7
HETATM    7  C   UNL     1      -7.826   9.084  70.754  1.00  0.00    -0.136 A  
HETATM    8  C   UNL     1      -7.634   7.699  70.849  1.00  0.00    -0.080 A  
HETATM    9  C   UNL     1      -8.691   6.803  70.689  1.00  0.00    -0.143 A  
HETATM   10  C   UNL     1      -9.974   7.267  70.395  1.00  0.00    -0.192 A  
HETATM   11  C   UNL     1      -9.116   9.539  70.440  1.00  0.00    -0.296 A  
HETATM   12  C   UNL     1     -10.185   8.644  70.267  1.00  0.00    -0.213 A  
BRANCH  10  13
HETATM   13  C   UNL     1     -11.039   6.249  70.206  1.00  0.00    -0.364 C  
HETATM   14  O   UNL     1     -11.993   6.131  70.962  1.00  0.00    -0.172 OA 
BRANCH  13  15
HETATM   15  O   UNL     1     -10.791   5.473  69.127  1.00  0.00    -0.251 OA 
BRANCH  15  16
HETATM   16  C   UNL     1     -10.881   6.156  67.863  1.00  0.00    -0.319 C  
BRANCH  16  17
HETATM   17  C   UNL     1      -9.632   5.921  67.014  1.00  0.00    -0.132 C  
BRANCH  17  18
HETATM   18  O   UNL     1      -8.701   6.984  67.240  1.00  0.00    -0.119 OA 
BRANCH  18  19
HETATM   19  C   UNL     1      -8.239   7.537  66.010  1.00  0.00    -0.130 C  
BRANCH  19  20
HETATM   20  C   UNL     1      -8.584   9.020  65.957  1.00  0.00    -0.142 C  
BRANCH  20  21
HETATM   21  O   UNL     1      -9.326   9.366  67.125  1.00  0.00    -0.135 OA 
BRANCH  21  22
HETATM   22  C   UNL     1     -10.514  10.082  66.794  1.00  0.00    -0.198 C  
BRANCH  22  23
HETATM   23  C   UNL     1     -10.525  11.406  67.547  1.00  0.00    -0.201 C  
BRANCH  23  24
HETATM   24  O   UNL     1     -11.875  11.788  67.800  1.00  0.00    -0.541 OA 
BRANCH  24  25
HETATM   25  C   UNL     1     -11.957  12.705  68.889  1.00  0.00    -0.242 C  
BRANCH  25  26
HETATM   26  C   UNL     1     -11.969  11.926  70.196  1.00  0.00    -0.332 C  
BRANCH  26  27
HETATM   27  O   UNL     1     -13.280  11.973  70.752  1.00  0.00     0.123 OA 
BRANCH  27  28
HETATM   28  C   UNL     1     -13.233  12.094  72.172  1.00  0.00    -0.333 C  
BRANCH  28  29
HETATM   29  C   UNL     1     -13.297  13.567  72.546  1.00  0.00    -0.513 C  
BRANCH  29  30
HETATM   30  O   UNL     1     -14.134  14.244  71.613  1.00  0.00    -0.406 OA 
BRANCH  30  31
HETATM   31  C   UNL     1     -13.560  15.486  71.213  1.00  0.00    -0.439 C  
BRANCH  31  32
HETATM   32  C   UNL     1     -12.221  15.660  71.914  1.00  0.00    -0.427 C  
BRANCH  32  33
HETATM   33  O   UNL     1     -11.377  16.468  71.101  1.00  0.00    -0.298 OA 
BRANCH  33  34
HETATM   34  C   UNL     1     -10.774  15.699  70.064  1.00  0.00    -0.335 C  
BRANCH  34  35
HETATM   35  C   UNL     1      -9.870  16.605  69.240  1.00  0.00    -0.194 C  
BRANCH  35  36
HETATM   36  O   UNL     1     -10.471  17.893  69.141  1.00  0.00    -0.279 OA 
BRANCH  36  37
HETATM   37  C   UNL     1     -10.760  18.225  67.785  1.00  0.00    -0.333 C  
BRANCH  37  38
HETATM   38  C   UNL     1      -9.474  18.150  66.973  1.00  0.00    -0.274 C  
BRANCH  38  39
HETATM   39  O   UNL     1      -9.695  17.338  65.824  1.00  0.00    -0.530 OA 
BRANCH  39  40
HETATM   40  C   UNL     1      -8.892  16.159  65.861  1.00  0.00    -0.161 C  
BRANCH  40  41
HETATM   41  C   UNL     1      -7.505  16.518  66.377  1.00  0.00    -0.170 C  
BRANCH  41  42
HETATM   42  O   UNL     1      -7.134  15.608  67.410  1.00  0.00    -0.174 OA 
HETATM   43  C   UNL     1      -5.725  15.582  67.595  1.00  0.00    -0.092 C  
ENDBRANCH  41  42
ENDBRANCH  40  41
ENDBRANCH  39  40
ENDBRANCH  38  39
ENDBRANCH  37  38
ENDBRANCH  36  37
ENDBRANCH  35  36
ENDBRANCH  34  35
ENDBRANCH  33  34
ENDBRANCH  32  33
ENDBRANCH  31  32
ENDBRANCH  30  31
ENDBRANCH  29  30
ENDBRANCH  28  29
ENDBRANCH  27  28
ENDBRANCH  26  27
ENDBRANCH  25  26
ENDBRANCH  24  25
ENDBRANCH  23  24
ENDBRANCH  22  23
ENDBRANCH  21  22
ENDBRANCH  20  21
ENDBRANCH  19  20
ENDBRANCH  18  19
ENDBRANCH  17  18
ENDBRANCH  16  17
ENDBRANCH  15  16
ENDBRANCH  13  15
ENDBRANCH  10  13
ENDBRANCH   5   7
ENDBRANCH   4   5
ENDBRANCH   3   4
ENDBRANCH   2   3
TORSDOF 33
ENDMDL
MODEL      115
REMARK 921   NORMALIZED FREE ENERGY PREDICTED BY IDOCK:   -3.46 KCAL/MOL
REMARK 922        TOTAL FREE ENERGY PREDICTED BY IDOCK:  -12.94 KCAL/MOL
REMARK 923 INTER-LIGAND FREE ENERGY PREDICTED BY IDOCK:  -10.90 KCAL/MOL
REMARK 924 INTRA-LIGAND FREE ENERGY PREDICTED BY IDOCK:   -2.04 KCAL/MOL
REMARK 927      BINDING AFFINITY PREDICTED BY RF-SCORE:    0.00 PKD
ROOT
HETATM    1  C   UNL     1     -11.254  11.859  63.325  1.00  0.00    -0.382 C  
HETATM    2  C   UNL     1     -11.680  12.552  64.605  1.00  0.00    -0.416 C  
ENDROOT
BRANCH   2   3
HETATM    3  C   UNL     1     -10.644  13.574  65.081  1.00  0.00    -0.364 C  
BRANCH   3   4
HETATM    4  C   UNL     1     -11.301  14.946  65.199  1.00  0.00    -0.379 C  
BRANCH   4   5
HETATM    5  N   UNL     1     -10.540  15.834  66.070  1.00  0.00    -0.321 NA 
HETATM    6  H   UNL     1      -9.778  16.405  65.704  1.00  0.00     0.000 HD 
BRANCH   5   7
HETATM    7  C   UNL     1     -10.892  15.878  67.429  1.00  0.00    -0.291 A  
HETATM    8  C   UNL     1     -10.385  16.833  68.320  1.00  0.00    -0.319 A  
HETATM    9  C   UNL     1     -10.696  16.801  69.679  1.00  0.00    -0.229 A  
HETATM   10  C   UNL     1     -11.503  15.786  70.197  1.00  0.00    -0.366 A  
HETATM   11  C   UNL     1     -11.687  14.852  67.961  1.00  0.00    -0.344 A  
HETATM   12  C   UNL     1     -11.998  14.805  69.330  1.00  0.00    -0.339 A  
BRANCH  10  13
HETATM   13  C   UNL     1     -11.762  15.802  71.659  1.00  0.00    -0.464 C  
HETATM   14  O   UNL     1     -11.938  16.830  72.296  1.00  0.00    -0.292 OA 
BRANCH  13  15
HETATM   15  O   UNL     1     -11.743  14.551  72.174  1.00  0.00    -0.150 OA 
BRANCH  15  16
HETATM   16  C   UNL     1     -12.981  14.133  72.779  1.00  0.00    -0.422 C  
BRANCH  16  17
HETATM   17  C   UNL     1     -13.656  13.034  71.959  1.00  0.00    -0.441 C  
BRANCH  17  18
HETATM   18  O   UNL     1     -13.364  11.761  72.546  1.00  0.00    -0.207 OA 
BRANCH  18  19
HETATM   19  C   UNL     1     -13.076  10.785  71.548  1.00  0.00    -0.414 C  
BRANCH  19  20
HETATM   20  C   UNL     1     -12.057  11.346  70.566  1.00  0.00    -0.394 C  
BRANCH  20  21
HETATM   21  O   UNL     1     -10.939  10.462  70.501  1.00  0.00    -0.299 OA 
BRANCH  21  22
HETATM   22  C   UNL     1     -11.147   9.299  71.299  1.00  0.00    -0.357 C  
BRANCH  22  23
HETATM   23  C   UNL     1      -9.827   8.890  71.939  1.00  0.00    -0.294 C  
BRANCH  23  24
HETATM   24  O   UNL     1      -9.886   7.509  72.290  1.00  0.00    -0.160 OA 
BRANCH  24  25
HETATM   25  C   UNL     1      -9.515   7.307  73.652  1.00  0.00    -0.249 C  
BRANCH  25  26
HETATM   26  C   UNL     1     -10.277   6.110  74.203  1.00  0.00    -0.309 C  
BRANCH  26  27
HETATM   27  O   UNL     1     -11.093   5.564  73.170  1.00  0.00    -0.272 OA 
BRANCH  27  28
HETATM   28  C   UNL     1     -11.334   4.175  73.382  1.00  0.00    -0.198 C  
BRANCH  28  29
HETATM   29  C   UNL     1     -10.049   3.405  73.119  1.00  0.00    -0.144 C  
BRANCH  29  30
HETATM   30  O   UNL     1     -10.241   2.560  71.988  1.00  0.00    -0.152 OA 
BRANCH  30  31
HETATM   31  C   UNL     1      -9.035   2.415  71.243  1.00  0.00    -0.082 C  
BRANCH  31  32
HETATM   32  C   UNL     1      -8.806   3.676  70.423  1.00  0.00    -0.084 C  
BRANCH  32  33
HETATM   33  O   UNL     1     -10.057   4.133  69.921  1.00  0.00    -0.153 OA 
BRANCH  33  34
HETATM   34  C   UNL     1      -9.883   4.916  68.744  1.00  0.00    -0.161 C  
BRANCH  34  35
HETATM   35  C   UNL     1      -9.523   3.995  67.587  1.00  0.00    -0.183 C  
BRANCH  35  36
HETATM   36  O   UNL     1     -10.212   4.430  66.417  1.00  0.00    -0.240 OA 
BRANCH  36  37
HETATM   37  C   UNL     1      -9.334   4.495  65.297  1.00  0.00    -0.160 C  
BRANCH  37  38
HETATM   38  C   UNL     1      -8.422   5.704  65.453  1.00  0.00    -0.147 C  
BRANCH  38  39
HETATM   39  O   UNL     1      -9.219   6.876  65.590  1.00  0.00     0.032 OA 
BRANCH  39  40
HETATM   40  C   UNL     1      -8.534   8.028  65.098  1.00  0.00    -0.100 C  
BRANCH  40  41
HETATM   41  C   UNL     1      -8.955   9.243  65.913  1.00  0.00    -0.184 C  
BRANCH  41  42
HETATM   42  O   UNL     1     -10.313   9.091  66.321  1.00  0.00    -0.247 OA 
HETATM   43  C   UNL     1     -10.714  10.145  67.186  1.00  0.00    -0.221 C  
ENDBRANCH  41  42
ENDBRANCH  40  41
ENDBRANCH  39  40
ENDBRANCH  38  39
ENDBRANCH  37  38
ENDBRANCH  36  37
ENDBRANCH  35  36
ENDBRANCH  34  35
ENDBRANCH  33  34
ENDBRANCH  32  33
ENDBRANCH  31  32
ENDBRANCH  30  31
ENDBRANCH  29  30
ENDBRANCH  28  29
ENDBRANCH  27  28
ENDBRANCH  26  27
ENDBRANCH  25  26
ENDBRANCH  24  25
ENDBRANCH  23  24
ENDBRANCH  22  23
ENDBRANCH  21  22
ENDBRANCH  20  21
ENDBRANCH  19  20
ENDBRANCH  18  19
ENDBRANCH  17  18
ENDBRANCH  16  17
ENDBRANCH  15  16
ENDBRANCH  13  15
ENDBRANCH  10  13
ENDBRANCH   5   7
ENDBRANCH   4   5
ENDBRANCH   3   4
ENDBRANCH   2   3
TORSDOF 33
ENDMDL
MODEL      116
REMARK 921   NORMALIZED FREE ENERGY PREDICTED BY IDOCK:   -3.46 KCAL/MOL
REMARK 922        TOTAL FREE ENERGY PREDICTED BY IDOCK:  -12.93 KCAL/MOL
REMARK 923 INTER-LIGAND FREE ENERGY PREDICTED BY IDOCK:  -10.92 KCAL/MOL
REMARK 924 INTRA-LIGAND FREE ENERGY PREDICTED BY IDOCK:   -2.01 KCAL/MOL
REMARK 927      BINDING AFFINITY PREDICTED BY RF-SCORE:    0.00 PKD
ROOT
HETATM    1  C   UNL     1      -7.771  10.029  64.152  1.00  0.00    -0.144 C  
HETATM    2  C   UNL     1      -7.317   8.702  64.730  1.00  0.00    -0.091 C  
ENDROOT
BRANCH   2   3
HETATM    3  C   UNL     1      -7.590   7.534  63.778  1.00  0.00    -0.118 C  
BRANCH   3   4
HETATM    4  C   UNL     1      -7.653   6.235  64.573  1.00  0.00    -0.099 C  
BRANCH   4   5
HETATM    5  N   UNL     1      -8.958   6.049  65.199  1.00  0.00    -0.369 NA 
HETATM    6  H   UNL     1      -9.809   6.395  64.756  1.00  0.00     0.000 HD 
BRANCH   5   7
HETATM    7  C   UNL     1      -9.003   5.376  66.431  1.00  0.00    -0.131 A  
HETATM    8  C   UNL     1      -9.219   3.996  66.542  1.00  0.00    -0.171 A  
HETATM    9  C   UNL     1      -9.334   3.372  67.784  1.00  0.00    -0.243 A  
HETATM   10  C   UNL     1      -9.271   4.121  68.960  1.00  0.00    -0.213 A  
HETATM   11  C   UNL     1      -8.959   6.122  67.618  1.00  0.00    -0.111 A  
HETATM   12  C   UNL     1      -9.085   5.506  68.874  1.00  0.00    -0.133 A  
BRANCH  10  13
HETATM   13  C   UNL     1      -9.436   3.390  70.242  1.00  0.00    -0.177 C  
HETATM   14  O   UNL     1      -9.741   2.207  70.303  1.00  0.00    -0.066 OA 
BRANCH  13  15
HETATM   15  O   UNL     1      -9.238   4.205  71.302  1.00  0.00    -0.120 OA 
BRANCH  15  16
HETATM   16  C   UNL     1      -8.026   3.950  72.037  1.00  0.00    -0.076 C  
BRANCH  16  17
HETATM   17  C   UNL     1      -7.187   5.220  72.182  1.00  0.00    -0.087 C  
BRANCH  17  18
HETATM   18  O   UNL     1      -8.035   6.304  72.573  1.00  0.00    -0.103 OA 
BRANCH  18  19
HETATM   19  C   UNL     1      -8.443   6.178  73.934  1.00  0.00    -0.119 C  
BRANCH  19  20
HETATM   20  C   UNL     1      -9.910   6.564  74.063  1.00  0.00    -0.273 C  
BRANCH  20  21
HETATM   21  O   UNL     1     -10.708   5.383  73.999  1.00  0.00    -0.281 OA 
BRANCH  21  22
HETATM   22  C   UNL     1     -11.644   5.445  72.925  1.00  0.00    -0.228 C  
BRANCH  22  23
HETATM   23  C   UNL     1     -11.513   6.792  72.226  1.00  0.00    -0.276 C  
BRANCH  23  24
HETATM   24  O   UNL     1     -12.233   6.751  70.995  1.00  0.00    -0.377 OA 
BRANCH  24  25
HETATM   25  C   UNL     1     -13.583   7.173  71.173  1.00  0.00    -0.102 C  
BRANCH  25  26
HETATM   26  C   UNL     1     -13.610   8.375  72.105  1.00  0.00    -0.323 C  
BRANCH  26  27
HETATM   27  O   UNL     1     -13.658   9.567  71.325  1.00  0.00    -0.360 OA 
BRANCH  27  28
HETATM   28  C   UNL     1     -12.705  10.522  71.784  1.00  0.00    -0.402 C  
BRANCH  28  29
HETATM   29  C   UNL     1     -13.107  11.902  71.285  1.00  0.00    -0.133 C  
BRANCH  29  30
HETATM   30  O   UNL     1     -13.083  12.814  72.380  1.00  0.00    -0.375 OA 
BRANCH  30  31
HETATM   31  C   UNL     1     -14.129  13.775  72.272  1.00  0.00    -0.531 C  
BRANCH  31  32
HETATM   32  C   UNL     1     -13.524  15.127  71.927  1.00  0.00    -0.424 C  
BRANCH  32  33
HETATM   33  O   UNL     1     -12.108  15.045  72.051  1.00  0.00    -0.342 OA 
BRANCH  33  34
HETATM   34  C   UNL     1     -11.461  15.931  71.142  1.00  0.00    -0.419 C  
BRANCH  34  35
HETATM   35  C   UNL     1     -11.842  15.545  69.721  1.00  0.00    -0.359 C  
BRANCH  35  36
HETATM   36  O   UNL     1     -10.867  14.641  69.208  1.00  0.00    -0.248 OA 
BRANCH  36  37
HETATM   37  C   UNL     1     -11.479  13.464  68.685  1.00  0.00    -0.310 C  
BRANCH  37  38
HETATM   38  C   UNL     1     -10.884  13.163  67.318  1.00  0.00    -0.257 C  
BRANCH  38  39
HETATM   39  O   UNL     1     -11.316  14.155  66.391  1.00  0.00    -0.320 OA 
BRANCH  39  40
HETATM   40  C   UNL     1     -12.402  13.681  65.596  1.00  0.00    -0.478 C  
BRANCH  40  41
HETATM   41  C   UNL     1     -12.336  14.334  64.222  1.00  0.00    -0.377 C  
BRANCH  41  42
HETATM   42  O   UNL     1     -12.176  13.326  63.226  1.00  0.00    -0.663 OA 
HETATM   43  C   UNL     1     -12.634  12.064  63.690  1.00  0.00    -0.490 C  
ENDBRANCH  41  42
ENDBRANCH  40  41
ENDBRANCH  39  40
ENDBRANCH  38  39
ENDBRANCH  37  38
ENDBRANCH  36  37
ENDBRANCH  35  36
ENDBRANCH  34  35
ENDBRANCH  33  34
ENDBRANCH  32  33
ENDBRANCH  31  32
ENDBRANCH  30  31
ENDBRANCH  29  30
ENDBRANCH  28  29
ENDBRANCH  27  28
ENDBRANCH  26  27
ENDBRANCH  25  26
ENDBRANCH  24  25
ENDBRANCH  23  24
ENDBRANCH  22  23
ENDBRANCH  21  22
ENDBRANCH  20  21
ENDBRANCH  19  20
ENDBRANCH  18  19
ENDBRANCH  17  18
ENDBRANCH  16  17
ENDBRANCH  15  16
ENDBRANCH  13  15
ENDBRANCH  10  13
ENDBRANCH   5   7
ENDBRANCH   4   5
ENDBRANCH   3   4
ENDBRANCH   2   3
TORSDOF 33
ENDMDL
MODEL      117
REMARK 921   NORMALIZED FREE ENERGY PREDICTED BY IDOCK:   -3.45 KCAL/MOL
REMARK 922        TOTAL FREE ENERGY PREDICTED BY IDOCK:  -12.92 KCAL/MOL
REMARK 923 INTER-LIGAND FREE ENERGY PREDICTED BY IDOCK:   -9.50 KCAL/MOL
REMARK 924 INTRA-LIGAND FREE ENERGY PREDICTED BY IDOCK:   -3.41 KCAL/MOL
REMARK 927      BINDING AFFINITY PREDICTED BY RF-SCORE:    0.00 PKD
ROOT
HETATM    1  C   UNL     1     -12.608  14.741  73.463  1.00  0.00    -0.553 C  
HETATM    2  C   UNL     1     -13.537  13.933  72.576  1.00  0.00    -0.680 C  
ENDROOT
BRANCH   2   3
HETATM    3  C   UNL     1     -14.026  14.737  71.368  1.00  0.00    -0.512 C  
BRANCH   3   4
HETATM    4  C   UNL     1     -12.869  15.546  70.793  1.00  0.00    -0.458 C  
BRANCH   4   5
HETATM    5  N   UNL     1     -12.580  15.170  69.414  1.00  0.00    -0.594 NA 
HETATM    6  H   UNL     1     -13.318  15.139  68.711  1.00  0.00     0.000 HD 
BRANCH   5   7
HETATM    7  C   UNL     1     -11.252  14.852  69.086  1.00  0.00    -0.279 A  
HETATM    8  C   UNL     1     -10.150  15.553  69.593  1.00  0.00    -0.297 A  
HETATM    9  C   UNL     1      -8.848  15.260  69.187  1.00  0.00    -0.238 A  
HETATM   10  C   UNL     1      -8.611  14.272  68.230  1.00  0.00    -0.176 A  
HETATM   11  C   UNL     1     -11.005  13.873  68.112  1.00  0.00    -0.267 A  
HETATM   12  C   UNL     1      -9.699  13.577  67.688  1.00  0.00    -0.229 A  
BRANCH  10  13
HETATM   13  C   UNL     1      -7.201  14.041  67.825  1.00  0.00    -0.165 C  
HETATM   14  O   UNL     1      -6.537  14.867  67.215  1.00  0.00    -0.297 OA 
BRANCH  13  15
HETATM   15  O   UNL     1      -6.780  12.809  68.189  1.00  0.00    -0.073 OA 
BRANCH  15  16
HETATM   16  C   UNL     1      -6.142  12.749  69.478  1.00  0.00    -0.118 C  
BRANCH  16  17
HETATM   17  C   UNL     1      -6.156  11.328  70.040  1.00  0.00    -0.142 C  
BRANCH  17  18
HETATM   18  O   UNL     1      -7.401  10.703  69.712  1.00  0.00    -0.153 OA 
BRANCH  18  19
HETATM   19  C   UNL     1      -7.322   9.286  69.849  1.00  0.00    -0.074 C  
BRANCH  19  20
HETATM   20  C   UNL     1      -7.027   8.931  71.300  1.00  0.00    -0.091 C  
BRANCH  20  21
HETATM   21  O   UNL     1      -8.256   8.861  72.020  1.00  0.00    -0.362 OA 
BRANCH  21  22
HETATM   22  C   UNL     1      -8.354   7.650  72.766  1.00  0.00    -0.127 C  
BRANCH  22  23
HETATM   23  C   UNL     1      -9.725   7.580  73.427  1.00  0.00    -0.291 C  
BRANCH  23  24
HETATM   24  O   UNL     1     -10.723   7.433  72.419  1.00  0.00    -0.225 OA 
BRANCH  24  25
HETATM   25  C   UNL     1     -11.742   8.421  72.554  1.00  0.00    -0.359 C  
BRANCH  25  26
HETATM   26  C   UNL     1     -12.168   8.888  71.169  1.00  0.00    -0.255 C  
BRANCH  26  27
HETATM   27  O   UNL     1     -11.135   8.579  70.237  1.00  0.00    -0.248 OA 
BRANCH  27  28
HETATM   28  C   UNL     1     -10.855   9.691  69.390  1.00  0.00    -0.217 C  
BRANCH  28  29
HETATM   29  C   UNL     1     -10.517   9.181  67.998  1.00  0.00    -0.224 C  
BRANCH  29  30
HETATM   30  O   UNL     1      -9.890  10.228  67.262  1.00  0.00    -0.171 OA 
BRANCH  30  31
HETATM   31  C   UNL     1      -8.993   9.705  66.286  1.00  0.00    -0.155 C  
BRANCH  31  32
HETATM   32  C   UNL     1      -9.073   8.186  66.304  1.00  0.00    -0.185 C  
BRANCH  32  33
HETATM   33  O   UNL     1      -7.781   7.659  66.589  1.00  0.00    -0.094 OA 
BRANCH  33  34
HETATM   34  C   UNL     1      -7.155   7.169  65.407  1.00  0.00    -0.064 C  
BRANCH  34  35
HETATM   35  C   UNL     1      -8.209   6.517  64.524  1.00  0.00    -0.027 C  
BRANCH  35  36
HETATM   36  O   UNL     1      -7.901   5.133  64.380  1.00  0.00    -0.086 OA 
BRANCH  36  37
HETATM   37  C   UNL     1      -9.084   4.358  64.198  1.00  0.00    -0.149 C  
BRANCH  37  38
HETATM   38  C   UNL     1      -9.461   3.711  65.523  1.00  0.00    -0.158 C  
BRANCH  38  39
HETATM   39  O   UNL     1     -10.540   4.436  66.106  1.00  0.00    -0.181 OA 
BRANCH  39  40
HETATM   40  C   UNL     1     -10.139   5.076  67.317  1.00  0.00    -0.184 C  
BRANCH  40  41
HETATM   41  C   UNL     1      -8.912   4.366  67.872  1.00  0.00    -0.119 C  
BRANCH  41  42
HETATM   42  O   UNL     1      -8.178   5.268  68.698  1.00  0.00    -0.093 OA 
HETATM   43  C   UNL     1      -9.041   6.012  69.546  1.00  0.00    -0.137 C  
ENDBRANCH  41  42
ENDBRANCH  40  41
ENDBRANCH  39  40
ENDBRANCH  38  39
ENDBRANCH  37  38
ENDBRANCH  36  37
ENDBRANCH  35  36
ENDBRANCH  34  35
ENDBRANCH  33  34
ENDBRANCH  32  33
ENDBRANCH  31  32
ENDBRANCH  30  31
ENDBRANCH  29  30
ENDBRANCH  28  29
ENDBRANCH  27  28
ENDBRANCH  26  27
ENDBRANCH  25  26
ENDBRANCH  24  25
ENDBRANCH  23  24
ENDBRANCH  22  23
ENDBRANCH  21  22
ENDBRANCH  20  21
ENDBRANCH  19  20
ENDBRANCH  18  19
ENDBRANCH  17  18
ENDBRANCH  16  17
ENDBRANCH  15  16
ENDBRANCH  13  15
ENDBRANCH  10  13
ENDBRANCH   5   7
ENDBRANCH   4   5
ENDBRANCH   3   4
ENDBRANCH   2   3
TORSDOF 33
ENDMDL
MODEL      118
REMARK 921   NORMALIZED FREE ENERGY PREDICTED BY IDOCK:   -3.43 KCAL/MOL
REMARK 922        TOTAL FREE ENERGY PREDICTED BY IDOCK:  -12.85 KCAL/MOL
REMARK 923 INTER-LIGAND FREE ENERGY PREDICTED BY IDOCK:  -10.80 KCAL/MOL
REMARK 924 INTRA-LIGAND FREE ENERGY PREDICTED BY IDOCK:   -2.05 KCAL/MOL
REMARK 927      BINDING AFFINITY PREDICTED BY RF-SCORE:    0.00 PKD
ROOT
HETATM    1  C   UNL     1      -8.934   1.695  70.633  1.00  0.00    -0.131 C  
HETATM    2  C   UNL     1      -9.925   2.467  71.483  1.00  0.00    -0.126 C  
ENDROOT
BRANCH   2   3
HETATM    3  C   UNL     1      -9.279   3.040  72.747  1.00  0.00    -0.123 C  
BRANCH   3   4
HETATM    4  C   UNL     1     -10.322   3.127  73.856  1.00  0.00    -0.155 C  
BRANCH   4   5
HETATM    5  N   UNL     1     -10.366   4.458  74.452  1.00  0.00    -0.232 NA 
HETATM    6  H   UNL     1     -10.207   4.594  75.450  1.00  0.00     0.000 HD 
BRANCH   5   7
HETATM    7  C   UNL     1     -10.633   5.546  73.605  1.00  0.00    -0.282 A  
HETATM    8  C   UNL     1      -9.985   6.783  73.720  1.00  0.00    -0.318 A  
HETATM    9  C   UNL     1     -10.329   7.866  72.911  1.00  0.00    -0.413 A  
HETATM   10  C   UNL     1     -11.363   7.753  71.980  1.00  0.00    -0.332 A  
HETATM   11  C   UNL     1     -11.682   5.448  72.679  1.00  0.00    -0.214 A  
HETATM   12  C   UNL     1     -12.044   6.536  71.867  1.00  0.00    -0.388 A  
BRANCH  10  13
HETATM   13  C   UNL     1     -11.692   8.960  71.180  1.00  0.00    -0.298 C  
HETATM   14  O   UNL     1     -12.065  10.012  71.679  1.00  0.00    -0.387 OA 
BRANCH  13  15
HETATM   15  O   UNL     1     -11.555   8.724  69.855  1.00  0.00     0.026 OA 
BRANCH  15  16
HETATM   16  C   UNL     1     -10.214   8.878  69.355  1.00  0.00    -0.209 C  
BRANCH  16  17
HETATM   17  C   UNL     1      -9.633   7.539  68.901  1.00  0.00    -0.149 C  
BRANCH  17  18
HETATM   18  O   UNL     1     -10.696   6.692  68.452  1.00  0.00    -0.218 OA 
BRANCH  18  19
HETATM   19  C   UNL     1     -10.643   6.498  67.040  1.00  0.00    -0.332 C  
BRANCH  19  20
HETATM   20  C   UNL     1     -10.296   5.047  66.739  1.00  0.00    -0.244 C  
BRANCH  20  21
HETATM   21  O   UNL     1      -8.981   4.988  66.189  1.00  0.00    -0.124 OA 
BRANCH  21  22
HETATM   22  C   UNL     1      -8.618   6.222  65.574  1.00  0.00    -0.119 C  
BRANCH  22  23
HETATM   23  C   UNL     1      -7.175   6.134  65.093  1.00  0.00    -0.070 C  
BRANCH  23  24
HETATM   24  O   UNL     1      -6.925   7.192  64.170  1.00  0.00    -0.052 OA 
BRANCH  24  25
HETATM   25  C   UNL     1      -7.827   7.139  63.067  1.00  0.00    -0.118 C  
BRANCH  25  26
HETATM   26  C   UNL     1      -8.122   8.556  62.597  1.00  0.00    -0.176 C  
BRANCH  26  27
HETATM   27  O   UNL     1      -8.007   9.446  63.705  1.00  0.00    -0.127 OA 
BRANCH  27  28
HETATM   28  C   UNL     1      -9.149  10.292  63.806  1.00  0.00    -0.256 C  
BRANCH  28  29
HETATM   29  C   UNL     1      -9.902   9.958  65.085  1.00  0.00    -0.278 C  
BRANCH  29  30
HETATM   30  O   UNL     1     -10.345  11.170  65.690  1.00  0.00    -0.242 OA 
BRANCH  30  31
HETATM   31  C   UNL     1     -10.509  12.200  64.718  1.00  0.00    -0.294 C  
BRANCH  31  32
HETATM   32  C   UNL     1     -11.322  13.331  65.329  1.00  0.00    -0.295 C  
BRANCH  32  33
HETATM   33  O   UNL     1     -11.880  12.885  66.561  1.00  0.00    -0.379 OA 
BRANCH  33  34
HETATM   34  C   UNL     1     -11.943  13.947  67.509  1.00  0.00    -0.386 C  
BRANCH  34  35
HETATM   35  C   UNL     1     -11.395  15.214  66.869  1.00  0.00    -0.264 C  
BRANCH  35  36
HETATM   36  O   UNL     1     -10.853  16.051  67.887  1.00  0.00    -0.316 OA 
BRANCH  36  37
HETATM   37  C   UNL     1     -11.548  15.879  69.120  1.00  0.00    -0.379 C  
BRANCH  37  38
HETATM   38  C   UNL     1     -10.691  15.041  70.058  1.00  0.00    -0.192 C  
BRANCH  38  39
HETATM   39  O   UNL     1     -11.473  14.657  71.186  1.00  0.00    -0.265 OA 
BRANCH  39  40
HETATM   40  C   UNL     1     -12.591  15.526  71.359  1.00  0.00    -0.431 C  
BRANCH  40  41
HETATM   41  C   UNL     1     -13.355  15.111  72.610  1.00  0.00    -0.464 C  
BRANCH  41  42
HETATM   42  O   UNL     1     -12.430  14.858  73.666  1.00  0.00    -0.496 OA 
HETATM   43  C   UNL     1     -12.302  15.985  74.522  1.00  0.00    -0.556 C  
ENDBRANCH  41  42
ENDBRANCH  40  41
ENDBRANCH  39  40
ENDBRANCH  38  39
ENDBRANCH  37  38
ENDBRANCH  36  37
ENDBRANCH  35  36
ENDBRANCH  34  35
ENDBRANCH  33  34
ENDBRANCH  32  33
ENDBRANCH  31  32
ENDBRANCH  30  31
ENDBRANCH  29  30
ENDBRANCH  28  29
ENDBRANCH  27  28
ENDBRANCH  26  27
ENDBRANCH  25  26
ENDBRANCH  24  25
ENDBRANCH  23  24
ENDBRANCH  22  23
ENDBRANCH  21  22
ENDBRANCH  20  21
ENDBRANCH  19  20
ENDBRANCH  18  19
ENDBRANCH  17  18
ENDBRANCH  16  17
ENDBRANCH  15  16
ENDBRANCH  13  15
ENDBRANCH  10  13
ENDBRANCH   5   7
ENDBRANCH   4   5
ENDBRANCH   3   4
ENDBRANCH   2   3
TORSDOF 33
ENDMDL
MODEL      119
REMARK 921   NORMALIZED FREE ENERGY PREDICTED BY IDOCK:   -3.43 KCAL/MOL
REMARK 922        TOTAL FREE ENERGY PREDICTED BY IDOCK:  -12.84 KCAL/MOL
REMARK 923 INTER-LIGAND FREE ENERGY PREDICTED BY IDOCK:  -10.47 KCAL/MOL
REMARK 924 INTRA-LIGAND FREE ENERGY PREDICTED BY IDOCK:   -2.37 KCAL/MOL
REMARK 927      BINDING AFFINITY PREDICTED BY RF-SCORE:    0.00 PKD
ROOT
HETATM    1  C   UNL     1     -14.411   6.461  71.868  1.00  0.00     0.072 C  
HETATM    2  C   UNL     1     -13.924   7.820  71.401  1.00  0.00    -0.416 C  
ENDROOT
BRANCH   2   3
HETATM    3  C   UNL     1     -13.634   8.763  72.572  1.00  0.00    -0.416 C  
BRANCH   3   4
HETATM    4  C   UNL     1     -12.937  10.017  72.055  1.00  0.00    -0.416 C  
BRANCH   4   5
HETATM    5  N   UNL     1     -12.805  10.000  70.602  1.00  0.00    -0.539 NA 
HETATM    6  H   UNL     1     -13.016   9.160  70.063  1.00  0.00     0.000 HD 
BRANCH   5   7
HETATM    7  C   UNL     1     -12.380  11.180  69.970  1.00  0.00    -0.279 A  
HETATM    8  C   UNL     1     -12.334  12.421  70.618  1.00  0.00    -0.367 A  
HETATM    9  C   UNL     1     -11.979  13.587  69.939  1.00  0.00    -0.416 A  
HETATM   10  C   UNL     1     -11.690  13.550  68.573  1.00  0.00    -0.392 A  
HETATM   11  C   UNL     1     -12.106  11.156  68.594  1.00  0.00    -0.180 A  
HETATM   12  C   UNL     1     -11.758  12.326  67.898  1.00  0.00    -0.410 A  
BRANCH  10  13
HETATM   13  C   UNL     1     -11.354  14.838  67.914  1.00  0.00    -0.316 C  
HETATM   14  O   UNL     1     -11.485  15.923  68.461  1.00  0.00    -0.367 OA 
BRANCH  13  15
HETATM   15  O   UNL     1     -10.924  14.643  66.647  1.00  0.00    -0.310 OA 
BRANCH  15  16
HETATM   16  C   UNL     1     -10.135  15.721  66.109  1.00  0.00    -0.318 C  
BRANCH  16  17
HETATM   17  C   UNL     1     -10.858  16.417  64.957  1.00  0.00    -0.273 C  
BRANCH  17  18
HETATM   18  O   UNL     1     -11.238  17.735  65.366  1.00  0.00    -0.073 OA 
BRANCH  18  19
HETATM   19  C   UNL     1     -10.165  18.403  66.026  1.00  0.00    -0.336 C  
BRANCH  19  20
HETATM   20  C   UNL     1     -10.727  19.415  67.015  1.00  0.00    -0.474 C  
BRANCH  20  21
HETATM   21  O   UNL     1      -9.652  20.179  67.559  1.00  0.00    -0.370 OA 
BRANCH  21  22
HETATM   22  C   UNL     1      -8.414  19.858  66.930  1.00  0.00    -0.327 C  
BRANCH  22  23
HETATM   23  C   UNL     1      -7.417  19.407  67.990  1.00  0.00    -0.281 C  
BRANCH  23  24
HETATM   24  O   UNL     1      -6.093  19.626  67.509  1.00  0.00    -0.192 OA 
BRANCH  24  25
HETATM   25  C   UNL     1      -5.268  18.484  67.728  1.00  0.00    -0.164 C  
BRANCH  25  26
HETATM   26  C   UNL     1      -5.167  17.688  66.434  1.00  0.00    -0.182 C  
BRANCH  26  27
HETATM   27  O   UNL     1      -5.838  16.442  66.602  1.00  0.00    -0.317 OA 
BRANCH  27  28
HETATM   28  C   UNL     1      -5.592  15.894  67.895  1.00  0.00    -0.136 C  
BRANCH  28  29
HETATM   29  C   UNL     1      -6.858  16.008  68.730  1.00  0.00    -0.132 C  
BRANCH  29  30
HETATM   30  O   UNL     1      -7.237  14.707  69.173  1.00  0.00    -0.126 OA 
BRANCH  30  31
HETATM   31  C   UNL     1      -6.463  14.301  70.298  1.00  0.00    -0.102 C  
BRANCH  31  32
HETATM   32  C   UNL     1      -5.846  12.941  70.009  1.00  0.00    -0.142 C  
BRANCH  32  33
HETATM   33  O   UNL     1      -6.493  12.373  68.874  1.00  0.00    -0.077 OA 
BRANCH  33  34
HETATM   34  C   UNL     1      -6.848  11.014  69.113  1.00  0.00    -0.094 C  
BRANCH  34  35
HETATM   35  C   UNL     1      -8.356  10.866  68.974  1.00  0.00    -0.114 C  
BRANCH  35  36
HETATM   36  O   UNL     1      -8.642  10.125  67.791  1.00  0.00    -0.118 OA 
BRANCH  36  37
HETATM   37  C   UNL     1      -8.531   8.723  68.021  1.00  0.00    -0.126 C  
BRANCH  37  38
HETATM   38  C   UNL     1      -9.520   7.993  67.123  1.00  0.00    -0.162 C  
BRANCH  38  39
HETATM   39  O   UNL     1      -9.638   8.697  65.890  1.00  0.00    -0.220 OA 
BRANCH  39  40
HETATM   40  C   UNL     1      -8.619   8.303  64.971  1.00  0.00    -0.075 C  
BRANCH  40  41
HETATM   41  C   UNL     1      -8.527   9.338  63.858  1.00  0.00    -0.190 C  
BRANCH  41  42
HETATM   42  O   UNL     1      -9.291  10.488  64.216  1.00  0.00    -0.220 OA 
HETATM   43  C   UNL     1      -9.561  11.303  63.084  1.00  0.00    -0.374 C  
ENDBRANCH  41  42
ENDBRANCH  40  41
ENDBRANCH  39  40
ENDBRANCH  38  39
ENDBRANCH  37  38
ENDBRANCH  36  37
ENDBRANCH  35  36
ENDBRANCH  34  35
ENDBRANCH  33  34
ENDBRANCH  32  33
ENDBRANCH  31  32
ENDBRANCH  30  31
ENDBRANCH  29  30
ENDBRANCH  28  29
ENDBRANCH  27  28
ENDBRANCH  26  27
ENDBRANCH  25  26
ENDBRANCH  24  25
ENDBRANCH  23  24
ENDBRANCH  22  23
ENDBRANCH  21  22
ENDBRANCH  20  21
ENDBRANCH  19  20
ENDBRANCH  18  19
ENDBRANCH  17  18
ENDBRANCH  16  17
ENDBRANCH  15  16
ENDBRANCH  13  15
ENDBRANCH  10  13
ENDBRANCH   5   7
ENDBRANCH   4   5
ENDBRANCH   3   4
ENDBRANCH   2   3
TORSDOF 33
ENDMDL
MODEL      120
REMARK 921   NORMALIZED FREE ENERGY PREDICTED BY IDOCK:   -3.41 KCAL/MOL
REMARK 922        TOTAL FREE ENERGY PREDICTED BY IDOCK:  -12.80 KCAL/MOL
REMARK 923 INTER-LIGAND FREE ENERGY PREDICTED BY IDOCK:   -9.76 KCAL/MOL
REMARK 924 INTRA-LIGAND FREE ENERGY PREDICTED BY IDOCK:   -3.03 KCAL/MOL
REMARK 927      BINDING AFFINITY PREDICTED BY RF-SCORE:    0.00 PKD
ROOT
HETATM    1  C   UNL     1     -11.305   5.589  72.879  1.00  0.00    -0.348 C  
HETATM    2  C   UNL     1     -11.829   6.555  71.834  1.00  0.00    -0.381 C  
ENDROOT
BRANCH   2   3
HETATM    3  C   UNL     1     -11.917   7.988  72.364  1.00  0.00    -0.405 C  
BRANCH   3   4
HETATM    4  C   UNL     1     -13.023   8.736  71.626  1.00  0.00    -0.349 C  
BRANCH   4   5
HETATM    5  N   UNL     1     -13.415   9.951  72.331  1.00  0.00    -0.625 NA 
HETATM    6  H   UNL     1     -13.872   9.908  73.242  1.00  0.00     0.000 HD 
BRANCH   5   7
HETATM    7  C   UNL     1     -13.141  11.183  71.715  1.00  0.00    -0.431 A  
HETATM    8  C   UNL     1     -12.307  11.310  70.596  1.00  0.00    -0.477 A  
HETATM    9  C   UNL     1     -11.995  12.557  70.055  1.00  0.00    -0.372 A  
HETATM   10  C   UNL     1     -12.484  13.726  70.643  1.00  0.00    -0.429 A  
HETATM   11  C   UNL     1     -13.612  12.363  72.308  1.00  0.00    -0.371 A  
HETATM   12  C   UNL     1     -13.296  13.626  71.779  1.00  0.00    -0.469 A  
BRANCH  10  13
HETATM   13  C   UNL     1     -12.080  15.016  70.029  1.00  0.00    -0.337 C  
HETATM   14  O   UNL     1     -12.666  16.069  70.238  1.00  0.00    -0.287 OA 
BRANCH  13  15
HETATM   15  O   UNL     1     -11.020  14.858  69.205  1.00  0.00    -0.239 OA 
BRANCH  15  16
HETATM   16  C   UNL     1     -11.251  15.267  67.844  1.00  0.00    -0.331 C  
BRANCH  16  17
HETATM   17  C   UNL     1     -10.796  16.708  67.612  1.00  0.00    -0.258 C  
BRANCH  17  18
HETATM   18  O   UNL     1      -9.409  16.714  67.261  1.00  0.00    -0.225 OA 
BRANCH  18  19
HETATM   19  C   UNL     1      -8.644  17.486  68.184  1.00  0.00    -0.258 C  
BRANCH  19  20
HETATM   20  C   UNL     1      -7.347  16.756  68.506  1.00  0.00    -0.205 C  
BRANCH  20  21
HETATM   21  O   UNL     1      -7.648  15.589  69.269  1.00  0.00    -0.188 OA 
BRANCH  21  22
HETATM   22  C   UNL     1      -6.497  15.108  69.960  1.00  0.00    -0.156 C  
BRANCH  22  23
HETATM   23  C   UNL     1      -6.301  13.632  69.638  1.00  0.00    -0.110 C  
BRANCH  23  24
HETATM   24  O   UNL     1      -5.840  13.505  68.294  1.00  0.00    -0.081 OA 
BRANCH  24  25
HETATM   25  C   UNL     1      -6.716  12.685  67.524  1.00  0.00    -0.156 C  
BRANCH  25  26
HETATM   26  C   UNL     1      -7.659  11.946  68.462  1.00  0.00    -0.127 C  
BRANCH  26  27
HETATM   27  O   UNL     1      -8.947  11.868  67.858  1.00  0.00    -0.165 OA 
BRANCH  27  28
HETATM   28  C   UNL     1      -9.580  10.625  68.152  1.00  0.00    -0.157 C  
BRANCH  28  29
HETATM   29  C   UNL     1      -9.007  10.071  69.448  1.00  0.00    -0.194 C  
BRANCH  29  30
HETATM   30  O   UNL     1      -8.704   8.690  69.265  1.00  0.00    -0.130 OA 
BRANCH  30  31
HETATM   31  C   UNL     1      -7.406   8.378  69.764  1.00  0.00    -0.060 C  
BRANCH  31  32
HETATM   32  C   UNL     1      -7.345   6.893  70.087  1.00  0.00    -0.081 C  
BRANCH  32  33
HETATM   33  O   UNL     1      -8.671   6.375  70.131  1.00  0.00    -0.136 OA 
BRANCH  33  34
HETATM   34  C   UNL     1      -8.669   4.986  70.447  1.00  0.00    -0.108 C  
BRANCH  34  35
HETATM   35  C   UNL     1      -9.149   4.203  69.233  1.00  0.00    -0.127 C  
BRANCH  35  36
HETATM   36  O   UNL     1      -8.104   3.338  68.796  1.00  0.00    -0.060 OA 
BRANCH  36  37
HETATM   37  C   UNL     1      -7.780   3.571  67.428  1.00  0.00    -0.078 C  
BRANCH  37  38
HETATM   38  C   UNL     1      -6.500   4.390  67.355  1.00  0.00    -0.042 C  
BRANCH  38  39
HETATM   39  O   UNL     1      -6.817   5.716  66.940  1.00  0.00    -0.060 OA 
BRANCH  39  40
HETATM   40  C   UNL     1      -7.735   5.710  65.847  1.00  0.00    -0.095 C  
BRANCH  40  41
HETATM   41  C   UNL     1      -8.796   6.776  66.082  1.00  0.00    -0.148 C  
BRANCH  41  42
HETATM   42  O   UNL     1     -10.024   6.148  66.445  1.00  0.00    -0.151 OA 
HETATM   43  C   UNL     1     -10.902   7.062  67.088  1.00  0.00    -0.357 C  
ENDBRANCH  41  42
ENDBRANCH  40  41
ENDBRANCH  39  40
ENDBRANCH  38  39
ENDBRANCH  37  38
ENDBRANCH  36  37
ENDBRANCH  35  36
ENDBRANCH  34  35
ENDBRANCH  33  34
ENDBRANCH  32  33
ENDBRANCH  31  32
ENDBRANCH  30  31
ENDBRANCH  29  30
ENDBRANCH  28  29
ENDBRANCH  27  28
ENDBRANCH  26  27
ENDBRANCH  25  26
ENDBRANCH  24  25
ENDBRANCH  23  24
ENDBRANCH  22  23
ENDBRANCH  21  22
ENDBRANCH  20  21
ENDBRANCH  19  20
ENDBRANCH  18  19
ENDBRANCH  17  18
ENDBRANCH  16  17
ENDBRANCH  15  16
ENDBRANCH  13  15
ENDBRANCH  10  13
ENDBRANCH   5   7
ENDBRANCH   4   5
ENDBRANCH   3   4
ENDBRANCH   2   3
TORSDOF 33
ENDMDL
MODEL      121
REMARK 921   NORMALIZED FREE ENERGY PREDICTED BY IDOCK:   -3.40 KCAL/MOL
REMARK 922        TOTAL FREE ENERGY PREDICTED BY IDOCK:  -12.77 KCAL/MOL
REMARK 923 INTER-LIGAND FREE ENERGY PREDICTED BY IDOCK:  -10.38 KCAL/MOL
REMARK 924 INTRA-LIGAND FREE ENERGY PREDICTED BY IDOCK:   -2.38 KCAL/MOL
REMARK 927      BINDING AFFINITY PREDICTED BY RF-SCORE:    0.00 PKD
ROOT
HETATM    1  C   UNL     1      -6.817   6.745  70.479  1.00  0.00    -0.058 C  
HETATM    2  C   UNL     1      -6.949   7.634  71.701  1.00  0.00    -0.061 C  
ENDROOT
BRANCH   2   3
HETATM    3  C   UNL     1      -5.595   7.923  72.354  1.00  0.00    -0.036 C  
BRANCH   3   4
HETATM    4  C   UNL     1      -5.300   9.417  72.273  1.00  0.00    -0.071 C  
BRANCH   4   5
HETATM    5  N   UNL     1      -5.217   9.877  70.891  1.00  0.00    -0.049 NA 
HETATM    6  H   UNL     1      -4.883   9.260  70.150  1.00  0.00     0.000 HD 
BRANCH   5   7
HETATM    7  C   UNL     1      -5.613  11.195  70.614  1.00  0.00    -0.131 A  
HETATM    8  C   UNL     1      -6.341  11.552  69.471  1.00  0.00    -0.116 A  
HETATM    9  C   UNL     1      -6.652  12.882  69.189  1.00  0.00    -0.104 A  
HETATM   10  C   UNL     1      -6.212  13.905  70.030  1.00  0.00    -0.131 A  
HETATM   11  C   UNL     1      -5.160  12.232  71.443  1.00  0.00    -0.105 A  
HETATM   12  C   UNL     1      -5.458  13.576  71.162  1.00  0.00    -0.204 A  
BRANCH  10  13
HETATM   13  C   UNL     1      -6.555  15.298  69.644  1.00  0.00    -0.174 C  
HETATM   14  O   UNL     1      -7.654  15.623  69.218  1.00  0.00    -0.192 OA 
BRANCH  13  15
HETATM   15  O   UNL     1      -5.496  16.125  69.797  1.00  0.00    -0.125 OA 
BRANCH  15  16
HETATM   16  C   UNL     1      -5.815  17.527  69.731  1.00  0.00    -0.244 C  
BRANCH  16  17
HETATM   17  C   UNL     1      -5.431  18.121  68.376  1.00  0.00    -0.163 C  
BRANCH  17  18
HETATM   18  O   UNL     1      -6.204  19.303  68.143  1.00  0.00    -0.213 OA 
BRANCH  18  19
HETATM   19  C   UNL     1      -7.462  18.989  67.551  1.00  0.00    -0.231 C  
BRANCH  19  20
HETATM   20  C   UNL     1      -7.239  18.406  66.162  1.00  0.00    -0.263 C  
BRANCH  20  21
HETATM   21  O   UNL     1      -8.312  17.517  65.854  1.00  0.00    -0.538 OA 
BRANCH  21  22
HETATM   22  C   UNL     1      -9.505  17.882  66.542  1.00  0.00    -0.299 C  
BRANCH  22  23
HETATM   23  C   UNL     1     -10.274  16.620  66.912  1.00  0.00    -0.291 C  
BRANCH  23  24
HETATM   24  O   UNL     1     -10.055  15.629  65.910  1.00  0.00    -0.302 OA 
BRANCH  24  25
HETATM   25  C   UNL     1     -11.259  15.332  65.206  1.00  0.00    -0.336 C  
BRANCH  25  26
HETATM   26  C   UNL     1     -11.118  13.977  64.529  1.00  0.00    -0.351 C  
BRANCH  26  27
HETATM   27  O   UNL     1     -12.389  13.574  64.026  1.00  0.00    -0.604 OA 
BRANCH  27  28
HETATM   28  C   UNL     1     -12.378  12.204  63.635  1.00  0.00    -0.568 C  
BRANCH  28  29
HETATM   29  C   UNL     1     -10.937  11.724  63.549  1.00  0.00    -0.424 C  
BRANCH  29  30
HETATM   30  O   UNL     1     -10.742  10.679  64.498  1.00  0.00    -0.236 OA 
BRANCH  30  31
HETATM   31  C   UNL     1      -9.357  10.386  64.663  1.00  0.00    -0.254 C  
BRANCH  31  32
HETATM   32  C   UNL     1      -8.965  10.651  66.109  1.00  0.00    -0.168 C  
BRANCH  32  33
HETATM   33  O   UNL     1      -8.525   9.431  66.698  1.00  0.00    -0.124 OA 
BRANCH  33  34
HETATM   34  C   UNL     1      -9.627   8.668  67.181  1.00  0.00    -0.173 C  
BRANCH  34  35
HETATM   35  C   UNL     1      -9.680   8.783  68.697  1.00  0.00    -0.162 C  
BRANCH  35  36
HETATM   36  O   UNL     1     -10.683   9.731  69.056  1.00  0.00    -0.212 OA 
BRANCH  36  37
HETATM   37  C   UNL     1     -10.974   9.672  70.449  1.00  0.00    -0.299 C  
BRANCH  37  38
HETATM   38  C   UNL     1     -12.335  10.306  70.698  1.00  0.00    -0.325 C  
BRANCH  38  39
HETATM   39  O   UNL     1     -12.183  11.720  70.781  1.00  0.00    -0.378 OA 
BRANCH  39  40
HETATM   40  C   UNL     1     -13.093  12.284  71.725  1.00  0.00    -0.344 C  
BRANCH  40  41
HETATM   41  C   UNL     1     -13.255  13.770  71.435  1.00  0.00    -0.305 C  
BRANCH  41  42
HETATM   42  O   UNL     1     -14.250  14.315  72.299  1.00  0.00    -0.502 OA 
HETATM   43  C   UNL     1     -13.858  15.584  72.803  1.00  0.00    -0.518 C  
ENDBRANCH  41  42
ENDBRANCH  40  41
ENDBRANCH  39  40
ENDBRANCH  38  39
ENDBRANCH  37  38
ENDBRANCH  36  37
ENDBRANCH  35  36
ENDBRANCH  34  35
ENDBRANCH  33  34
ENDBRANCH  32  33
ENDBRANCH  31  32
ENDBRANCH  30  31
ENDBRANCH  29  30
ENDBRANCH  28  29
ENDBRANCH  27  28
ENDBRANCH  26  27
ENDBRANCH  25  26
ENDBRANCH  24  25
ENDBRANCH  23  24
ENDBRANCH  22  23
ENDBRANCH  21  22
ENDBRANCH  20  21
ENDBRANCH  19  20
ENDBRANCH  18  19
ENDBRANCH  17  18
ENDBRANCH  16  17
ENDBRANCH  15  16
ENDBRANCH  13  15
ENDBRANCH  10  13
ENDBRANCH   5   7
ENDBRANCH   4   5
ENDBRANCH   3   4
ENDBRANCH   2   3
TORSDOF 33
ENDMDL
MODEL      122
REMARK 921   NORMALIZED FREE ENERGY PREDICTED BY IDOCK:   -3.39 KCAL/MOL
REMARK 922        TOTAL FREE ENERGY PREDICTED BY IDOCK:  -12.74 KCAL/MOL
REMARK 923 INTER-LIGAND FREE ENERGY PREDICTED BY IDOCK:  -10.06 KCAL/MOL
REMARK 924 INTRA-LIGAND FREE ENERGY PREDICTED BY IDOCK:   -2.68 KCAL/MOL
REMARK 927      BINDING AFFINITY PREDICTED BY RF-SCORE:    0.00 PKD
ROOT
HETATM    1  C   UNL     1     -10.565   3.979  72.838  1.00  0.00    -0.237 C  
HETATM    2  C   UNL     1     -10.493   5.221  71.971  1.00  0.00    -0.283 C  
ENDROOT
BRANCH   2   3
HETATM    3  C   UNL     1      -9.785   4.956  70.640  1.00  0.00    -0.271 C  
BRANCH   3   4
HETATM    4  C   UNL     1      -8.745   6.044  70.392  1.00  0.00    -0.144 C  
BRANCH   4   5
HETATM    5  N   UNL     1      -9.352   7.369  70.344  1.00  0.00    -0.162 NA 
HETATM    6  H   UNL     1     -10.242   7.558  70.805  1.00  0.00     0.000 HD 
BRANCH   5   7
HETATM    7  C   UNL     1      -8.669   8.377  69.644  1.00  0.00    -0.133 A  
HETATM    8  C   UNL     1      -7.502   8.140  68.905  1.00  0.00    -0.089 A  
HETATM    9  C   UNL     1      -6.807   9.177  68.285  1.00  0.00    -0.065 A  
HETATM   10  C   UNL     1      -7.243  10.497  68.413  1.00  0.00    -0.080 A  
HETATM   11  C   UNL     1      -9.089   9.708  69.782  1.00  0.00    -0.232 A  
HETATM   12  C   UNL     1      -8.390  10.762  69.170  1.00  0.00    -0.111 A  
BRANCH  10  13
HETATM   13  C   UNL     1      -6.430  11.549  67.751  1.00  0.00    -0.064 C  
HETATM   14  O   UNL     1      -6.771  12.107  66.718  1.00  0.00    -0.060 OA 
BRANCH  13  15
HETATM   15  O   UNL     1      -5.277  11.773  68.421  1.00  0.00    -0.043 OA 
BRANCH  15  16
HETATM   16  C   UNL     1      -5.352  12.809  69.417  1.00  0.00    -0.076 C  
BRANCH  16  17
HETATM   17  C   UNL     1      -5.156  14.192  68.795  1.00  0.00    -0.088 C  
BRANCH  17  18
HETATM   18  O   UNL     1      -6.333  14.977  69.010  1.00  0.00    -0.095 OA 
BRANCH  18  19
HETATM   19  C   UNL     1      -6.801  15.552  67.792  1.00  0.00    -0.161 C  
BRANCH  19  20
HETATM   20  C   UNL     1      -5.920  16.737  67.418  1.00  0.00    -0.161 C  
BRANCH  20  21
HETATM   21  O   UNL     1      -6.715  17.921  67.403  1.00  0.00    -0.171 OA 
BRANCH  21  22
HETATM   22  C   UNL     1      -7.286  18.181  68.684  1.00  0.00    -0.286 C  
BRANCH  22  23
HETATM   23  C   UNL     1      -7.721  19.640  68.750  1.00  0.00    -0.302 C  
BRANCH  23  24
HETATM   24  O   UNL     1      -9.142  19.708  68.662  1.00  0.00    -0.344 OA 
BRANCH  24  25
HETATM   25  C   UNL     1      -9.564  20.003  67.333  1.00  0.00    -0.394 C  
BRANCH  25  26
HETATM   26  C   UNL     1     -10.423  18.858  66.818  1.00  0.00    -0.428 C  
BRANCH  26  27
HETATM   27  O   UNL     1     -10.510  17.854  67.825  1.00  0.00    -0.371 OA 
BRANCH  27  28
HETATM   28  C   UNL     1     -10.686  16.561  67.250  1.00  0.00    -0.243 C  
BRANCH  28  29
HETATM   29  C   UNL     1      -9.748  16.416  66.061  1.00  0.00    -0.326 C  
BRANCH  29  30
HETATM   30  O   UNL     1     -10.523  16.363  64.867  1.00  0.00    -0.643 OA 
BRANCH  30  31
HETATM   31  C   UNL     1     -11.334  15.191  64.831  1.00  0.00    -0.399 C  
BRANCH  31  32
HETATM   32  C   UNL     1     -10.432  13.968  64.777  1.00  0.00    -0.421 C  
BRANCH  32  33
HETATM   33  O   UNL     1     -11.215  12.806  65.033  1.00  0.00    -0.287 OA 
BRANCH  33  34
HETATM   34  C   UNL     1     -11.958  12.944  66.240  1.00  0.00    -0.408 C  
BRANCH  34  35
HETATM   35  C   UNL     1     -11.080  12.528  67.411  1.00  0.00    -0.272 C  
BRANCH  35  36
HETATM   36  O   UNL     1     -11.863  11.771  68.331  1.00  0.00    -0.364 OA 
BRANCH  36  37
HETATM   37  C   UNL     1     -11.866  12.372  69.623  1.00  0.00    -0.311 C  
BRANCH  37  38
HETATM   38  C   UNL     1     -13.031  11.812  70.427  1.00  0.00     0.294 C  
BRANCH  38  39
HETATM   39  O   UNL     1     -12.796  12.044  71.813  1.00  0.00    -0.348 OA 
BRANCH  39  40
HETATM   40  C   UNL     1     -12.590  13.431  72.077  1.00  0.00    -0.023 C  
BRANCH  40  41
HETATM   41  C   UNL     1     -13.942  14.128  72.157  1.00  0.00    -0.531 C  
BRANCH  41  42
HETATM   42  O   UNL     1     -13.858  15.398  71.512  1.00  0.00    -0.483 OA 
HETATM   43  C   UNL     1     -12.569  15.608  70.951  1.00  0.00    -0.449 C  
ENDBRANCH  41  42
ENDBRANCH  40  41
ENDBRANCH  39  40
ENDBRANCH  38  39
ENDBRANCH  37  38
ENDBRANCH  36  37
ENDBRANCH  35  36
ENDBRANCH  34  35
ENDBRANCH  33  34
ENDBRANCH  32  33
ENDBRANCH  31  32
ENDBRANCH  30  31
ENDBRANCH  29  30
ENDBRANCH  28  29
ENDBRANCH  27  28
ENDBRANCH  26  27
ENDBRANCH  25  26
ENDBRANCH  24  25
ENDBRANCH  23  24
ENDBRANCH  22  23
ENDBRANCH  21  22
ENDBRANCH  20  21
ENDBRANCH  19  20
ENDBRANCH  18  19
ENDBRANCH  17  18
ENDBRANCH  16  17
ENDBRANCH  15  16
ENDBRANCH  13  15
ENDBRANCH  10  13
ENDBRANCH   5   7
ENDBRANCH   4   5
ENDBRANCH   3   4
ENDBRANCH   2   3
TORSDOF 33
ENDMDL
MODEL      123
REMARK 921   NORMALIZED FREE ENERGY PREDICTED BY IDOCK:   -3.39 KCAL/MOL
REMARK 922        TOTAL FREE ENERGY PREDICTED BY IDOCK:  -12.74 KCAL/MOL
REMARK 923 INTER-LIGAND FREE ENERGY PREDICTED BY IDOCK:  -10.41 KCAL/MOL
REMARK 924 INTRA-LIGAND FREE ENERGY PREDICTED BY IDOCK:   -2.33 KCAL/MOL
REMARK 927      BINDING AFFINITY PREDICTED BY RF-SCORE:    0.00 PKD
ROOT
HETATM    1  C   UNL     1      -6.032   3.205  72.955  1.00  0.00    -0.008 C  
HETATM    2  C   UNL     1      -6.352   3.160  71.473  1.00  0.00    -0.015 C  
ENDROOT
BRANCH   2   3
HETATM    3  C   UNL     1      -6.573   4.557  70.887  1.00  0.00    -0.031 C  
BRANCH   3   4
HETATM    4  C   UNL     1      -7.756   4.524  69.925  1.00  0.00    -0.057 C  
BRANCH   4   5
HETATM    5  N   UNL     1      -8.950   3.973  70.556  1.00  0.00    -0.090 NA 
HETATM    6  H   UNL     1      -9.005   2.987  70.808  1.00  0.00     0.000 HD 
BRANCH   5   7
HETATM    7  C   UNL     1     -10.020   4.847  70.806  1.00  0.00    -0.222 A  
HETATM    8  C   UNL     1     -10.602   5.648  69.814  1.00  0.00    -0.400 A  
HETATM    9  C   UNL     1     -11.613   6.561  70.113  1.00  0.00    -0.466 A  
HETATM   10  C   UNL     1     -12.052   6.726  71.428  1.00  0.00    -0.415 A  
HETATM   11  C   UNL     1     -10.456   5.033  72.127  1.00  0.00    -0.274 A  
HETATM   12  C   UNL     1     -11.466   5.958  72.440  1.00  0.00    -0.358 A  
BRANCH  10  13
HETATM   13  C   UNL     1     -13.108   7.742  71.670  1.00  0.00    -0.345 C  
HETATM   14  O   UNL     1     -14.237   7.656  71.209  1.00  0.00    -0.381 OA 
BRANCH  13  15
HETATM   15  O   UNL     1     -12.644   8.762  72.427  1.00  0.00    -0.385 OA 
BRANCH  15  16
HETATM   16  C   UNL     1     -11.735   9.648  71.747  1.00  0.00    -0.285 C  
BRANCH  16  17
HETATM   17  C   UNL     1     -12.472  10.843  71.144  1.00  0.00    -0.405 C  
BRANCH  17  18
HETATM   18  O   UNL     1     -13.259  11.474  72.160  1.00  0.00    -0.505 OA 
BRANCH  18  19
HETATM   19  C   UNL     1     -13.290  12.889  71.988  1.00  0.00    -0.482 C  
BRANCH  19  20
HETATM   20  C   UNL     1     -12.401  13.278  70.815  1.00  0.00    -0.344 C  
BRANCH  20  21
HETATM   21  O   UNL     1     -11.944  14.617  71.001  1.00  0.00    -0.310 OA 
BRANCH  21  22
HETATM   22  C   UNL     1     -11.052  15.012  69.962  1.00  0.00    -0.263 C  
BRANCH  22  23
HETATM   23  C   UNL     1     -11.860  15.543  68.785  1.00  0.00    -0.317 C  
BRANCH  23  24
HETATM   24  O   UNL     1     -11.246  15.121  67.569  1.00  0.00    -0.318 OA 
BRANCH  24  25
HETATM   25  C   UNL     1     -11.848  13.927  67.073  1.00  0.00    -0.415 C  
BRANCH  25  26
HETATM   26  C   UNL     1     -12.267  14.146  65.627  1.00  0.00    -0.435 C  
BRANCH  26  27
HETATM   27  O   UNL     1     -11.138  14.590  64.879  1.00  0.00    -0.357 OA 
BRANCH  27  28
HETATM   28  C   UNL     1     -10.291  13.499  64.526  1.00  0.00    -0.358 C  
BRANCH  28  29
HETATM   29  C   UNL     1     -11.064  12.541  63.632  1.00  0.00    -0.467 C  
BRANCH  29  30
HETATM   30  O   UNL     1     -11.113  11.263  64.260  1.00  0.00    -0.333 OA 
BRANCH  30  31
HETATM   31  C   UNL     1      -9.810  10.822  64.632  1.00  0.00    -0.307 C  
BRANCH  31  32
HETATM   32  C   UNL     1      -9.938   9.583  65.506  1.00  0.00    -0.139 C  
BRANCH  32  33
HETATM   33  O   UNL     1      -8.994   9.668  66.569  1.00  0.00    -0.142 OA 
BRANCH  33  34
HETATM   34  C   UNL     1      -7.669   9.444  66.096  1.00  0.00    -0.100 C  
BRANCH  34  35
HETATM   35  C   UNL     1      -6.688  10.136  67.032  1.00  0.00    -0.078 C  
BRANCH  35  36
HETATM   36  O   UNL     1      -6.225  11.334  66.414  1.00  0.00    -0.139 OA 
BRANCH  36  37
HETATM   37  C   UNL     1      -7.069  12.438  66.732  1.00  0.00     0.259 C  
BRANCH  37  38
HETATM   38  C   UNL     1      -6.818  12.854  68.175  1.00  0.00    -0.097 C  
BRANCH  38  39
HETATM   39  O   UNL     1      -6.515  14.245  68.213  1.00  0.00    -0.093 OA 
BRANCH  39  40
HETATM   40  C   UNL     1      -6.509  14.736  69.553  1.00  0.00    -0.142 C  
BRANCH  40  41
HETATM   41  C   UNL     1      -5.840  13.709  70.456  1.00  0.00    -0.169 C  
BRANCH  41  42
HETATM   42  O   UNL     1      -6.338  13.852  71.785  1.00  0.00    -0.029 OA 
HETATM   43  C   UNL     1      -5.292  14.149  72.699  1.00  0.00    -0.196 C  
ENDBRANCH  41  42
ENDBRANCH  40  41
ENDBRANCH  39  40
ENDBRANCH  38  39
ENDBRANCH  37  38
ENDBRANCH  36  37
ENDBRANCH  35  36
ENDBRANCH  34  35
ENDBRANCH  33  34
ENDBRANCH  32  33
ENDBRANCH  31  32
ENDBRANCH  30  31
ENDBRANCH  29  30
ENDBRANCH  28  29
ENDBRANCH  27  28
ENDBRANCH  26  27
ENDBRANCH  25  26
ENDBRANCH  24  25
ENDBRANCH  23  24
ENDBRANCH  22  23
ENDBRANCH  21  22
ENDBRANCH  20  21
ENDBRANCH  19  20
ENDBRANCH  18  19
ENDBRANCH  17  18
ENDBRANCH  16  17
ENDBRANCH  15  16
ENDBRANCH  13  15
ENDBRANCH  10  13
ENDBRANCH   5   7
ENDBRANCH   4   5
ENDBRANCH   3   4
ENDBRANCH   2   3
TORSDOF 33
ENDMDL
MODEL      124
REMARK 921   NORMALIZED FREE ENERGY PREDICTED BY IDOCK:   -3.39 KCAL/MOL
REMARK 922        TOTAL FREE ENERGY PREDICTED BY IDOCK:  -12.72 KCAL/MOL
REMARK 923 INTER-LIGAND FREE ENERGY PREDICTED BY IDOCK:  -10.08 KCAL/MOL
REMARK 924 INTRA-LIGAND FREE ENERGY PREDICTED BY IDOCK:   -2.63 KCAL/MOL
REMARK 927      BINDING AFFINITY PREDICTED BY RF-SCORE:    0.00 PKD
ROOT
HETATM    1  C   UNL     1     -10.691  19.333  67.762  1.00  0.00    -0.478 C  
HETATM    2  C   UNL     1      -9.647  20.384  67.435  1.00  0.00    -0.584 C  
ENDROOT
BRANCH   2   3
HETATM    3  C   UNL     1      -8.257  19.775  67.238  1.00  0.00    -0.341 C  
BRANCH   3   4
HETATM    4  C   UNL     1      -8.215  19.022  65.912  1.00  0.00     0.009 C  
BRANCH   4   5
HETATM    5  N   UNL     1      -7.669  17.679  66.072  1.00  0.00    -0.498 NA 
HETATM    6  H   UNL     1      -6.662  17.518  66.086  1.00  0.00     0.000 HD 
BRANCH   5   7
HETATM    7  C   UNL     1      -8.576  16.615  66.205  1.00  0.00    -0.324 A  
HETATM    8  C   UNL     1      -8.217  15.365  66.727  1.00  0.00    -0.252 A  
HETATM    9  C   UNL     1      -9.123  14.306  66.775  1.00  0.00    -0.269 A  
HETATM   10  C   UNL     1     -10.415  14.457  66.267  1.00  0.00    -0.292 A  
HETATM   11  C   UNL     1      -9.870  16.751  65.682  1.00  0.00    -0.111 A  
HETATM   12  C   UNL     1     -10.788  15.688  65.714  1.00  0.00    -0.312 A  
BRANCH  10  13
HETATM   13  C   UNL     1     -11.311  13.274  66.323  1.00  0.00    -0.309 C  
HETATM   14  O   UNL     1     -11.133  12.268  65.651  1.00  0.00    -0.295 OA 
BRANCH  13  15
HETATM   15  O   UNL     1     -12.339  13.476  67.178  1.00  0.00    -0.315 OA 
BRANCH  15  16
HETATM   16  C   UNL     1     -11.956  13.596  68.560  1.00  0.00    -0.361 C  
BRANCH  16  17
HETATM   17  C   UNL     1     -11.398  12.279  69.099  1.00  0.00    -0.272 C  
BRANCH  17  18
HETATM   18  O   UNL     1     -12.399  11.262  68.987  1.00  0.00    -0.446 OA 
BRANCH  18  19
HETATM   19  C   UNL     1     -12.633  10.626  70.242  1.00  0.00    -0.260 C  
BRANCH  19  20
HETATM   20  C   UNL     1     -11.337  10.007  70.747  1.00  0.00    -0.360 C  
BRANCH  20  21
HETATM   21  O   UNL     1     -11.539   9.523  72.074  1.00  0.00    -0.311 OA 
BRANCH  21  22
HETATM   22  C   UNL     1     -10.946   8.240  72.257  1.00  0.00    -0.348 C  
BRANCH  22  23
HETATM   23  C   UNL     1      -9.463   8.323  71.919  1.00  0.00    -0.220 C  
BRANCH  23  24
HETATM   24  O   UNL     1      -8.744   8.757  73.072  1.00  0.00    -0.368 OA 
BRANCH  24  25
HETATM   25  C   UNL     1      -7.470   8.122  73.155  1.00  0.00    -0.130 C  
BRANCH  25  26
HETATM   26  C   UNL     1      -7.669   6.614  73.215  1.00  0.00    -0.091 C  
BRANCH  26  27
HETATM   27  O   UNL     1      -6.776   5.992  72.295  1.00  0.00    -0.068 OA 
BRANCH  27  28
HETATM   28  C   UNL     1      -7.012   4.588  72.216  1.00  0.00    -0.060 C  
BRANCH  28  29
HETATM   29  C   UNL     1      -7.808   4.290  70.955  1.00  0.00    -0.063 C  
BRANCH  29  30
HETATM   30  O   UNL     1      -9.085   3.778  71.326  1.00  0.00    -0.102 OA 
BRANCH  30  31
HETATM   31  C   UNL     1     -10.129   4.664  70.932  1.00  0.00    -0.187 C  
BRANCH  31  32
HETATM   32  C   UNL     1      -9.990   4.963  69.447  1.00  0.00    -0.212 C  
BRANCH  32  33
HETATM   33  O   UNL     1     -10.709   6.155  69.147  1.00  0.00    -0.245 OA 
BRANCH  33  34
HETATM   34  C   UNL     1     -10.976   6.256  67.751  1.00  0.00    -0.332 C  
BRANCH  34  35
HETATM   35  C   UNL     1     -10.116   7.364  67.162  1.00  0.00    -0.244 C  
BRANCH  35  36
HETATM   36  O   UNL     1      -9.865   8.340  68.170  1.00  0.00    -0.161 OA 
BRANCH  36  37
HETATM   37  C   UNL     1      -9.340   9.540  67.607  1.00  0.00    -0.123 C  
BRANCH  37  38
HETATM   38  C   UNL     1      -9.479   9.477  66.092  1.00  0.00    -0.221 C  
BRANCH  38  39
HETATM   39  O   UNL     1      -8.508  10.335  65.499  1.00  0.00    -0.149 OA 
BRANCH  39  40
HETATM   40  C   UNL     1      -7.190   9.809  65.653  1.00  0.00    -0.106 C  
BRANCH  40  41
HETATM   41  C   UNL     1      -7.131   8.424  65.023  1.00  0.00    -0.079 C  
BRANCH  41  42
HETATM   42  O   UNL     1      -7.500   8.514  63.648  1.00  0.00    -0.104 OA 
HETATM   43  C   UNL     1      -6.449   9.064  62.865  1.00  0.00    -0.090 C  
ENDBRANCH  41  42
ENDBRANCH  40  41
ENDBRANCH  39  40
ENDBRANCH  38  39
ENDBRANCH  37  38
ENDBRANCH  36  37
ENDBRANCH  35  36
ENDBRANCH  34  35
ENDBRANCH  33  34
ENDBRANCH  32  33
ENDBRANCH  31  32
ENDBRANCH  30  31
ENDBRANCH  29  30
ENDBRANCH  28  29
ENDBRANCH  27  28
ENDBRANCH  26  27
ENDBRANCH  25  26
ENDBRANCH  24  25
ENDBRANCH  23  24
ENDBRANCH  22  23
ENDBRANCH  21  22
ENDBRANCH  20  21
ENDBRANCH  19  20
ENDBRANCH  18  19
ENDBRANCH  17  18
ENDBRANCH  16  17
ENDBRANCH  15  16
ENDBRANCH  13  15
ENDBRANCH  10  13
ENDBRANCH   5   7
ENDBRANCH   4   5
ENDBRANCH   3   4
ENDBRANCH   2   3
TORSDOF 33
ENDMDL
MODEL      125
REMARK 921   NORMALIZED FREE ENERGY PREDICTED BY IDOCK:   -3.38 KCAL/MOL
REMARK 922        TOTAL FREE ENERGY PREDICTED BY IDOCK:  -12.71 KCAL/MOL
REMARK 923 INTER-LIGAND FREE ENERGY PREDICTED BY IDOCK:   -9.61 KCAL/MOL
REMARK 924 INTRA-LIGAND FREE ENERGY PREDICTED BY IDOCK:   -3.10 KCAL/MOL
REMARK 927      BINDING AFFINITY PREDICTED BY RF-SCORE:    0.00 PKD
ROOT
HETATM    1  C   UNL     1     -10.756  19.157  67.382  1.00  0.00    -0.578 C  
HETATM    2  C   UNL     1      -9.692  19.787  66.503  1.00  0.00    -0.529 C  
ENDROOT
BRANCH   2   3
HETATM    3  C   UNL     1      -8.289  19.271  66.834  1.00  0.00    -0.302 C  
BRANCH   3   4
HETATM    4  C   UNL     1      -7.934  18.122  65.897  1.00  0.00    -0.014 C  
BRANCH   4   5
HETATM    5  N   UNL     1      -7.492  16.942  66.632  1.00  0.00    -0.239 NA 
HETATM    6  H   UNL     1      -6.580  16.917  67.088  1.00  0.00     0.000 HD 
BRANCH   5   7
HETATM    7  C   UNL     1      -8.365  15.843  66.692  1.00  0.00    -0.293 A  
HETATM    8  C   UNL     1      -8.044  14.647  67.347  1.00  0.00    -0.216 A  
HETATM    9  C   UNL     1      -8.902  13.548  67.322  1.00  0.00    -0.225 A  
HETATM   10  C   UNL     1     -10.100  13.602  66.608  1.00  0.00    -0.277 A  
HETATM   11  C   UNL     1      -9.562  15.881  65.963  1.00  0.00    -0.385 A  
HETATM   12  C   UNL     1     -10.429  14.777  65.922  1.00  0.00    -0.324 A  
BRANCH  10  13
HETATM   13  C   UNL     1     -10.944  12.380  66.601  1.00  0.00    -0.268 C  
HETATM   14  O   UNL     1     -10.606  11.336  66.061  1.00  0.00    -0.258 OA 
BRANCH  13  15
HETATM   15  O   UNL     1     -12.120  12.591  67.234  1.00  0.00    -0.490 OA 
BRANCH  15  16
HETATM   16  C   UNL     1     -11.999  13.153  68.554  1.00  0.00    -0.289 C  
BRANCH  16  17
HETATM   17  C   UNL     1     -11.723  12.069  69.595  1.00  0.00    -0.335 C  
BRANCH  17  18
HETATM   18  O   UNL     1     -12.642  10.988  69.407  1.00  0.00    -0.331 OA 
BRANCH  18  19
HETATM   19  C   UNL     1     -12.766  10.201  70.589  1.00  0.00    -0.255 C  
BRANCH  19  20
HETATM   20  C   UNL     1     -11.501   9.378  70.787  1.00  0.00    -0.300 C  
BRANCH  20  21
HETATM   21  O   UNL     1     -11.809   8.237  71.587  1.00  0.00    -0.273 OA 
BRANCH  21  22
HETATM   22  C   UNL     1     -11.793   7.039  70.815  1.00  0.00    -0.355 C  
BRANCH  22  23
HETATM   23  C   UNL     1     -10.348   6.643  70.538  1.00  0.00    -0.199 C  
BRANCH  23  24
HETATM   24  O   UNL     1      -9.796   6.045  71.709  1.00  0.00    -0.165 OA 
BRANCH  24  25
HETATM   25  C   UNL     1      -9.032   4.885  71.385  1.00  0.00    -0.134 C  
BRANCH  25  26
HETATM   26  C   UNL     1      -9.670   4.187  70.192  1.00  0.00    -0.208 C  
BRANCH  26  27
HETATM   27  O   UNL     1      -8.642   3.742  69.311  1.00  0.00    -0.070 OA 
BRANCH  27  28
HETATM   28  C   UNL     1      -9.191   3.148  68.137  1.00  0.00    -0.195 C  
BRANCH  28  29
HETATM   29  C   UNL     1      -9.010   4.103  66.968  1.00  0.00    -0.127 C  
BRANCH  29  30
HETATM   30  O   UNL     1     -10.285   4.378  66.395  1.00  0.00    -0.240 OA 
BRANCH  30  31
HETATM   31  C   UNL     1     -10.673   5.730  66.625  1.00  0.00    -0.262 C  
BRANCH  31  32
HETATM   32  C   UNL     1      -9.423   6.589  66.741  1.00  0.00    -0.158 C  
BRANCH  32  33
HETATM   33  O   UNL     1      -9.796   7.961  66.652  1.00  0.00    -0.225 OA 
BRANCH  33  34
HETATM   34  C   UNL     1      -8.735   8.747  66.115  1.00  0.00    -0.160 C  
BRANCH  34  35
HETATM   35  C   UNL     1      -7.990   9.417  67.260  1.00  0.00    -0.106 C  
BRANCH  35  36
HETATM   36  O   UNL     1      -8.889   9.604  68.351  1.00  0.00    -0.123 OA 
BRANCH  36  37
HETATM   37  C   UNL     1      -8.390  10.572  69.270  1.00  0.00    -0.137 C  
BRANCH  37  38
HETATM   38  C   UNL     1      -6.878  10.425  69.372  1.00  0.00    -0.083 C  
BRANCH  38  39
HETATM   39  O   UNL     1      -6.517  10.247  70.739  1.00  0.00    -0.270 OA 
BRANCH  39  40
HETATM   40  C   UNL     1      -6.925   8.967  71.219  1.00  0.00    -0.091 C  
BRANCH  40  41
HETATM   41  C   UNL     1      -6.039   7.897  70.596  1.00  0.00    -0.033 C  
BRANCH  41  42
HETATM   42  O   UNL     1      -6.858   6.907  69.976  1.00  0.00    -0.054 OA 
HETATM   43  C   UNL     1      -6.402   6.607  68.664  1.00  0.00    -0.031 C  
ENDBRANCH  41  42
ENDBRANCH  40  41
ENDBRANCH  39  40
ENDBRANCH  38  39
ENDBRANCH  37  38
ENDBRANCH  36  37
ENDBRANCH  35  36
ENDBRANCH  34  35
ENDBRANCH  33  34
ENDBRANCH  32  33
ENDBRANCH  31  32
ENDBRANCH  30  31
ENDBRANCH  29  30
ENDBRANCH  28  29
ENDBRANCH  27  28
ENDBRANCH  26  27
ENDBRANCH  25  26
ENDBRANCH  24  25
ENDBRANCH  23  24
ENDBRANCH  22  23
ENDBRANCH  21  22
ENDBRANCH  20  21
ENDBRANCH  19  20
ENDBRANCH  18  19
ENDBRANCH  17  18
ENDBRANCH  16  17
ENDBRANCH  15  16
ENDBRANCH  13  15
ENDBRANCH  10  13
ENDBRANCH   5   7
ENDBRANCH   4   5
ENDBRANCH   3   4
ENDBRANCH   2   3
TORSDOF 33
ENDMDL
MODEL      126
REMARK 921   NORMALIZED FREE ENERGY PREDICTED BY IDOCK:   -3.38 KCAL/MOL
REMARK 922        TOTAL FREE ENERGY PREDICTED BY IDOCK:  -12.71 KCAL/MOL
REMARK 923 INTER-LIGAND FREE ENERGY PREDICTED BY IDOCK:   -9.57 KCAL/MOL
REMARK 924 INTRA-LIGAND FREE ENERGY PREDICTED BY IDOCK:   -3.14 KCAL/MOL
REMARK 927      BINDING AFFINITY PREDICTED BY RF-SCORE:    0.00 PKD
ROOT
HETATM    1  C   UNL     1      -6.492  19.423  69.633  1.00  0.00    -0.329 C  
HETATM    2  C   UNL     1      -6.811  18.017  69.162  1.00  0.00    -0.226 C  
ENDROOT
BRANCH   2   3
HETATM    3  C   UNL     1      -7.397  18.000  67.747  1.00  0.00    -0.213 C  
BRANCH   3   4
HETATM    4  C   UNL     1      -8.815  18.559  67.777  1.00  0.00    -0.275 C  
BRANCH   4   5
HETATM    5  N   UNL     1      -9.752  17.618  68.381  1.00  0.00    -0.305 NA 
HETATM    6  H   UNL     1      -9.925  17.618  69.386  1.00  0.00     0.000 HD 
BRANCH   5   7
HETATM    7  C   UNL     1     -10.409  16.712  67.532  1.00  0.00    -0.294 A  
HETATM    8  C   UNL     1     -11.314  15.748  67.995  1.00  0.00    -0.310 A  
HETATM    9  C   UNL     1     -11.890  14.814  67.134  1.00  0.00    -0.307 A  
HETATM   10  C   UNL     1     -11.551  14.796  65.780  1.00  0.00    -0.290 A  
HETATM   11  C   UNL     1     -10.061  16.674  66.174  1.00  0.00    -0.361 A  
HETATM   12  C   UNL     1     -10.627  15.731  65.300  1.00  0.00    -0.446 A  
BRANCH  10  13
HETATM   13  C   UNL     1     -12.181  13.750  64.935  1.00  0.00    -0.415 C  
HETATM   14  O   UNL     1     -13.226  13.190  65.232  1.00  0.00    -0.643 OA 
BRANCH  13  15
HETATM   15  O   UNL     1     -11.436  13.493  63.835  1.00  0.00    -0.355 OA 
BRANCH  15  16
HETATM   16  C   UNL     1     -10.383  12.533  64.036  1.00  0.00    -0.404 C  
BRANCH  16  17
HETATM   17  C   UNL     1     -10.886  11.104  63.828  1.00  0.00    -0.262 C  
BRANCH  17  18
HETATM   18  O   UNL     1      -9.956  10.187  64.414  1.00  0.00    -0.314 OA 
BRANCH  18  19
HETATM   19  C   UNL     1      -8.842   9.960  63.555  1.00  0.00    -0.234 C  
BRANCH  19  20
HETATM   20  C   UNL     1      -7.667   9.441  64.373  1.00  0.00    -0.119 C  
BRANCH  20  21
HETATM   21  O   UNL     1      -8.146   8.494  65.326  1.00  0.00    -0.121 OA 
BRANCH  21  22
HETATM   22  C   UNL     1      -7.738   8.835  66.649  1.00  0.00    -0.093 C  
BRANCH  22  23
HETATM   23  C   UNL     1      -6.351   9.462  66.598  1.00  0.00    -0.066 C  
BRANCH  23  24
HETATM   24  O   UNL     1      -6.390  10.735  67.238  1.00  0.00    -0.060 OA 
BRANCH  24  25
HETATM   25  C   UNL     1      -5.429  10.815  68.289  1.00  0.00    -0.039 C  
BRANCH  25  26
HETATM   26  C   UNL     1      -5.141  12.278  68.589  1.00  0.00    -0.047 C  
BRANCH  26  27
HETATM   27  O   UNL     1      -5.324  12.511  69.983  1.00  0.00    -0.085 OA 
BRANCH  27  28
HETATM   28  C   UNL     1      -6.143  13.655  70.211  1.00  0.00    -0.121 C  
BRANCH  28  29
HETATM   29  C   UNL     1      -6.455  14.316  68.877  1.00  0.00    -0.092 C  
BRANCH  29  30
HETATM   30  O   UNL     1      -7.868  14.432  68.739  1.00  0.00    -0.135 OA 
BRANCH  30  31
HETATM   31  C   UNL     1      -8.366  13.520  67.764  1.00  0.00    -0.181 C  
BRANCH  31  32
HETATM   32  C   UNL     1      -9.357  12.577  68.430  1.00  0.00    -0.149 C  
BRANCH  32  33
HETATM   33  O   UNL     1      -9.946  11.747  67.434  1.00  0.00    -0.183 OA 
BRANCH  33  34
HETATM   34  C   UNL     1     -11.084  11.060  67.946  1.00  0.00    -0.288 C  
BRANCH  34  35
HETATM   35  C   UNL     1     -11.697  11.887  69.066  1.00  0.00    -0.331 C  
BRANCH  35  36
HETATM   36  O   UNL     1     -11.473  11.223  70.308  1.00  0.00    -0.286 OA 
BRANCH  36  37
HETATM   37  C   UNL     1     -11.402   9.811  70.132  1.00  0.00    -0.251 C  
BRANCH  37  38
HETATM   38  C   UNL     1     -10.142   9.290  70.809  1.00  0.00    -0.291 C  
BRANCH  38  39
HETATM   39  O   UNL     1     -10.500   8.289  71.757  1.00  0.00    -0.224 OA 
BRANCH  39  40
HETATM   40  C   UNL     1      -9.600   7.183  71.707  1.00  0.00    -0.151 C  
BRANCH  40  41
HETATM   41  C   UNL     1      -8.901   7.049  73.053  1.00  0.00    -0.126 C  
BRANCH  41  42
HETATM   42  O   UNL     1      -7.497   7.233  72.876  1.00  0.00    -0.075 OA 
HETATM   43  C   UNL     1      -6.753   6.416  73.770  1.00  0.00    -0.074 C  
ENDBRANCH  41  42
ENDBRANCH  40  41
ENDBRANCH  39  40
ENDBRANCH  38  39
ENDBRANCH  37  38
ENDBRANCH  36  37
ENDBRANCH  35  36
ENDBRANCH  34  35
ENDBRANCH  33  34
ENDBRANCH  32  33
ENDBRANCH  31  32
ENDBRANCH  30  31
ENDBRANCH  29  30
ENDBRANCH  28  29
ENDBRANCH  27  28
ENDBRANCH  26  27
ENDBRANCH  25  26
ENDBRANCH  24  25
ENDBRANCH  23  24
ENDBRANCH  22  23
ENDBRANCH  21  22
ENDBRANCH  20  21
ENDBRANCH  19  20
ENDBRANCH  18  19
ENDBRANCH  17  18
ENDBRANCH  16  17
ENDBRANCH  15  16
ENDBRANCH  13  15
ENDBRANCH  10  13
ENDBRANCH   5   7
ENDBRANCH   4   5
ENDBRANCH   3   4
ENDBRANCH   2   3
TORSDOF 33
ENDMDL
MODEL      127
REMARK 921   NORMALIZED FREE ENERGY PREDICTED BY IDOCK:   -3.37 KCAL/MOL
REMARK 922        TOTAL FREE ENERGY PREDICTED BY IDOCK:  -12.66 KCAL/MOL
REMARK 923 INTER-LIGAND FREE ENERGY PREDICTED BY IDOCK:  -10.46 KCAL/MOL
REMARK 924 INTRA-LIGAND FREE ENERGY PREDICTED BY IDOCK:   -2.20 KCAL/MOL
REMARK 927      BINDING AFFINITY PREDICTED BY RF-SCORE:    0.00 PKD
ROOT
HETATM    1  C   UNL     1      -8.910   4.259  62.734  1.00  0.00    -0.113 C  
HETATM    2  C   UNL     1      -9.287   3.630  64.062  1.00  0.00    -0.136 C  
ENDROOT
BRANCH   2   3
HETATM    3  C   UNL     1      -9.285   4.648  65.205  1.00  0.00    -0.156 C  
BRANCH   3   4
HETATM    4  C   UNL     1      -9.515   3.928  66.529  1.00  0.00    -0.195 C  
BRANCH   4   5
HETATM    5  N   UNL     1      -8.681   4.475  67.593  1.00  0.00    -0.103 NA 
HETATM    6  H   UNL     1      -7.683   4.269  67.638  1.00  0.00     0.000 HD 
BRANCH   5   7
HETATM    7  C   UNL     1      -9.297   5.294  68.552  1.00  0.00    -0.121 A  
HETATM    8  C   UNL     1     -10.649   5.659  68.493  1.00  0.00    -0.259 A  
HETATM    9  C   UNL     1     -11.210   6.536  69.420  1.00  0.00    -0.418 A  
HETATM   10  C   UNL     1     -10.423   7.106  70.422  1.00  0.00    -0.234 A  
HETATM   11  C   UNL     1      -8.511   5.886  69.552  1.00  0.00    -0.114 A  
HETATM   12  C   UNL     1      -9.063   6.779  70.484  1.00  0.00    -0.156 A  
BRANCH  10  13
HETATM   13  C   UNL     1     -11.086   8.057  71.351  1.00  0.00    -0.241 C  
HETATM   14  O   UNL     1     -12.200   7.868  71.818  1.00  0.00    -0.288 OA 
BRANCH  13  15
HETATM   15  O   UNL     1     -10.314   9.145  71.573  1.00  0.00    -0.320 OA 
BRANCH  15  16
HETATM   16  C   UNL     1      -9.928   9.860  70.385  1.00  0.00    -0.160 C  
BRANCH  16  17
HETATM   17  C   UNL     1     -11.151  10.328  69.596  1.00  0.00    -0.274 C  
BRANCH  17  18
HETATM   18  O   UNL     1     -10.886  10.201  68.195  1.00  0.00    -0.233 OA 
BRANCH  18  19
HETATM   19  C   UNL     1      -9.526   9.849  67.955  1.00  0.00    -0.134 C  
BRANCH  19  20
HETATM   20  C   UNL     1      -9.382   9.308  66.539  1.00  0.00    -0.178 C  
BRANCH  20  21
HETATM   21  O   UNL     1     -10.411   9.865  65.723  1.00  0.00    -0.221 OA 
BRANCH  21  22
HETATM   22  C   UNL     1      -9.918  10.217  64.432  1.00  0.00    -0.159 C  
BRANCH  22  23
HETATM   23  C   UNL     1      -9.302  11.609  64.495  1.00  0.00     0.056 C  
BRANCH  23  24
HETATM   24  O   UNL     1     -10.111  12.512  63.743  1.00  0.00    -0.388 OA 
BRANCH  24  25
HETATM   25  C   UNL     1     -11.274  11.862  63.236  1.00  0.00    -0.294 C  
BRANCH  25  26
HETATM   26  C   UNL     1     -12.505  12.442  63.918  1.00  0.00    -0.476 C  
BRANCH  26  27
HETATM   27  O   UNL     1     -12.258  13.809  64.235  1.00  0.00    -0.496 OA 
BRANCH  27  28
HETATM   28  C   UNL     1     -12.641  14.105  65.576  1.00  0.00    -0.479 C  
BRANCH  28  29
HETATM   29  C   UNL     1     -12.115  13.012  66.494  1.00  0.00    -0.341 C  
BRANCH  29  30
HETATM   30  O   UNL     1     -11.363  13.614  67.544  1.00  0.00    -0.283 OA 
BRANCH  30  31
HETATM   31  C   UNL     1     -10.330  14.447  67.024  1.00  0.00    -0.263 C  
BRANCH  31  32
HETATM   32  C   UNL     1      -8.981  13.839  67.375  1.00  0.00    -0.224 C  
BRANCH  32  33
HETATM   33  O   UNL     1      -8.068  14.888  67.683  1.00  0.00    -0.141 OA 
BRANCH  33  34
HETATM   34  C   UNL     1      -8.383  15.491  68.935  1.00  0.00    -0.205 C  
BRANCH  34  35
HETATM   35  C   UNL     1      -7.159  16.238  69.445  1.00  0.00    -0.204 C  
BRANCH  35  36
HETATM   36  O   UNL     1      -6.889  17.334  68.573  1.00  0.00    -0.180 OA 
BRANCH  36  37
HETATM   37  C   UNL     1      -6.305  18.424  69.281  1.00  0.00    -0.260 C  
BRANCH  37  38
HETATM   38  C   UNL     1      -7.121  19.681  69.013  1.00  0.00    -0.352 C  
BRANCH  38  39
HETATM   39  O   UNL     1      -8.393  19.310  68.491  1.00  0.00    -0.344 OA 
BRANCH  39  40
HETATM   40  C   UNL     1      -8.760  20.135  67.386  1.00  0.00    -0.344 C  
BRANCH  40  41
HETATM   41  C   UNL     1      -8.939  19.262  66.151  1.00  0.00    -0.255 C  
BRANCH  41  42
HETATM   42  O   UNL     1      -7.659  18.863  65.665  1.00  0.00    -0.485 OA 
HETATM   43  C   UNL     1      -6.909  19.980  65.207  1.00  0.00    -0.295 C  
ENDBRANCH  41  42
ENDBRANCH  40  41
ENDBRANCH  39  40
ENDBRANCH  38  39
ENDBRANCH  37  38
ENDBRANCH  36  37
ENDBRANCH  35  36
ENDBRANCH  34  35
ENDBRANCH  33  34
ENDBRANCH  32  33
ENDBRANCH  31  32
ENDBRANCH  30  31
ENDBRANCH  29  30
ENDBRANCH  28  29
ENDBRANCH  27  28
ENDBRANCH  26  27
ENDBRANCH  25  26
ENDBRANCH  24  25
ENDBRANCH  23  24
ENDBRANCH  22  23
ENDBRANCH  21  22
ENDBRANCH  20  21
ENDBRANCH  19  20
ENDBRANCH  18  19
ENDBRANCH  17  18
ENDBRANCH  16  17
ENDBRANCH  15  16
ENDBRANCH  13  15
ENDBRANCH  10  13
ENDBRANCH   5   7
ENDBRANCH   4   5
ENDBRANCH   3   4
ENDBRANCH   2   3
TORSDOF 33
ENDMDL
MODEL      128
REMARK 921   NORMALIZED FREE ENERGY PREDICTED BY IDOCK:   -3.36 KCAL/MOL
REMARK 922        TOTAL FREE ENERGY PREDICTED BY IDOCK:  -12.63 KCAL/MOL
REMARK 923 INTER-LIGAND FREE ENERGY PREDICTED BY IDOCK:  -10.16 KCAL/MOL
REMARK 924 INTRA-LIGAND FREE ENERGY PREDICTED BY IDOCK:   -2.47 KCAL/MOL
REMARK 927      BINDING AFFINITY PREDICTED BY RF-SCORE:    0.00 PKD
ROOT
HETATM    1  C   UNL     1      -9.106   4.084  72.627  1.00  0.00    -0.131 C  
HETATM    2  C   UNL     1      -9.759   3.883  71.273  1.00  0.00    -0.247 C  
ENDROOT
BRANCH   2   3
HETATM    3  C   UNL     1      -9.344   2.561  70.622  1.00  0.00    -0.212 C  
BRANCH   3   4
HETATM    4  C   UNL     1      -8.502   2.846  69.383  1.00  0.00    -0.062 C  
BRANCH   4   5
HETATM    5  N   UNL     1      -9.334   3.103  68.213  1.00  0.00    -0.191 NA 
HETATM    6  H   UNL     1     -10.127   2.503  67.989  1.00  0.00     0.000 HD 
BRANCH   5   7
HETATM    7  C   UNL     1      -9.006   4.205  67.406  1.00  0.00    -0.125 A  
HETATM    8  C   UNL     1      -8.789   5.491  67.917  1.00  0.00    -0.105 A  
HETATM    9  C   UNL     1      -8.540   6.578  67.080  1.00  0.00    -0.113 A  
HETATM   10  C   UNL     1      -8.534   6.416  65.693  1.00  0.00    -0.147 A  
HETATM   11  C   UNL     1      -9.016   4.056  66.011  1.00  0.00    -0.129 A  
HETATM   12  C   UNL     1      -8.777   5.146  65.157  1.00  0.00    -0.151 A  
BRANCH  10  13
HETATM   13  C   UNL     1      -8.295   7.627  64.867  1.00  0.00    -0.046 C  
HETATM   14  O   UNL     1      -7.531   7.646  63.913  1.00  0.00    -0.092 OA 
BRANCH  13  15
HETATM   15  O   UNL     1      -9.001   8.684  65.330  1.00  0.00    -0.189 OA 
BRANCH  15  16
HETATM   16  C   UNL     1      -9.141   9.768  64.394  1.00  0.00    -0.248 C  
BRANCH  16  17
HETATM   17  C   UNL     1     -10.338  10.652  64.742  1.00  0.00    -0.283 C  
BRANCH  17  18
HETATM   18  O   UNL     1     -10.345  11.797  63.883  1.00  0.00    -0.311 OA 
BRANCH  18  19
HETATM   19  C   UNL     1     -11.655  12.345  63.761  1.00  0.00    -0.473 C  
BRANCH  19  20
HETATM   20  C   UNL     1     -12.259  12.534  65.147  1.00  0.00    -0.448 C  
BRANCH  20  21
HETATM   21  O   UNL     1     -12.016  13.871  65.581  1.00  0.00    -0.354 OA 
BRANCH  21  22
HETATM   22  C   UNL     1     -12.084  14.792  64.495  1.00  0.00    -0.446 C  
BRANCH  22  23
HETATM   23  C   UNL     1     -11.145  15.959  64.772  1.00  0.00    -0.384 C  
BRANCH  23  24
HETATM   24  O   UNL     1     -10.190  15.568  65.755  1.00  0.00    -0.312 OA 
BRANCH  24  25
HETATM   25  C   UNL     1      -9.436  16.687  66.217  1.00  0.00    -0.293 C  
BRANCH  25  26
HETATM   26  C   UNL     1     -10.377  17.862  66.440  1.00  0.00    -0.365 C  
BRANCH  26  27
HETATM   27  O   UNL     1      -9.841  19.014  65.795  1.00  0.00    -0.451 OA 
BRANCH  27  28
HETATM   28  C   UNL     1      -9.928  20.163  66.635  1.00  0.00    -0.463 C  
BRANCH  28  29
HETATM   29  C   UNL     1      -8.593  20.366  67.336  1.00  0.00    -0.319 C  
BRANCH  29  30
HETATM   30  O   UNL     1      -7.544  19.986  66.450  1.00  0.00    -0.275 OA 
BRANCH  30  31
HETATM   31  C   UNL     1      -6.650  19.069  67.074  1.00  0.00    -0.196 C  
BRANCH  31  32
HETATM   32  C   UNL     1      -6.832  19.150  68.582  1.00  0.00    -0.287 C  
BRANCH  32  33
HETATM   33  O   UNL     1      -7.172  17.858  69.076  1.00  0.00    -0.261 OA 
BRANCH  33  34
HETATM   34  C   UNL     1      -6.768  16.838  68.167  1.00  0.00    -0.148 C  
BRANCH  34  35
HETATM   35  C   UNL     1      -6.482  15.565  68.950  1.00  0.00    -0.110 C  
BRANCH  35  36
HETATM   36  O   UNL     1      -7.545  14.640  68.735  1.00  0.00    -0.124 OA 
BRANCH  36  37
HETATM   37  C   UNL     1      -7.396  13.964  67.489  1.00  0.00    -0.166 C  
BRANCH  37  38
HETATM   38  C   UNL     1      -8.469  12.891  67.377  1.00  0.00    -0.196 C  
BRANCH  38  39
HETATM   39  O   UNL     1      -9.457  13.112  68.379  1.00  0.00    -0.213 OA 
BRANCH  39  40
HETATM   40  C   UNL     1     -10.264  11.952  68.575  1.00  0.00    -0.215 C  
BRANCH  40  41
HETATM   41  C   UNL     1     -11.696  12.383  68.861  1.00  0.00    -0.324 C  
BRANCH  41  42
HETATM   42  O   UNL     1     -11.684  13.620  69.571  1.00  0.00    -0.284 OA 
HETATM   43  C   UNL     1     -12.567  13.585  70.684  1.00  0.00    -0.275 C  
ENDBRANCH  41  42
ENDBRANCH  40  41
ENDBRANCH  39  40
ENDBRANCH  38  39
ENDBRANCH  37  38
ENDBRANCH  36  37
ENDBRANCH  35  36
ENDBRANCH  34  35
ENDBRANCH  33  34
ENDBRANCH  32  33
ENDBRANCH  31  32
ENDBRANCH  30  31
ENDBRANCH  29  30
ENDBRANCH  28  29
ENDBRANCH  27  28
ENDBRANCH  26  27
ENDBRANCH  25  26
ENDBRANCH  24  25
ENDBRANCH  23  24
ENDBRANCH  22  23
ENDBRANCH  21  22
ENDBRANCH  20  21
ENDBRANCH  19  20
ENDBRANCH  18  19
ENDBRANCH  17  18
ENDBRANCH  16  17
ENDBRANCH  15  16
ENDBRANCH  13  15
ENDBRANCH  10  13
ENDBRANCH   5   7
ENDBRANCH   4   5
ENDBRANCH   3   4
ENDBRANCH   2   3
TORSDOF 33
ENDMDL
MODEL      129
REMARK 921   NORMALIZED FREE ENERGY PREDICTED BY IDOCK:   -3.35 KCAL/MOL
REMARK 922        TOTAL FREE ENERGY PREDICTED BY IDOCK:  -12.62 KCAL/MOL
REMARK 923 INTER-LIGAND FREE ENERGY PREDICTED BY IDOCK:   -9.48 KCAL/MOL
REMARK 924 INTRA-LIGAND FREE ENERGY PREDICTED BY IDOCK:   -3.14 KCAL/MOL
REMARK 927      BINDING AFFINITY PREDICTED BY RF-SCORE:    0.00 PKD
ROOT
HETATM    1  C   UNL     1      -8.454   4.646  65.665  1.00  0.00    -0.118 C  
HETATM    2  C   UNL     1      -8.585   4.783  64.160  1.00  0.00    -0.137 C  
ENDROOT
BRANCH   2   3
HETATM    3  C   UNL     1      -8.111   6.150  63.662  1.00  0.00    -0.065 C  
BRANCH   3   4
HETATM    4  C   UNL     1      -8.061   7.129  64.830  1.00  0.00    -0.107 C  
BRANCH   4   5
HETATM    5  N   UNL     1      -7.769   8.487  64.385  1.00  0.00    -0.120 NA 
HETATM    6  H   UNL     1      -6.823   8.764  64.125  1.00  0.00     0.000 HD 
BRANCH   5   7
HETATM    7  C   UNL     1      -8.836   9.399  64.324  1.00  0.00    -0.184 A  
HETATM    8  C   UNL     1      -9.060  10.241  63.227  1.00  0.00    -0.284 A  
HETATM    9  C   UNL     1     -10.083  11.189  63.232  1.00  0.00    -0.426 A  
HETATM   10  C   UNL     1     -10.897  11.346  64.356  1.00  0.00    -0.397 A  
HETATM   11  C   UNL     1      -9.646   9.577  65.455  1.00  0.00    -0.342 A  
HETATM   12  C   UNL     1     -10.673  10.536  65.475  1.00  0.00    -0.047 A  
BRANCH  10  13
HETATM   13  C   UNL     1     -11.942  12.400  64.297  1.00  0.00    -0.410 C  
HETATM   14  O   UNL     1     -12.194  13.037  63.284  1.00  0.00    -0.631 OA 
BRANCH  13  15
HETATM   15  O   UNL     1     -12.537  12.569  65.499  1.00  0.00    -0.642 OA 
BRANCH  15  16
HETATM   16  C   UNL     1     -12.359  13.876  66.078  1.00  0.00    -0.475 C  
BRANCH  16  17
HETATM   17  C   UNL     1     -10.916  14.089  66.534  1.00  0.00    -0.306 C  
BRANCH  17  18
HETATM   18  O   UNL     1     -10.898  14.330  67.945  1.00  0.00    -0.247 OA 
BRANCH  18  19
HETATM   19  C   UNL     1     -12.136  13.963  68.549  1.00  0.00    -0.296 C  
BRANCH  19  20
HETATM   20  C   UNL     1     -11.895  12.869  69.580  1.00  0.00    -0.320 C  
BRANCH  20  21
HETATM   21  O   UNL     1     -12.430  13.287  70.835  1.00  0.00    -0.362 OA 
BRANCH  21  22
HETATM   22  C   UNL     1     -12.906  12.178  71.593  1.00  0.00    -0.285 C  
BRANCH  22  23
HETATM   23  C   UNL     1     -12.832  10.920  70.738  1.00  0.00    -0.289 C  
BRANCH  23  24
HETATM   24  O   UNL     1     -13.536   9.867  71.394  1.00  0.00    -0.364 OA 
BRANCH  24  25
HETATM   25  C   UNL     1     -12.638   8.988  72.069  1.00  0.00    -0.394 C  
BRANCH  25  26
HETATM   26  C   UNL     1     -11.469   8.668  71.148  1.00  0.00    -0.280 C  
BRANCH  26  27
HETATM   27  O   UNL     1     -10.352   8.268  71.937  1.00  0.00    -0.214 OA 
BRANCH  27  28
HETATM   28  C   UNL     1      -9.131   8.757  71.387  1.00  0.00    -0.243 C  
BRANCH  28  29
HETATM   29  C   UNL     1      -9.447   9.659  70.203  1.00  0.00    -0.253 C  
BRANCH  29  30
HETATM   30  O   UNL     1      -8.325   9.676  69.324  1.00  0.00    -0.118 OA 
BRANCH  30  31
HETATM   31  C   UNL     1      -7.226  10.372  69.907  1.00  0.00    -0.153 C  
BRANCH  31  32
HETATM   32  C   UNL     1      -5.954  10.003  69.157  1.00  0.00    -0.037 C  
BRANCH  32  33
HETATM   33  O   UNL     1      -6.304   9.524  67.863  1.00  0.00    -0.053 OA 
BRANCH  33  34
HETATM   34  C   UNL     1      -5.503   8.404  67.497  1.00  0.00    -0.038 C  
BRANCH  34  35
HETATM   35  C   UNL     1      -5.597   7.352  68.592  1.00  0.00    -0.022 C  
BRANCH  35  36
HETATM   36  O   UNL     1      -6.249   6.196  68.070  1.00  0.00    -0.026 OA 
BRANCH  36  37
HETATM   37  C   UNL     1      -6.378   5.183  69.064  1.00  0.00    -0.031 C  
BRANCH  37  38
HETATM   38  C   UNL     1      -6.004   5.769  70.419  1.00  0.00    -0.025 C  
BRANCH  38  39
HETATM   39  O   UNL     1      -7.142   5.727  71.275  1.00  0.00    -0.068 OA 
BRANCH  39  40
HETATM   40  C   UNL     1      -7.973   4.605  70.976  1.00  0.00    -0.082 C  
BRANCH  40  41
HETATM   41  C   UNL     1      -9.409   4.933  71.362  1.00  0.00    -0.150 C  
BRANCH  41  42
HETATM   42  O   UNL     1     -10.285   4.516  70.317  1.00  0.00    -0.219 OA 
HETATM   43  C   UNL     1     -10.074   5.271  69.132  1.00  0.00    -0.219 C  
ENDBRANCH  41  42
ENDBRANCH  40  41
ENDBRANCH  39  40
ENDBRANCH  38  39
ENDBRANCH  37  38
ENDBRANCH  36  37
ENDBRANCH  35  36
ENDBRANCH  34  35
ENDBRANCH  33  34
ENDBRANCH  32  33
ENDBRANCH  31  32
ENDBRANCH  30  31
ENDBRANCH  29  30
ENDBRANCH  28  29
ENDBRANCH  27  28
ENDBRANCH  26  27
ENDBRANCH  25  26
ENDBRANCH  24  25
ENDBRANCH  23  24
ENDBRANCH  22  23
ENDBRANCH  21  22
ENDBRANCH  20  21
ENDBRANCH  19  20
ENDBRANCH  18  19
ENDBRANCH  17  18
ENDBRANCH  16  17
ENDBRANCH  15  16
ENDBRANCH  13  15
ENDBRANCH  10  13
ENDBRANCH   5   7
ENDBRANCH   4   5
ENDBRANCH   3   4
ENDBRANCH   2   3
TORSDOF 33
ENDMDL
MODEL      130
REMARK 921   NORMALIZED FREE ENERGY PREDICTED BY IDOCK:   -3.35 KCAL/MOL
REMARK 922        TOTAL FREE ENERGY PREDICTED BY IDOCK:  -12.61 KCAL/MOL
REMARK 923 INTER-LIGAND FREE ENERGY PREDICTED BY IDOCK:  -10.18 KCAL/MOL
REMARK 924 INTRA-LIGAND FREE ENERGY PREDICTED BY IDOCK:   -2.43 KCAL/MOL
REMARK 927      BINDING AFFINITY PREDICTED BY RF-SCORE:    0.00 PKD
ROOT
HETATM    1  C   UNL     1     -10.728  19.317  67.414  1.00  0.00    -0.594 C  
HETATM    2  C   UNL     1      -9.603  19.272  66.398  1.00  0.00    -0.425 C  
ENDROOT
BRANCH   2   3
HETATM    3  C   UNL     1      -8.450  20.208  66.771  1.00  0.00    -0.365 C  
BRANCH   3   4
HETATM    4  C   UNL     1      -7.205  19.383  67.079  1.00  0.00    -0.207 C  
BRANCH   4   5
HETATM    5  N   UNL     1      -7.314  18.702  68.365  1.00  0.00    -0.277 NA 
HETATM    6  H   UNL     1      -7.556  19.214  69.213  1.00  0.00     0.000 HD 
BRANCH   5   7
HETATM    7  C   UNL     1      -7.075  17.319  68.395  1.00  0.00    -0.209 A  
HETATM    8  C   UNL     1      -7.922  16.410  69.043  1.00  0.00    -0.227 A  
HETATM    9  C   UNL     1      -7.615  15.052  69.119  1.00  0.00    -0.176 A  
HETATM   10  C   UNL     1      -6.426  14.564  68.574  1.00  0.00    -0.094 A  
HETATM   11  C   UNL     1      -5.874  16.822  67.867  1.00  0.00    -0.139 A  
HETATM   12  C   UNL     1      -5.550  15.457  67.947  1.00  0.00    -0.148 A  
BRANCH  10  13
HETATM   13  C   UNL     1      -6.154  13.111  68.725  1.00  0.00    -0.079 C  
HETATM   14  O   UNL     1      -6.016  12.566  69.811  1.00  0.00    -0.111 OA 
BRANCH  13  15
HETATM   15  O   UNL     1      -6.055  12.503  67.522  1.00  0.00    -0.126 OA 
BRANCH  15  16
HETATM   16  C   UNL     1      -7.311  12.294  66.849  1.00  0.00     0.033 C  
BRANCH  16  17
HETATM   17  C   UNL     1      -8.171  11.266  67.584  1.00  0.00    -0.120 C  
BRANCH  17  18
HETATM   18  O   UNL     1      -7.575   9.971  67.451  1.00  0.00    -0.091 OA 
BRANCH  18  19
HETATM   19  C   UNL     1      -7.842   9.159  68.592  1.00  0.00    -0.097 C  
BRANCH  19  20
HETATM   20  C   UNL     1      -7.208   7.788  68.399  1.00  0.00    -0.093 C  
BRANCH  20  21
HETATM   21  O   UNL     1      -7.991   6.813  69.086  1.00  0.00    -0.109 OA 
BRANCH  21  22
HETATM   22  C   UNL     1      -8.811   6.074  68.184  1.00  0.00    -0.111 C  
BRANCH  22  23
HETATM   23  C   UNL     1      -8.368   4.616  68.187  1.00  0.00    -0.094 C  
BRANCH  23  24
HETATM   24  O   UNL     1      -8.089   4.215  69.526  1.00  0.00    -0.059 OA 
BRANCH  24  25
HETATM   25  C   UNL     1      -9.190   3.509  70.094  1.00  0.00    -0.154 C  
BRANCH  25  26
HETATM   26  C   UNL     1      -9.609   4.196  71.386  1.00  0.00    -0.168 C  
BRANCH  26  27
HETATM   27  O   UNL     1     -10.570   5.204  71.085  1.00  0.00    -0.205 OA 
BRANCH  27  28
HETATM   28  C   UNL     1     -11.231   5.654  72.265  1.00  0.00    -0.259 C  
BRANCH  28  29
HETATM   29  C   UNL     1     -11.952   6.959  71.961  1.00  0.00    -0.306 C  
BRANCH  29  30
HETATM   30  O   UNL     1     -11.453   7.974  72.827  1.00  0.00    -0.402 OA 
BRANCH  30  31
HETATM   31  C   UNL     1     -10.216   8.495  72.349  1.00  0.00    -0.299 C  
BRANCH  31  32
HETATM   32  C   UNL     1     -10.400   8.971  70.916  1.00  0.00    -0.256 C  
BRANCH  32  33
HETATM   33  O   UNL     1     -10.821  10.331  70.931  1.00  0.00    -0.220 OA 
BRANCH  33  34
HETATM   34  C   UNL     1     -11.958  10.525  70.095  1.00  0.00    -0.316 C  
BRANCH  34  35
HETATM   35  C   UNL     1     -11.507  10.532  68.642  1.00  0.00    -0.223 C  
BRANCH  35  36
HETATM   36  O   UNL     1     -12.261  11.508  67.927  1.00  0.00    -0.586 OA 
BRANCH  36  37
HETATM   37  C   UNL     1     -11.561  12.746  67.849  1.00  0.00    -0.351 C  
BRANCH  37  38
HETATM   38  C   UNL     1     -12.008  13.490  66.598  1.00  0.00    -0.404 C  
BRANCH  38  39
HETATM   39  O   UNL     1     -11.042  14.487  66.278  1.00  0.00    -0.320 OA 
BRANCH  39  40
HETATM   40  C   UNL     1     -10.820  14.560  64.870  1.00  0.00    -0.421 C  
BRANCH  40  41
HETATM   41  C   UNL     1     -12.117  14.229  64.144  1.00  0.00    -0.393 C  
BRANCH  41  42
HETATM   42  O   UNL     1     -11.877  13.189  63.199  1.00  0.00    -0.459 OA 
HETATM   43  C   UNL     1     -12.493  11.973  63.601  1.00  0.00    -0.525 C  
ENDBRANCH  41  42
ENDBRANCH  40  41
ENDBRANCH  39  40
ENDBRANCH  38  39
ENDBRANCH  37  38
ENDBRANCH  36  37
ENDBRANCH  35  36
ENDBRANCH  34  35
ENDBRANCH  33  34
ENDBRANCH  32  33
ENDBRANCH  31  32
ENDBRANCH  30  31
ENDBRANCH  29  30
ENDBRANCH  28  29
ENDBRANCH  27  28
ENDBRANCH  26  27
ENDBRANCH  25  26
ENDBRANCH  24  25
ENDBRANCH  23  24
ENDBRANCH  22  23
ENDBRANCH  21  22
ENDBRANCH  20  21
ENDBRANCH  19  20
ENDBRANCH  18  19
ENDBRANCH  17  18
ENDBRANCH  16  17
ENDBRANCH  15  16
ENDBRANCH  13  15
ENDBRANCH  10  13
ENDBRANCH   5   7
ENDBRANCH   4   5
ENDBRANCH   3   4
ENDBRANCH   2   3
TORSDOF 33
ENDMDL
MODEL      131
REMARK 921   NORMALIZED FREE ENERGY PREDICTED BY IDOCK:   -3.35 KCAL/MOL
REMARK 922        TOTAL FREE ENERGY PREDICTED BY IDOCK:  -12.61 KCAL/MOL
REMARK 923 INTER-LIGAND FREE ENERGY PREDICTED BY IDOCK:  -10.65 KCAL/MOL
REMARK 924 INTRA-LIGAND FREE ENERGY PREDICTED BY IDOCK:   -1.96 KCAL/MOL
REMARK 927      BINDING AFFINITY PREDICTED BY RF-SCORE:    0.00 PKD
ROOT
HETATM    1  C   UNL     1     -10.607   3.718  62.858  1.00  0.00    -0.205 C  
HETATM    2  C   UNL     1     -10.061   3.167  64.162  1.00  0.00    -0.155 C  
ENDROOT
BRANCH   2   3
HETATM    3  C   UNL     1      -9.907   4.254  65.229  1.00  0.00    -0.214 C  
BRANCH   3   4
HETATM    4  C   UNL     1      -9.468   3.618  66.544  1.00  0.00    -0.170 C  
BRANCH   4   5
HETATM    5  N   UNL     1      -8.720   4.556  67.373  1.00  0.00    -0.104 NA 
HETATM    6  H   UNL     1      -7.755   4.802  67.152  1.00  0.00     0.000 HD 
BRANCH   5   7
HETATM    7  C   UNL     1      -9.373   5.111  68.486  1.00  0.00    -0.125 A  
HETATM    8  C   UNL     1     -10.723   5.488  68.472  1.00  0.00    -0.161 A  
HETATM    9  C   UNL     1     -11.320   6.106  69.570  1.00  0.00    -0.426 A  
HETATM   10  C   UNL     1     -10.570   6.399  70.711  1.00  0.00    -0.288 A  
HETATM   11  C   UNL     1      -8.625   5.426  69.630  1.00  0.00    -0.103 A  
HETATM   12  C   UNL     1      -9.213   6.059  70.737  1.00  0.00    -0.165 A  
BRANCH  10  13
HETATM   13  C   UNL     1     -11.269   7.089  71.825  1.00  0.00    -0.246 C  
HETATM   14  O   UNL     1     -12.380   6.765  72.221  1.00  0.00    -0.223 OA 
BRANCH  13  15
HETATM   15  O   UNL     1     -10.534   8.118  72.304  1.00  0.00    -0.252 OA 
BRANCH  15  16
HETATM   16  C   UNL     1     -10.328   9.194  71.371  1.00  0.00    -0.338 C  
BRANCH  16  17
HETATM   17  C   UNL     1     -11.656   9.712  70.819  1.00  0.00    -0.321 C  
BRANCH  17  18
HETATM   18  O   UNL     1     -11.464  10.167  69.475  1.00  0.00    -0.229 OA 
BRANCH  18  19
HETATM   19  C   UNL     1     -10.110  10.553  69.248  1.00  0.00    -0.224 C  
BRANCH  19  20
HETATM   20  C   UNL     1      -9.690  10.131  67.847  1.00  0.00    -0.146 C  
BRANCH  20  21
HETATM   21  O   UNL     1     -10.692  10.542  66.918  1.00  0.00    -0.253 OA 
BRANCH  21  22
HETATM   22  C   UNL     1     -10.258  10.365  65.571  1.00  0.00    -0.246 C  
BRANCH  22  23
HETATM   23  C   UNL     1      -9.383  11.546  65.171  1.00  0.00    -0.111 C  
BRANCH  23  24
HETATM   24  O   UNL     1      -9.926  12.154  64.000  1.00  0.00    -0.312 OA 
BRANCH  24  25
HETATM   25  C   UNL     1     -10.995  11.378  63.465  1.00  0.00    -0.324 C  
BRANCH  25  26
HETATM   26  C   UNL     1     -12.303  12.130  63.662  1.00  0.00    -0.568 C  
BRANCH  26  27
HETATM   27  O   UNL     1     -12.051  13.530  63.574  1.00  0.00    -0.530 OA 
BRANCH  27  28
HETATM   28  C   UNL     1     -12.693  14.237  64.633  1.00  0.00    -0.113 C  
BRANCH  28  29
HETATM   29  C   UNL     1     -12.434  13.509  65.943  1.00  0.00    -0.429 C  
BRANCH  29  30
HETATM   30  O   UNL     1     -11.172  13.924  66.459  1.00  0.00    -0.310 OA 
BRANCH  30  31
HETATM   31  C   UNL     1     -11.025  15.339  66.383  1.00  0.00    -0.299 C  
BRANCH  31  32
HETATM   32  C   UNL     1      -9.950  15.670  65.359  1.00  0.00    -0.276 C  
BRANCH  32  33
HETATM   33  O   UNL     1      -8.956  16.481  65.979  1.00  0.00    -0.392 OA 
BRANCH  33  34
HETATM   34  C   UNL     1      -8.155  15.716  66.875  1.00  0.00    -0.255 C  
BRANCH  34  35
HETATM   35  C   UNL     1      -7.631  16.631  67.972  1.00  0.00    -0.166 C  
BRANCH  35  36
HETATM   36  O   UNL     1      -8.737  17.235  68.639  1.00  0.00    -0.272 OA 
BRANCH  36  37
HETATM   37  C   UNL     1      -9.381  16.310  69.511  1.00  0.00    -0.028 C  
BRANCH  37  38
HETATM   38  C   UNL     1     -10.775  16.827  69.838  1.00  0.00    -0.119 C  
BRANCH  38  39
HETATM   39  O   UNL     1     -11.501  15.810  70.522  1.00  0.00    -0.316 OA 
BRANCH  39  40
HETATM   40  C   UNL     1     -11.492  14.586  69.788  1.00  0.00    -0.279 C  
BRANCH  40  41
HETATM   41  C   UNL     1     -12.579  13.670  70.334  1.00  0.00    -0.227 C  
BRANCH  41  42
HETATM   42  O   UNL     1     -12.584  13.740  71.759  1.00  0.00    -0.302 OA 
HETATM   43  C   UNL     1     -13.370  12.700  72.324  1.00  0.00    -0.422 C  
ENDBRANCH  41  42
ENDBRANCH  40  41
ENDBRANCH  39  40
ENDBRANCH  38  39
ENDBRANCH  37  38
ENDBRANCH  36  37
ENDBRANCH  35  36
ENDBRANCH  34  35
ENDBRANCH  33  34
ENDBRANCH  32  33
ENDBRANCH  31  32
ENDBRANCH  30  31
ENDBRANCH  29  30
ENDBRANCH  28  29
ENDBRANCH  27  28
ENDBRANCH  26  27
ENDBRANCH  25  26
ENDBRANCH  24  25
ENDBRANCH  23  24
ENDBRANCH  22  23
ENDBRANCH  21  22
ENDBRANCH  20  21
ENDBRANCH  19  20
ENDBRANCH  18  19
ENDBRANCH  17  18
ENDBRANCH  16  17
ENDBRANCH  15  16
ENDBRANCH  13  15
ENDBRANCH  10  13
ENDBRANCH   5   7
ENDBRANCH   4   5
ENDBRANCH   3   4
ENDBRANCH   2   3
TORSDOF 33
ENDMDL
MODEL      132
REMARK 921   NORMALIZED FREE ENERGY PREDICTED BY IDOCK:   -3.34 KCAL/MOL
REMARK 922        TOTAL FREE ENERGY PREDICTED BY IDOCK:  -12.58 KCAL/MOL
REMARK 923 INTER-LIGAND FREE ENERGY PREDICTED BY IDOCK:  -10.23 KCAL/MOL
REMARK 924 INTRA-LIGAND FREE ENERGY PREDICTED BY IDOCK:   -2.34 KCAL/MOL
REMARK 927      BINDING AFFINITY PREDICTED BY RF-SCORE:    0.00 PKD
ROOT
HETATM    1  C   UNL     1      -8.872   4.083  62.625  1.00  0.00    -0.100 C  
HETATM    2  C   UNL     1      -8.410   4.888  63.825  1.00  0.00    -0.127 C  
ENDROOT
BRANCH   2   3
HETATM    3  C   UNL     1      -8.836   4.247  65.149  1.00  0.00    -0.134 C  
BRANCH   3   4
HETATM    4  C   UNL     1      -9.545   5.286  66.012  1.00  0.00    -0.149 C  
BRANCH   4   5
HETATM    5  N   UNL     1      -8.696   5.750  67.103  1.00  0.00    -0.109 NA 
HETATM    6  H   UNL     1      -7.923   6.394  66.933  1.00  0.00     0.000 HD 
BRANCH   5   7
HETATM    7  C   UNL     1      -8.978   5.281  68.397  1.00  0.00    -0.108 A  
HETATM    8  C   UNL     1     -10.138   5.632  69.101  1.00  0.00    -0.274 A  
HETATM    9  C   UNL     1     -10.350   5.210  70.413  1.00  0.00    -0.326 A  
HETATM   10  C   UNL     1      -9.387   4.447  71.076  1.00  0.00    -0.216 A  
HETATM   11  C   UNL     1      -8.009   4.530  69.077  1.00  0.00    -0.070 A  
HETATM   12  C   UNL     1      -8.208   4.109  70.403  1.00  0.00    -0.068 A  
BRANCH  10  13
HETATM   13  C   UNL     1      -9.671   4.065  72.483  1.00  0.00    -0.150 C  
HETATM   14  O   UNL     1     -10.668   3.441  72.818  1.00  0.00    -0.134 OA 
BRANCH  13  15
HETATM   15  O   UNL     1      -8.712   4.522  73.320  1.00  0.00    -0.101 OA 
BRANCH  15  16
HETATM   16  C   UNL     1      -8.772   5.935  73.587  1.00  0.00    -0.125 C  
BRANCH  16  17
HETATM   17  C   UNL     1     -10.038   6.302  74.360  1.00  0.00    -0.340 C  
BRANCH  17  18
HETATM   18  O   UNL     1     -10.806   7.235  73.593  1.00  0.00    -0.356 OA 
BRANCH  18  19
HETATM   19  C   UNL     1      -9.984   7.949  72.673  1.00  0.00    -0.266 C  
BRANCH  19  20
HETATM   20  C   UNL     1     -10.831   8.964  71.917  1.00  0.00    -0.363 C  
BRANCH  20  21
HETATM   21  O   UNL     1     -12.162   8.464  71.801  1.00  0.00    -0.295 OA 
BRANCH  21  22
HETATM   22  C   UNL     1     -13.063   9.479  71.367  1.00  0.00    -0.370 C  
BRANCH  22  23
HETATM   23  C   UNL     1     -12.544  10.837  71.823  1.00  0.00    -0.277 C  
BRANCH  23  24
HETATM   24  O   UNL     1     -12.537  11.731  70.713  1.00  0.00    -0.317 OA 
BRANCH  24  25
HETATM   25  C   UNL     1     -12.104  11.075  69.523  1.00  0.00    -0.329 C  
BRANCH  25  26
HETATM   26  C   UNL     1     -11.816  12.120  68.455  1.00  0.00    -0.310 C  
BRANCH  26  27
HETATM   27  O   UNL     1     -11.705  11.473  67.191  1.00  0.00    -0.567 OA 
BRANCH  27  28
HETATM   28  C   UNL     1     -10.478  10.756  67.083  1.00  0.00    -0.237 C  
BRANCH  28  29
HETATM   29  C   UNL     1      -9.642  11.370  65.970  1.00  0.00    -0.221 C  
BRANCH  29  30
HETATM   30  O   UNL     1      -8.298  11.504  66.424  1.00  0.00    -0.172 OA 
BRANCH  30  31
HETATM   31  C   UNL     1      -8.254  11.952  67.776  1.00  0.00    -0.148 C  
BRANCH  31  32
HETATM   32  C   UNL     1      -8.367  13.469  67.799  1.00  0.00    -0.181 C  
BRANCH  32  33
HETATM   33  O   UNL     1      -7.081  14.032  67.562  1.00  0.00    -0.176 OA 
BRANCH  33  34
HETATM   34  C   UNL     1      -7.184  15.390  67.145  1.00  0.00    -0.144 C  
BRANCH  34  35
HETATM   35  C   UNL     1      -7.485  16.258  68.358  1.00  0.00    -0.163 C  
BRANCH  35  36
HETATM   36  O   UNL     1      -8.254  17.384  67.943  1.00  0.00    -0.215 OA 
BRANCH  36  37
HETATM   37  C   UNL     1      -9.620  17.030  67.743  1.00  0.00    -0.244 C  
BRANCH  37  38
HETATM   38  C   UNL     1     -10.425  17.454  68.964  1.00  0.00    -0.285 C  
BRANCH  38  39
HETATM   39  O   UNL     1     -11.339  16.415  69.304  1.00  0.00    -0.300 OA 
BRANCH  39  40
HETATM   40  C   UNL     1     -10.799  15.562  70.313  1.00  0.00    -0.339 C  
BRANCH  40  41
HETATM   41  C   UNL     1     -11.901  15.196  71.298  1.00  0.00    -0.350 C  
BRANCH  41  42
HETATM   42  O   UNL     1     -12.079  16.264  72.226  1.00  0.00    -0.504 OA 
HETATM   43  C   UNL     1     -13.099  15.965  73.169  1.00  0.00    -0.572 C  
ENDBRANCH  41  42
ENDBRANCH  40  41
ENDBRANCH  39  40
ENDBRANCH  38  39
ENDBRANCH  37  38
ENDBRANCH  36  37
ENDBRANCH  35  36
ENDBRANCH  34  35
ENDBRANCH  33  34
ENDBRANCH  32  33
ENDBRANCH  31  32
ENDBRANCH  30  31
ENDBRANCH  29  30
ENDBRANCH  28  29
ENDBRANCH  27  28
ENDBRANCH  26  27
ENDBRANCH  25  26
ENDBRANCH  24  25
ENDBRANCH  23  24
ENDBRANCH  22  23
ENDBRANCH  21  22
ENDBRANCH  20  21
ENDBRANCH  19  20
ENDBRANCH  18  19
ENDBRANCH  17  18
ENDBRANCH  16  17
ENDBRANCH  15  16
ENDBRANCH  13  15
ENDBRANCH  10  13
ENDBRANCH   5   7
ENDBRANCH   4   5
ENDBRANCH   3   4
ENDBRANCH   2   3
TORSDOF 33
ENDMDL
MODEL      133
REMARK 921   NORMALIZED FREE ENERGY PREDICTED BY IDOCK:   -3.33 KCAL/MOL
REMARK 922        TOTAL FREE ENERGY PREDICTED BY IDOCK:  -12.56 KCAL/MOL
REMARK 923 INTER-LIGAND FREE ENERGY PREDICTED BY IDOCK:   -9.80 KCAL/MOL
REMARK 924 INTRA-LIGAND FREE ENERGY PREDICTED BY IDOCK:   -2.75 KCAL/MOL
REMARK 927      BINDING AFFINITY PREDICTED BY RF-SCORE:    0.00 PKD
ROOT
HETATM    1  C   UNL     1      -9.457   2.334  64.463  1.00  0.00    -0.123 C  
HETATM    2  C   UNL     1     -10.284   3.598  64.326  1.00  0.00    -0.223 C  
ENDROOT
BRANCH   2   3
HETATM    3  C   UNL     1     -10.040   4.576  65.478  1.00  0.00    -0.240 C  
BRANCH   3   4
HETATM    4  C   UNL     1      -9.299   3.862  66.603  1.00  0.00    -0.186 C  
BRANCH   4   5
HETATM    5  N   UNL     1      -8.050   4.536  66.940  1.00  0.00    -0.102 NA 
HETATM    6  H   UNL     1      -7.152   4.175  66.617  1.00  0.00     0.000 HD 
BRANCH   5   7
HETATM    7  C   UNL     1      -8.125   5.700  67.722  1.00  0.00    -0.101 A  
HETATM    8  C   UNL     1      -8.505   5.692  69.071  1.00  0.00    -0.102 A  
HETATM    9  C   UNL     1      -8.642   6.874  69.798  1.00  0.00    -0.141 A  
HETATM   10  C   UNL     1      -8.435   8.110  69.184  1.00  0.00    -0.135 A  
HETATM   11  C   UNL     1      -7.937   6.948  67.110  1.00  0.00    -0.113 A  
HETATM   12  C   UNL     1      -8.083   8.145  67.830  1.00  0.00    -0.128 A  
BRANCH  10  13
HETATM   13  C   UNL     1      -8.634   9.325  70.016  1.00  0.00    -0.182 C  
HETATM   14  O   UNL     1      -9.586  10.080  69.881  1.00  0.00    -0.226 OA 
BRANCH  13  15
HETATM   15  O   UNL     1      -7.622   9.486  70.899  1.00  0.00    -0.270 OA 
BRANCH  15  16
HETATM   16  C   UNL     1      -6.358   9.834  70.305  1.00  0.00    -0.085 C  
BRANCH  16  17
HETATM   17  C   UNL     1      -6.154  11.348  70.279  1.00  0.00    -0.145 C  
BRANCH  17  18
HETATM   18  O   UNL     1      -6.518  11.851  68.990  1.00  0.00    -0.072 OA 
BRANCH  18  19
HETATM   19  C   UNL     1      -5.783  11.203  67.954  1.00  0.00    -0.043 C  
BRANCH  19  20
HETATM   20  C   UNL     1      -6.254  11.715  66.600  1.00  0.00    -0.079 C  
BRANCH  20  21
HETATM   21  O   UNL     1      -5.369  11.234  65.588  1.00  0.00    -0.238 OA 
BRANCH  21  22
HETATM   22  C   UNL     1      -5.358   9.810  65.541  1.00  0.00    -0.045 C  
BRANCH  22  23
HETATM   23  C   UNL     1      -5.955   9.349  64.217  1.00  0.00    -0.077 C  
BRANCH  23  24
HETATM   24  O   UNL     1      -7.369   9.231  64.358  1.00  0.00    -0.101 OA 
BRANCH  24  25
HETATM   25  C   UNL     1      -8.051  10.165  63.524  1.00  0.00    -0.162 C  
BRANCH  25  26
HETATM   26  C   UNL     1      -9.404  10.488  64.142  1.00  0.00    -0.267 C  
BRANCH  26  27
HETATM   27  O   UNL     1      -9.966  11.610  63.468  1.00  0.00    -0.337 OA 
BRANCH  27  28
HETATM   28  C   UNL     1     -11.390  11.546  63.458  1.00  0.00    -0.279 C  
BRANCH  28  29
HETATM   29  C   UNL     1     -11.950  12.938  63.706  1.00  0.00    -0.512 C  
BRANCH  29  30
HETATM   30  O   UNL     1     -12.788  12.898  64.859  1.00  0.00    -0.701 OA 
BRANCH  30  31
HETATM   31  C   UNL     1     -12.587  14.046  65.680  1.00  0.00    -0.512 C  
BRANCH  31  32
HETATM   32  C   UNL     1     -11.916  13.615  66.975  1.00  0.00    -0.406 C  
BRANCH  32  33
HETATM   33  O   UNL     1     -10.517  13.858  66.873  1.00  0.00    -0.272 OA 
BRANCH  33  34
HETATM   34  C   UNL     1      -9.994  14.367  68.097  1.00  0.00    -0.223 C  
BRANCH  34  35
HETATM   35  C   UNL     1     -11.018  15.304  68.719  1.00  0.00    -0.260 C  
BRANCH  35  36
HETATM   36  O   UNL     1     -10.484  15.837  69.929  1.00  0.00    -0.287 OA 
BRANCH  36  37
HETATM   37  C   UNL     1     -11.310  15.514  71.044  1.00  0.00    -0.376 C  
BRANCH  37  38
HETATM   38  C   UNL     1     -12.768  15.712  70.654  1.00  0.00    -0.394 C  
BRANCH  38  39
HETATM   39  O   UNL     1     -13.533  14.608  71.129  1.00  0.00    -0.371 OA 
BRANCH  39  40
HETATM   40  C   UNL     1     -12.689  13.583  71.654  1.00  0.00    -0.287 C  
BRANCH  40  41
HETATM   41  C   UNL     1     -13.556  12.480  72.246  1.00  0.00    -0.342 C  
BRANCH  41  42
HETATM   42  O   UNL     1     -13.141  11.220  71.720  1.00  0.00    -0.472 OA 
HETATM   43  C   UNL     1     -12.589  11.359  70.418  1.00  0.00    -0.185 C  
ENDBRANCH  41  42
ENDBRANCH  40  41
ENDBRANCH  39  40
ENDBRANCH  38  39
ENDBRANCH  37  38
ENDBRANCH  36  37
ENDBRANCH  35  36
ENDBRANCH  34  35
ENDBRANCH  33  34
ENDBRANCH  32  33
ENDBRANCH  31  32
ENDBRANCH  30  31
ENDBRANCH  29  30
ENDBRANCH  28  29
ENDBRANCH  27  28
ENDBRANCH  26  27
ENDBRANCH  25  26
ENDBRANCH  24  25
ENDBRANCH  23  24
ENDBRANCH  22  23
ENDBRANCH  21  22
ENDBRANCH  20  21
ENDBRANCH  19  20
ENDBRANCH  18  19
ENDBRANCH  17  18
ENDBRANCH  16  17
ENDBRANCH  15  16
ENDBRANCH  13  15
ENDBRANCH  10  13
ENDBRANCH   5   7
ENDBRANCH   4   5
ENDBRANCH   3   4
ENDBRANCH   2   3
TORSDOF 33
ENDMDL
MODEL      134
REMARK 921   NORMALIZED FREE ENERGY PREDICTED BY IDOCK:   -3.32 KCAL/MOL
REMARK 922        TOTAL FREE ENERGY PREDICTED BY IDOCK:  -12.54 KCAL/MOL
REMARK 923 INTER-LIGAND FREE ENERGY PREDICTED BY IDOCK:  -11.44 KCAL/MOL
REMARK 924 INTRA-LIGAND FREE ENERGY PREDICTED BY IDOCK:   -1.10 KCAL/MOL
REMARK 927      BINDING AFFINITY PREDICTED BY RF-SCORE:    0.00 PKD
ROOT
HETATM    1  C   UNL     1     -13.163  16.075  73.044  1.00  0.00    -0.590 C  
HETATM    2  C   UNL     1     -13.393  14.583  73.187  1.00  0.00    -0.378 C  
ENDROOT
BRANCH   2   3
HETATM    3  C   UNL     1     -13.765  13.926  71.856  1.00  0.00    -0.521 C  
BRANCH   3   4
HETATM    4  C   UNL     1     -13.060  12.579  71.738  1.00  0.00    -0.347 C  
BRANCH   4   5
HETATM    5  N   UNL     1     -12.106  12.565  70.635  1.00  0.00    -0.498 NA 
HETATM    6  H   UNL     1     -11.695  11.691  70.305  1.00  0.00     0.000 HD 
BRANCH   5   7
HETATM    7  C   UNL     1     -11.772  13.793  70.042  1.00  0.00    -0.257 A  
HETATM    8  C   UNL     1     -12.053  14.099  68.704  1.00  0.00    -0.320 A  
HETATM    9  C   UNL     1     -11.640  15.299  68.126  1.00  0.00    -0.344 A  
HETATM   10  C   UNL     1     -10.897  16.221  68.866  1.00  0.00    -0.317 A  
HETATM   11  C   UNL     1     -11.010  14.718  70.771  1.00  0.00     0.008 A  
HETATM   12  C   UNL     1     -10.579  15.925  70.196  1.00  0.00    -0.302 A  
BRANCH  10  13
HETATM   13  C   UNL     1     -10.464  17.460  68.170  1.00  0.00    -0.389 C  
HETATM   14  O   UNL     1     -10.197  18.499  68.758  1.00  0.00    -0.379 OA 
BRANCH  13  15
HETATM   15  O   UNL     1     -10.440  17.287  66.829  1.00  0.00    -0.313 OA 
BRANCH  15  16
HETATM   16  C   UNL     1     -10.503  18.506  66.066  1.00  0.00    -0.400 C  
BRANCH  16  17
HETATM   17  C   UNL     1     -10.435  19.734  66.974  1.00  0.00    -0.469 C  
BRANCH  17  18
HETATM   18  O   UNL     1      -9.350  20.569  66.557  1.00  0.00    -0.258 OA 
BRANCH  18  19
HETATM   19  C   UNL     1      -8.193  19.797  66.243  1.00  0.00    -0.350 C  
BRANCH  19  20
HETATM   20  C   UNL     1      -7.184  19.908  67.378  1.00  0.00    -0.244 C  
BRANCH  20  21
HETATM   21  O   UNL     1      -6.456  18.684  67.473  1.00  0.00    -0.194 OA 
BRANCH  21  22
HETATM   22  C   UNL     1      -6.649  18.061  68.741  1.00  0.00    -0.233 C  
BRANCH  22  23
HETATM   23  C   UNL     1      -6.969  16.586  68.529  1.00  0.00    -0.154 C  
BRANCH  23  24
HETATM   24  O   UNL     1      -7.129  16.339  67.134  1.00  0.00    -0.170 OA 
BRANCH  24  25
HETATM   25  C   UNL     1      -7.879  15.148  66.903  1.00  0.00    -0.075 C  
BRANCH  25  26
HETATM   26  C   UNL     1      -7.851  14.292  68.161  1.00  0.00    -0.139 C  
BRANCH  26  27
HETATM   27  O   UNL     1      -8.874  13.304  68.072  1.00  0.00    -0.175 OA 
BRANCH  27  28
HETATM   28  C   UNL     1      -9.140  12.958  66.715  1.00  0.00    -0.211 C  
BRANCH  28  29
HETATM   29  C   UNL     1      -8.660  11.536  66.463  1.00  0.00    -0.172 C  
BRANCH  29  30
HETATM   30  O   UNL     1      -9.494  10.633  67.184  1.00  0.00    -0.154 OA 
BRANCH  30  31
HETATM   31  C   UNL     1      -9.881   9.529  66.370  1.00  0.00    -0.253 C  
BRANCH  31  32
HETATM   32  C   UNL     1      -8.840   9.332  65.278  1.00  0.00    -0.198 C  
BRANCH  32  33
HETATM   33  O   UNL     1      -8.029   8.209  65.610  1.00  0.00    -0.096 OA 
BRANCH  33  34
HETATM   34  C   UNL     1      -8.788   7.210  66.286  1.00  0.00    -0.148 C  
BRANCH  34  35
HETATM   35  C   UNL     1      -7.915   6.565  67.352  1.00  0.00    -0.113 C  
BRANCH  35  36
HETATM   36  O   UNL     1      -8.748   5.851  68.262  1.00  0.00    -0.113 OA 
BRANCH  36  37
HETATM   37  C   UNL     1      -9.664   6.724  68.917  1.00  0.00    -0.137 C  
BRANCH  37  38
HETATM   38  C   UNL     1     -11.054   6.104  68.878  1.00  0.00    -0.345 C  
BRANCH  38  39
HETATM   39  O   UNL     1     -11.695   6.316  70.132  1.00  0.00    -0.398 OA 
BRANCH  39  40
HETATM   40  C   UNL     1     -10.854   7.044  71.026  1.00  0.00    -0.238 C  
BRANCH  40  41
HETATM   41  C   UNL     1     -11.709   7.658  72.126  1.00  0.00    -0.311 C  
BRANCH  41  42
HETATM   42  O   UNL     1     -12.662   8.545  71.544  1.00  0.00    -0.313 OA 
HETATM   43  C   UNL     1     -13.607   8.993  72.507  1.00  0.00    -0.435 C  
ENDBRANCH  41  42
ENDBRANCH  40  41
ENDBRANCH  39  40
ENDBRANCH  38  39
ENDBRANCH  37  38
ENDBRANCH  36  37
ENDBRANCH  35  36
ENDBRANCH  34  35
ENDBRANCH  33  34
ENDBRANCH  32  33
ENDBRANCH  31  32
ENDBRANCH  30  31
ENDBRANCH  29  30
ENDBRANCH  28  29
ENDBRANCH  27  28
ENDBRANCH  26  27
ENDBRANCH  25  26
ENDBRANCH  24  25
ENDBRANCH  23  24
ENDBRANCH  22  23
ENDBRANCH  21  22
ENDBRANCH  20  21
ENDBRANCH  19  20
ENDBRANCH  18  19
ENDBRANCH  17  18
ENDBRANCH  16  17
ENDBRANCH  15  16
ENDBRANCH  13  15
ENDBRANCH  10  13
ENDBRANCH   5   7
ENDBRANCH   4   5
ENDBRANCH   3   4
ENDBRANCH   2   3
TORSDOF 33
ENDMDL
MODEL      135
REMARK 921   NORMALIZED FREE ENERGY PREDICTED BY IDOCK:   -3.31 KCAL/MOL
REMARK 922        TOTAL FREE ENERGY PREDICTED BY IDOCK:  -12.50 KCAL/MOL
REMARK 923 INTER-LIGAND FREE ENERGY PREDICTED BY IDOCK:  -10.21 KCAL/MOL
REMARK 924 INTRA-LIGAND FREE ENERGY PREDICTED BY IDOCK:   -2.29 KCAL/MOL
REMARK 927      BINDING AFFINITY PREDICTED BY RF-SCORE:    0.00 PKD
ROOT
HETATM    1  C   UNL     1      -5.945   3.183  72.973  1.00  0.00    -0.008 C  
HETATM    2  C   UNL     1      -6.261   3.113  71.491  1.00  0.00    -0.015 C  
ENDROOT
BRANCH   2   3
HETATM    3  C   UNL     1      -6.477   4.501  70.881  1.00  0.00    -0.030 C  
BRANCH   3   4
HETATM    4  C   UNL     1      -7.743   4.492  70.031  1.00  0.00    -0.057 C  
BRANCH   4   5
HETATM    5  N   UNL     1      -8.894   4.005  70.783  1.00  0.00    -0.080 NA 
HETATM    6  H   UNL     1      -8.927   3.049  71.135  1.00  0.00     0.000 HD 
BRANCH   5   7
HETATM    7  C   UNL     1      -9.954   4.898  71.007  1.00  0.00    -0.212 A  
HETATM    8  C   UNL     1     -10.663   5.520  69.970  1.00  0.00    -0.356 A  
HETATM    9  C   UNL     1     -11.660   6.460  70.229  1.00  0.00    -0.451 A  
HETATM   10  C   UNL     1     -11.958   6.833  71.541  1.00  0.00    -0.396 A  
HETATM   11  C   UNL     1     -10.248   5.293  72.320  1.00  0.00    -0.250 A  
HETATM   12  C   UNL     1     -11.244   6.247  72.592  1.00  0.00    -0.302 A  
BRANCH  10  13
HETATM   13  C   UNL     1     -13.009   7.865  71.733  1.00  0.00    -0.325 C  
HETATM   14  O   UNL     1     -14.158   7.731  71.336  1.00  0.00    -0.389 OA 
BRANCH  13  15
HETATM   15  O   UNL     1     -12.518   8.955  72.364  1.00  0.00    -0.375 OA 
BRANCH  15  16
HETATM   16  C   UNL     1     -11.730   9.826  71.531  1.00  0.00    -0.375 C  
BRANCH  16  17
HETATM   17  C   UNL     1     -12.567  10.984  70.989  1.00  0.00    -0.411 C  
BRANCH  17  18
HETATM   18  O   UNL     1     -13.673  11.218  71.867  1.00  0.00    -0.121 OA 
BRANCH  18  19
HETATM   19  C   UNL     1     -13.875  12.612  72.086  1.00  0.00    -0.172 C  
BRANCH  19  20
HETATM   20  C   UNL     1     -12.629  13.378  71.664  1.00  0.00    -0.187 C  
BRANCH  20  21
HETATM   21  O   UNL     1     -12.435  14.477  72.553  1.00  0.00    -0.315 OA 
BRANCH  21  22
HETATM   22  C   UNL     1     -11.323  15.277  72.159  1.00  0.00    -0.323 C  
BRANCH  22  23
HETATM   23  C   UNL     1     -11.705  16.091  70.929  1.00  0.00    -0.402 C  
BRANCH  23  24
HETATM   24  O   UNL     1     -10.734  15.876  69.907  1.00  0.00    -0.282 OA 
BRANCH  24  25
HETATM   25  C   UNL     1     -11.340  15.855  68.616  1.00  0.00    -0.376 C  
BRANCH  25  26
HETATM   26  C   UNL     1     -10.649  16.877  67.725  1.00  0.00    -0.340 C  
BRANCH  26  27
HETATM   27  O   UNL     1      -9.354  16.392  67.382  1.00  0.00    -0.218 OA 
BRANCH  27  28
HETATM   28  C   UNL     1      -9.429  15.393  66.368  1.00  0.00    -0.296 C  
BRANCH  28  29
HETATM   29  C   UNL     1     -10.453  15.819  65.327  1.00  0.00    -0.401 C  
BRANCH  29  30
HETATM   30  O   UNL     1     -11.243  14.690  64.967  1.00  0.00    -0.347 OA 
BRANCH  30  31
HETATM   31  C   UNL     1     -10.432  13.634  64.459  1.00  0.00    -0.390 C  
BRANCH  31  32
HETATM   32  C   UNL     1     -11.321  12.622  63.753  1.00  0.00    -0.467 C  
BRANCH  32  33
HETATM   33  O   UNL     1     -10.975  11.314  64.198  1.00  0.00    -0.372 OA 
BRANCH  33  34
HETATM   34  C   UNL     1      -9.892  10.785  63.439  1.00  0.00    -0.349 C  
BRANCH  34  35
HETATM   35  C   UNL     1      -9.305   9.594  64.183  1.00  0.00    -0.084 C  
BRANCH  35  36
HETATM   36  O   UNL     1      -7.923   9.838  64.432  1.00  0.00    -0.130 OA 
BRANCH  36  37
HETATM   37  C   UNL     1      -7.742  10.638  65.597  1.00  0.00    -0.109 C  
BRANCH  37  38
HETATM   38  C   UNL     1      -7.780   9.740  66.825  1.00  0.00    -0.098 C  
BRANCH  38  39
HETATM   39  O   UNL     1      -6.469   9.643  67.373  1.00  0.00    -0.067 OA 
BRANCH  39  40
HETATM   40  C   UNL     1      -6.508   9.580  68.799  1.00  0.00    -0.047 C  
BRANCH  40  41
HETATM   41  C   UNL     1      -7.754   8.817  69.229  1.00  0.00    -0.095 C  
BRANCH  41  42
HETATM   42  O   UNL     1      -8.020   9.084  70.604  1.00  0.00    -0.108 OA 
HETATM   43  C   UNL     1      -7.771   7.941  71.410  1.00  0.00    -0.084 C  
ENDBRANCH  41  42
ENDBRANCH  40  41
ENDBRANCH  39  40
ENDBRANCH  38  39
ENDBRANCH  37  38
ENDBRANCH  36  37
ENDBRANCH  35  36
ENDBRANCH  34  35
ENDBRANCH  33  34
ENDBRANCH  32  33
ENDBRANCH  31  32
ENDBRANCH  30  31
ENDBRANCH  29  30
ENDBRANCH  28  29
ENDBRANCH  27  28
ENDBRANCH  26  27
ENDBRANCH  25  26
ENDBRANCH  24  25
ENDBRANCH  23  24
ENDBRANCH  22  23
ENDBRANCH  21  22
ENDBRANCH  20  21
ENDBRANCH  19  20
ENDBRANCH  18  19
ENDBRANCH  17  18
ENDBRANCH  16  17
ENDBRANCH  15  16
ENDBRANCH  13  15
ENDBRANCH  10  13
ENDBRANCH   5   7
ENDBRANCH   4   5
ENDBRANCH   3   4
ENDBRANCH   2   3
TORSDOF 33
ENDMDL
MODEL      136
REMARK 921   NORMALIZED FREE ENERGY PREDICTED BY IDOCK:   -3.31 KCAL/MOL
REMARK 922        TOTAL FREE ENERGY PREDICTED BY IDOCK:  -12.49 KCAL/MOL
REMARK 923 INTER-LIGAND FREE ENERGY PREDICTED BY IDOCK:  -10.29 KCAL/MOL
REMARK 924 INTRA-LIGAND FREE ENERGY PREDICTED BY IDOCK:   -2.20 KCAL/MOL
REMARK 927      BINDING AFFINITY PREDICTED BY RF-SCORE:    0.00 PKD
ROOT
HETATM    1  C   UNL     1     -12.519  13.626  63.571  1.00  0.00    -0.152 C  
HETATM    2  C   UNL     1     -12.219  12.145  63.438  1.00  0.00    -0.635 C  
ENDROOT
BRANCH   2   3
HETATM    3  C   UNL     1     -11.585  11.567  64.706  1.00  0.00    -0.086 C  
BRANCH   3   4
HETATM    4  C   UNL     1     -11.919  12.461  65.895  1.00  0.00    -0.367 C  
BRANCH   4   5
HETATM    5  N   UNL     1     -10.790  12.587  66.809  1.00  0.00    -0.243 NA 
HETATM    6  H   UNL     1     -10.617  11.888  67.532  1.00  0.00     0.000 HD 
BRANCH   5   7
HETATM    7  C   UNL     1      -9.949  13.702  66.662  1.00  0.00    -0.283 A  
HETATM    8  C   UNL     1      -8.766  13.870  67.394  1.00  0.00    -0.208 A  
HETATM    9  C   UNL     1      -7.993  15.025  67.278  1.00  0.00    -0.234 A  
HETATM   10  C   UNL     1      -8.402  16.069  66.446  1.00  0.00    -0.344 A  
HETATM   11  C   UNL     1     -10.360  14.763  65.843  1.00  0.00    -0.335 A  
HETATM   12  C   UNL     1      -9.595  15.936  65.727  1.00  0.00    -0.339 A  
BRANCH  10  13
HETATM   13  C   UNL     1      -7.543  17.280  66.402  1.00  0.00    -0.314 C  
HETATM   14  O   UNL     1      -7.147  17.782  65.360  1.00  0.00    -0.382 OA 
BRANCH  13  15
HETATM   15  O   UNL     1      -7.246  17.716  67.647  1.00  0.00    -0.174 OA 
BRANCH  15  16
HETATM   16  C   UNL     1      -7.826  18.988  67.992  1.00  0.00    -0.287 C  
BRANCH  16  17
HETATM   17  C   UNL     1      -9.352  18.941  67.917  1.00  0.00    -0.299 C  
BRANCH  17  18
HETATM   18  O   UNL     1      -9.884  18.780  69.236  1.00  0.00    -0.266 OA 
BRANCH  18  19
HETATM   19  C   UNL     1     -10.161  17.411  69.519  1.00  0.00    -0.014 C  
BRANCH  19  20
HETATM   20  C   UNL     1     -11.156  16.872  68.499  1.00  0.00    -0.213 C  
BRANCH  20  21
HETATM   21  O   UNL     1     -11.991  15.904  69.132  1.00  0.00    -0.380 OA 
BRANCH  21  22
HETATM   22  C   UNL     1     -11.257  15.111  70.063  1.00  0.00    -0.277 C  
BRANCH  22  23
HETATM   23  C   UNL     1     -11.891  13.729  70.150  1.00  0.00    -0.290 C  
BRANCH  23  24
HETATM   24  O   UNL     1     -12.626  13.629  71.369  1.00  0.00    -0.349 OA 
BRANCH  24  25
HETATM   25  C   UNL     1     -12.836  12.267  71.734  1.00  0.00    -0.254 C  
BRANCH  25  26
HETATM   26  C   UNL     1     -12.205  11.367  70.681  1.00  0.00    -0.389 C  
BRANCH  26  27
HETATM   27  O   UNL     1     -12.715  10.045  70.835  1.00  0.00    -0.329 OA 
BRANCH  27  28
HETATM   28  C   UNL     1     -11.726   9.070  70.511  1.00  0.00    -0.126 C  
BRANCH  28  29
HETATM   29  C   UNL     1     -10.663   9.061  71.599  1.00  0.00    -0.371 C  
BRANCH  29  30
HETATM   30  O   UNL     1     -11.061   8.154  72.624  1.00  0.00    -0.365 OA 
BRANCH  30  31
HETATM   31  C   UNL     1     -10.270   6.968  72.597  1.00  0.00    -0.194 C  
BRANCH  31  32
HETATM   32  C   UNL     1     -10.628   6.108  73.799  1.00  0.00    -0.244 C  
BRANCH  32  33
HETATM   33  O   UNL     1     -10.055   4.815  73.628  1.00  0.00    -0.149 OA 
BRANCH  33  34
HETATM   34  C   UNL     1     -10.678   4.116  72.554  1.00  0.00    -0.025 C  
BRANCH  34  35
HETATM   35  C   UNL     1      -9.619   3.326  71.800  1.00  0.00    -0.156 C  
BRANCH  35  36
HETATM   36  O   UNL     1      -9.058   4.156  70.785  1.00  0.00    -0.096 OA 
BRANCH  36  37
HETATM   37  C   UNL     1      -9.968   4.334  69.703  1.00  0.00    -0.079 C  
BRANCH  37  38
HETATM   38  C   UNL     1      -9.786   5.732  69.129  1.00  0.00    -0.147 C  
BRANCH  38  39
HETATM   39  O   UNL     1     -10.794   5.969  68.151  1.00  0.00    -0.275 OA 
BRANCH  39  40
HETATM   40  C   UNL     1     -10.236   6.036  66.839  1.00  0.00    -0.210 C  
BRANCH  40  41
HETATM   41  C   UNL     1     -10.770   4.875  66.011  1.00  0.00    -0.190 C  
BRANCH  41  42
HETATM   42  O   UNL     1      -9.937   4.686  64.869  1.00  0.00    -0.095 OA 
HETATM   43  C   UNL     1      -8.882   3.776  65.144  1.00  0.00    -0.123 C  
ENDBRANCH  41  42
ENDBRANCH  40  41
ENDBRANCH  39  40
ENDBRANCH  38  39
ENDBRANCH  37  38
ENDBRANCH  36  37
ENDBRANCH  35  36
ENDBRANCH  34  35
ENDBRANCH  33  34
ENDBRANCH  32  33
ENDBRANCH  31  32
ENDBRANCH  30  31
ENDBRANCH  29  30
ENDBRANCH  28  29
ENDBRANCH  27  28
ENDBRANCH  26  27
ENDBRANCH  25  26
ENDBRANCH  24  25
ENDBRANCH  23  24
ENDBRANCH  22  23
ENDBRANCH  21  22
ENDBRANCH  20  21
ENDBRANCH  19  20
ENDBRANCH  18  19
ENDBRANCH  17  18
ENDBRANCH  16  17
ENDBRANCH  15  16
ENDBRANCH  13  15
ENDBRANCH  10  13
ENDBRANCH   5   7
ENDBRANCH   4   5
ENDBRANCH   3   4
ENDBRANCH   2   3
TORSDOF 33
ENDMDL
MODEL      137
REMARK 921   NORMALIZED FREE ENERGY PREDICTED BY IDOCK:   -3.31 KCAL/MOL
REMARK 922        TOTAL FREE ENERGY PREDICTED BY IDOCK:  -12.49 KCAL/MOL
REMARK 923 INTER-LIGAND FREE ENERGY PREDICTED BY IDOCK:   -9.60 KCAL/MOL
REMARK 924 INTRA-LIGAND FREE ENERGY PREDICTED BY IDOCK:   -2.89 KCAL/MOL
REMARK 927      BINDING AFFINITY PREDICTED BY RF-SCORE:    0.00 PKD
ROOT
HETATM    1  C   UNL     1      -5.934  14.216  70.163  1.00  0.00    -0.151 C  
HETATM    2  C   UNL     1      -5.734  13.234  69.025  1.00  0.00    -0.076 C  
ENDROOT
BRANCH   2   3
HETATM    3  C   UNL     1      -7.039  12.542  68.622  1.00  0.00    -0.100 C  
BRANCH   3   4
HETATM    4  C   UNL     1      -6.898  11.036  68.819  1.00  0.00    -0.073 C  
BRANCH   4   5
HETATM    5  N   UNL     1      -7.268  10.632  70.170  1.00  0.00    -0.428 NA 
HETATM    6  H   UNL     1      -6.792  11.019  70.985  1.00  0.00     0.000 HD 
BRANCH   5   7
HETATM    7  C   UNL     1      -8.301   9.692  70.313  1.00  0.00    -0.186 A  
HETATM    8  C   UNL     1      -8.164   8.509  71.052  1.00  0.00    -0.163 A  
HETATM    9  C   UNL     1      -9.185   7.561  71.109  1.00  0.00    -0.151 A  
HETATM   10  C   UNL     1     -10.370   7.753  70.396  1.00  0.00    -0.212 A  
HETATM   11  C   UNL     1      -9.488   9.867  69.586  1.00  0.00    -0.252 A  
HETATM   12  C   UNL     1     -10.519   8.913  69.628  1.00  0.00    -0.218 A  
BRANCH  10  13
HETATM   13  C   UNL     1     -11.396   6.683  70.481  1.00  0.00    -0.358 C  
HETATM   14  O   UNL     1     -12.443   6.807  71.101  1.00  0.00    -0.367 OA 
BRANCH  13  15
HETATM   15  O   UNL     1     -11.002   5.572  69.818  1.00  0.00    -0.310 OA 
BRANCH  15  16
HETATM   16  C   UNL     1     -10.846   5.744  68.398  1.00  0.00    -0.174 C  
BRANCH  16  17
HETATM   17  C   UNL     1      -9.413   5.448  67.956  1.00  0.00    -0.118 C  
BRANCH  17  18
HETATM   18  O   UNL     1      -8.810   6.653  67.473  1.00  0.00    -0.118 OA 
BRANCH  18  19
HETATM   19  C   UNL     1      -8.211   6.455  66.194  1.00  0.00    -0.122 C  
BRANCH  19  20
HETATM   20  C   UNL     1      -8.051   7.799  65.496  1.00  0.00    -0.128 C  
BRANCH  20  21
HETATM   21  O   UNL     1      -8.668   8.812  66.289  1.00  0.00    -0.132 OA 
BRANCH  21  22
HETATM   22  C   UNL     1      -9.690   9.490  65.563  1.00  0.00    -0.273 C  
BRANCH  22  23
HETATM   23  C   UNL     1      -9.272  10.940  65.348  1.00  0.00    -0.207 C  
BRANCH  23  24
HETATM   24  O   UNL     1     -10.429  11.722  65.060  1.00  0.00    -0.261 OA 
BRANCH  24  25
HETATM   25  C   UNL     1     -10.490  12.879  65.891  1.00  0.00    -0.279 C  
BRANCH  25  26
HETATM   26  C   UNL     1     -10.564  12.443  67.347  1.00  0.00    -0.216 C  
BRANCH  26  27
HETATM   27  O   UNL     1     -11.855  12.759  67.860  1.00  0.00    -0.351 OA 
BRANCH  27  28
HETATM   28  C   UNL     1     -11.863  12.736  69.286  1.00  0.00    -0.303 C  
BRANCH  28  29
HETATM   29  C   UNL     1     -11.817  14.165  69.804  1.00  0.00    -0.322 C  
BRANCH  29  30
HETATM   30  O   UNL     1     -11.932  15.060  68.701  1.00  0.00    -0.313 OA 
BRANCH  30  31
HETATM   31  C   UNL     1     -11.036  16.160  68.836  1.00  0.00    -0.347 C  
BRANCH  31  32
HETATM   32  C   UNL     1      -9.740  15.669  69.462  1.00  0.00    -0.287 C  
BRANCH  32  33
HETATM   33  O   UNL     1      -8.642  16.212  68.736  1.00  0.00    -0.210 OA 
BRANCH  33  34
HETATM   34  C   UNL     1      -8.625  15.731  67.395  1.00  0.00    -0.175 C  
BRANCH  34  35
HETATM   35  C   UNL     1      -7.212  15.852  66.845  1.00  0.00    -0.138 C  
BRANCH  35  36
HETATM   36  O   UNL     1      -7.147  16.980  65.976  1.00  0.00    -0.200 OA 
BRANCH  36  37
HETATM   37  C   UNL     1      -5.896  17.652  66.096  1.00  0.00    -0.210 C  
BRANCH  37  38
HETATM   38  C   UNL     1      -6.140  19.064  66.610  1.00  0.00    -0.166 C  
BRANCH  38  39
HETATM   39  O   UNL     1      -7.439  19.489  66.207  1.00  0.00    -0.249 OA 
BRANCH  39  40
HETATM   40  C   UNL     1      -8.346  19.495  67.309  1.00  0.00    -0.293 C  
BRANCH  40  41
HETATM   41  C   UNL     1      -9.412  20.556  67.071  1.00  0.00    -0.375 C  
BRANCH  41  42
HETATM   42  O   UNL     1     -10.411  20.458  68.084  1.00  0.00    -0.251 OA 
HETATM   43  C   UNL     1      -9.954  19.689  69.188  1.00  0.00    -0.339 C  
ENDBRANCH  41  42
ENDBRANCH  40  41
ENDBRANCH  39  40
ENDBRANCH  38  39
ENDBRANCH  37  38
ENDBRANCH  36  37
ENDBRANCH  35  36
ENDBRANCH  34  35
ENDBRANCH  33  34
ENDBRANCH  32  33
ENDBRANCH  31  32
ENDBRANCH  30  31
ENDBRANCH  29  30
ENDBRANCH  28  29
ENDBRANCH  27  28
ENDBRANCH  26  27
ENDBRANCH  25  26
ENDBRANCH  24  25
ENDBRANCH  23  24
ENDBRANCH  22  23
ENDBRANCH  21  22
ENDBRANCH  20  21
ENDBRANCH  19  20
ENDBRANCH  18  19
ENDBRANCH  17  18
ENDBRANCH  16  17
ENDBRANCH  15  16
ENDBRANCH  13  15
ENDBRANCH  10  13
ENDBRANCH   5   7
ENDBRANCH   4   5
ENDBRANCH   3   4
ENDBRANCH   2   3
TORSDOF 33
ENDMDL
MODEL      138
REMARK 921   NORMALIZED FREE ENERGY PREDICTED BY IDOCK:   -3.30 KCAL/MOL
REMARK 922        TOTAL FREE ENERGY PREDICTED BY IDOCK:  -12.46 KCAL/MOL
REMARK 923 INTER-LIGAND FREE ENERGY PREDICTED BY IDOCK:  -10.42 KCAL/MOL
REMARK 924 INTRA-LIGAND FREE ENERGY PREDICTED BY IDOCK:   -2.04 KCAL/MOL
REMARK 927      BINDING AFFINITY PREDICTED BY RF-SCORE:    0.00 PKD
ROOT
HETATM    1  C   UNL     1      -8.190   9.749  63.796  1.00  0.00    -0.162 C  
HETATM    2  C   UNL     1      -7.790   8.363  64.266  1.00  0.00    -0.143 C  
ENDROOT
BRANCH   2   3
HETATM    3  C   UNL     1      -7.726   7.358  63.113  1.00  0.00    -0.128 C  
BRANCH   3   4
HETATM    4  C   UNL     1      -7.688   5.941  63.675  1.00  0.00    -0.099 C  
BRANCH   4   5
HETATM    5  N   UNL     1      -8.983   5.540  64.213  1.00  0.00    -0.344 NA 
HETATM    6  H   UNL     1      -9.840   5.668  63.676  1.00  0.00     0.000 HD 
BRANCH   5   7
HETATM    7  C   UNL     1      -9.010   4.970  65.497  1.00  0.00    -0.151 A  
HETATM    8  C   UNL     1      -9.179   3.597  65.721  1.00  0.00    -0.159 A  
HETATM    9  C   UNL     1      -9.278   3.075  67.010  1.00  0.00    -0.190 A  
HETATM   10  C   UNL     1      -9.244   3.920  68.121  1.00  0.00    -0.207 A  
HETATM   11  C   UNL     1      -8.996   5.812  66.618  1.00  0.00    -0.123 A  
HETATM   12  C   UNL     1      -9.105   5.298  67.921  1.00  0.00    -0.117 A  
BRANCH  10  13
HETATM   13  C   UNL     1      -9.390   3.291  69.458  1.00  0.00    -0.165 C  
HETATM   14  O   UNL     1      -9.401   2.081  69.631  1.00  0.00    -0.106 OA 
BRANCH  13  15
HETATM   15  O   UNL     1      -9.535   4.224  70.426  1.00  0.00    -0.140 OA 
BRANCH  15  16
HETATM   16  C   UNL     1      -8.550   4.160  71.474  1.00  0.00    -0.106 C  
BRANCH  16  17
HETATM   17  C   UNL     1      -7.635   5.384  71.453  1.00  0.00    -0.102 C  
BRANCH  17  18
HETATM   18  O   UNL     1      -8.403   6.553  71.759  1.00  0.00    -0.115 OA 
BRANCH  18  19
HETATM   19  C   UNL     1      -8.506   6.750  73.167  1.00  0.00    -0.118 C  
BRANCH  19  20
HETATM   20  C   UNL     1      -9.913   7.218  73.514  1.00  0.00    -0.320 C  
BRANCH  20  21
HETATM   21  O   UNL     1     -10.740   6.077  73.739  1.00  0.00    -0.261 OA 
BRANCH  21  22
HETATM   22  C   UNL     1     -11.734   5.946  72.725  1.00  0.00    -0.135 C  
BRANCH  22  23
HETATM   23  C   UNL     1     -11.925   7.291  72.036  1.00  0.00    -0.296 C  
BRANCH  23  24
HETATM   24  O   UNL     1     -12.980   7.181  71.083  1.00  0.00    -0.366 OA 
BRANCH  24  25
HETATM   25  C   UNL     1     -14.209   7.671  71.615  1.00  0.00    -0.454 C  
BRANCH  25  26
HETATM   26  C   UNL     1     -13.973   9.042  72.232  1.00  0.00    -0.455 C  
BRANCH  26  27
HETATM   27  O   UNL     1     -13.867  10.008  71.190  1.00  0.00    -0.153 OA 
BRANCH  27  28
HETATM   28  C   UNL     1     -12.912  11.015  71.516  1.00  0.00    -0.448 C  
BRANCH  28  29
HETATM   29  C   UNL     1     -12.408  11.654  70.231  1.00  0.00    -0.258 C  
BRANCH  29  30
HETATM   30  O   UNL     1     -12.552  10.720  69.164  1.00  0.00    -0.312 OA 
BRANCH  30  31
HETATM   31  C   UNL     1     -11.282  10.281  68.691  1.00  0.00    -0.208 C  
BRANCH  31  32
HETATM   32  C   UNL     1     -11.016  10.910  67.332  1.00  0.00    -0.293 C  
BRANCH  32  33
HETATM   33  O   UNL     1     -11.979  11.933  67.100  1.00  0.00    -0.611 OA 
BRANCH  33  34
HETATM   34  C   UNL     1     -11.823  12.501  65.803  1.00  0.00    -0.437 C  
BRANCH  34  35
HETATM   35  C   UNL     1     -10.931  13.729  65.905  1.00  0.00    -0.283 C  
BRANCH  35  36
HETATM   36  O   UNL     1     -11.643  14.764  66.579  1.00  0.00    -0.355 OA 
BRANCH  36  37
HETATM   37  C   UNL     1     -11.057  15.054  67.845  1.00  0.00    -0.307 C  
BRANCH  37  38
HETATM   38  C   UNL     1     -10.376  16.413  67.776  1.00  0.00    -0.287 C  
BRANCH  38  39
HETATM   39  O   UNL     1      -9.320  16.358  66.821  1.00  0.00    -0.224 OA 
BRANCH  39  40
HETATM   40  C   UNL     1      -8.079  16.761  67.400  1.00  0.00    -0.170 C  
BRANCH  40  41
HETATM   41  C   UNL     1      -7.167  17.292  66.302  1.00  0.00    -0.300 C  
BRANCH  41  42
HETATM   42  O   UNL     1      -7.821  18.362  65.622  1.00  0.00    -0.505 OA 
HETATM   43  C   UNL     1      -7.797  19.556  66.392  1.00  0.00    -0.306 C  
ENDBRANCH  41  42
ENDBRANCH  40  41
ENDBRANCH  39  40
ENDBRANCH  38  39
ENDBRANCH  37  38
ENDBRANCH  36  37
ENDBRANCH  35  36
ENDBRANCH  34  35
ENDBRANCH  33  34
ENDBRANCH  32  33
ENDBRANCH  31  32
ENDBRANCH  30  31
ENDBRANCH  29  30
ENDBRANCH  28  29
ENDBRANCH  27  28
ENDBRANCH  26  27
ENDBRANCH  25  26
ENDBRANCH  24  25
ENDBRANCH  23  24
ENDBRANCH  22  23
ENDBRANCH  21  22
ENDBRANCH  20  21
ENDBRANCH  19  20
ENDBRANCH  18  19
ENDBRANCH  17  18
ENDBRANCH  16  17
ENDBRANCH  15  16
ENDBRANCH  13  15
ENDBRANCH  10  13
ENDBRANCH   5   7
ENDBRANCH   4   5
ENDBRANCH   3   4
ENDBRANCH   2   3
TORSDOF 33
ENDMDL
MODEL      139
REMARK 921   NORMALIZED FREE ENERGY PREDICTED BY IDOCK:   -3.28 KCAL/MOL
REMARK 922        TOTAL FREE ENERGY PREDICTED BY IDOCK:  -12.39 KCAL/MOL
REMARK 923 INTER-LIGAND FREE ENERGY PREDICTED BY IDOCK:   -9.54 KCAL/MOL
REMARK 924 INTRA-LIGAND FREE ENERGY PREDICTED BY IDOCK:   -2.86 KCAL/MOL
REMARK 927      BINDING AFFINITY PREDICTED BY RF-SCORE:    0.00 PKD
ROOT
HETATM    1  C   UNL     1     -11.059   5.748  72.849  1.00  0.00    -0.321 C  
HETATM    2  C   UNL     1     -11.979   6.597  71.992  1.00  0.00    -0.361 C  
ENDROOT
BRANCH   2   3
HETATM    3  C   UNL     1     -11.926   8.077  72.379  1.00  0.00    -0.405 C  
BRANCH   3   4
HETATM    4  C   UNL     1     -13.128   8.802  71.783  1.00  0.00    -0.363 C  
BRANCH   4   5
HETATM    5  N   UNL     1     -13.351  10.094  72.424  1.00  0.00    -0.587 NA 
HETATM    6  H   UNL     1     -13.726  10.154  73.370  1.00  0.00     0.000 HD 
BRANCH   5   7
HETATM    7  C   UNL     1     -13.031  11.250  71.695  1.00  0.00    -0.432 A  
HETATM    8  C   UNL     1     -12.184  11.241  70.579  1.00  0.00    -0.474 A  
HETATM    9  C   UNL     1     -11.826  12.420  69.924  1.00  0.00    -0.376 A  
HETATM   10  C   UNL     1     -12.282  13.654  70.389  1.00  0.00    -0.434 A  
HETATM   11  C   UNL     1     -13.469  12.497  72.165  1.00  0.00    -0.523 A  
HETATM   12  C   UNL     1     -13.106  13.691  71.520  1.00  0.00    -0.431 A  
BRANCH  10  13
HETATM   13  C   UNL     1     -11.831  14.866  69.658  1.00  0.00    -0.318 C  
HETATM   14  O   UNL     1     -12.259  15.987  69.893  1.00  0.00    -0.255 OA 
BRANCH  13  15
HETATM   15  O   UNL     1     -10.927  14.554  68.702  1.00  0.00    -0.234 OA 
BRANCH  15  16
HETATM   16  C   UNL     1     -11.150  15.196  67.433  1.00  0.00    -0.325 C  
BRANCH  16  17
HETATM   17  C   UNL     1     -10.570  16.611  67.417  1.00  0.00    -0.295 C  
BRANCH  17  18
HETATM   18  O   UNL     1      -9.411  16.636  66.578  1.00  0.00    -0.236 OA 
BRANCH  18  19
HETATM   19  C   UNL     1      -8.214  16.689  67.351  1.00  0.00    -0.169 C  
BRANCH  19  20
HETATM   20  C   UNL     1      -7.391  15.432  67.101  1.00  0.00    -0.168 C  
BRANCH  20  21
HETATM   21  O   UNL     1      -7.628  14.504  68.158  1.00  0.00    -0.106 OA 
BRANCH  21  22
HETATM   22  C   UNL     1      -6.425  13.854  68.561  1.00  0.00    -0.093 C  
BRANCH  22  23
HETATM   23  C   UNL     1      -6.516  12.374  68.213  1.00  0.00    -0.061 C  
BRANCH  23  24
HETATM   24  O   UNL     1      -5.887  12.150  66.953  1.00  0.00    -0.234 OA 
BRANCH  24  25
HETATM   25  C   UNL     1      -6.551  11.124  66.219  1.00  0.00    -0.069 C  
BRANCH  25  26
HETATM   26  C   UNL     1      -7.912  10.864  66.848  1.00  0.00    -0.138 C  
BRANCH  26  27
HETATM   27  O   UNL     1      -8.893  10.787  65.817  1.00  0.00    -0.177 OA 
BRANCH  27  28
HETATM   28  C   UNL     1      -9.819   9.732  66.064  1.00  0.00    -0.274 C  
BRANCH  28  29
HETATM   29  C   UNL     1      -9.057   8.504  66.537  1.00  0.00    -0.176 C  
BRANCH  29  30
HETATM   30  O   UNL     1      -9.823   7.845  67.542  1.00  0.00    -0.150 OA 
BRANCH  30  31
HETATM   31  C   UNL     1     -10.291   8.768  68.521  1.00  0.00    -0.199 C  
BRANCH  31  32
HETATM   32  C   UNL     1      -9.466   8.606  69.788  1.00  0.00    -0.166 C  
BRANCH  32  33
HETATM   33  O   UNL     1      -8.688   7.418  69.684  1.00  0.00    -0.136 OA 
BRANCH  33  34
HETATM   34  C   UNL     1      -7.365   7.627  70.171  1.00  0.00    -0.076 C  
BRANCH  34  35
HETATM   35  C   UNL     1      -6.463   6.525  69.637  1.00  0.00    -0.047 C  
BRANCH  35  36
HETATM   36  O   UNL     1      -7.024   6.010  68.432  1.00  0.00    -0.071 OA 
BRANCH  36  37
HETATM   37  C   UNL     1      -6.381   4.800  68.039  1.00  0.00    -0.037 C  
BRANCH  37  38
HETATM   38  C   UNL     1      -7.121   4.210  66.848  1.00  0.00    -0.067 C  
BRANCH  38  39
HETATM   39  O   UNL     1      -7.861   3.070  67.276  1.00  0.00    -0.073 OA 
BRANCH  39  40
HETATM   40  C   UNL     1      -9.173   3.436  67.703  1.00  0.00    -0.190 C  
BRANCH  40  41
HETATM   41  C   UNL     1      -9.421   2.865  69.093  1.00  0.00    -0.084 C  
BRANCH  41  42
HETATM   42  O   UNL     1      -9.346   3.914  70.056  1.00  0.00    -0.140 OA 
HETATM   43  C   UNL     1      -8.406   3.612  71.078  1.00  0.00    -0.067 C  
ENDBRANCH  41  42
ENDBRANCH  40  41
ENDBRANCH  39  40
ENDBRANCH  38  39
ENDBRANCH  37  38
ENDBRANCH  36  37
ENDBRANCH  35  36
ENDBRANCH  34  35
ENDBRANCH  33  34
ENDBRANCH  32  33
ENDBRANCH  31  32
ENDBRANCH  30  31
ENDBRANCH  29  30
ENDBRANCH  28  29
ENDBRANCH  27  28
ENDBRANCH  26  27
ENDBRANCH  25  26
ENDBRANCH  24  25
ENDBRANCH  23  24
ENDBRANCH  22  23
ENDBRANCH  21  22
ENDBRANCH  20  21
ENDBRANCH  19  20
ENDBRANCH  18  19
ENDBRANCH  17  18
ENDBRANCH  16  17
ENDBRANCH  15  16
ENDBRANCH  13  15
ENDBRANCH  10  13
ENDBRANCH   5   7
ENDBRANCH   4   5
ENDBRANCH   3   4
ENDBRANCH   2   3
TORSDOF 33
ENDMDL
MODEL      140
REMARK 921   NORMALIZED FREE ENERGY PREDICTED BY IDOCK:   -3.26 KCAL/MOL
REMARK 922        TOTAL FREE ENERGY PREDICTED BY IDOCK:  -12.35 KCAL/MOL
REMARK 923 INTER-LIGAND FREE ENERGY PREDICTED BY IDOCK:   -8.70 KCAL/MOL
REMARK 924 INTRA-LIGAND FREE ENERGY PREDICTED BY IDOCK:   -3.65 KCAL/MOL
REMARK 927      BINDING AFFINITY PREDICTED BY RF-SCORE:    0.00 PKD
ROOT
HETATM    1  C   UNL     1     -10.080   3.951  64.502  1.00  0.00    -0.224 C  
HETATM    2  C   UNL     1      -8.756   4.275  65.166  1.00  0.00    -0.126 C  
ENDROOT
BRANCH   2   3
HETATM    3  C   UNL     1      -8.611   3.592  66.529  1.00  0.00    -0.116 C  
BRANCH   3   4
HETATM    4  C   UNL     1      -7.180   3.094  66.699  1.00  0.00    -0.062 C  
BRANCH   4   5
HETATM    5  N   UNL     1      -6.211   4.172  66.536  1.00  0.00    -0.031 NA 
HETATM    6  H   UNL     1      -5.514   4.145  65.792  1.00  0.00     0.000 HD 
BRANCH   5   7
HETATM    7  C   UNL     1      -6.271   5.248  67.436  1.00  0.00    -0.035 A  
HETATM    8  C   UNL     1      -6.387   6.583  67.025  1.00  0.00    -0.041 A  
HETATM    9  C   UNL     1      -6.367   7.633  67.943  1.00  0.00    -0.050 A  
HETATM   10  C   UNL     1      -6.195   7.380  69.305  1.00  0.00    -0.031 A  
HETATM   11  C   UNL     1      -6.080   5.006  68.804  1.00  0.00    -0.030 A  
HETATM   12  C   UNL     1      -6.047   6.057  69.735  1.00  0.00    -0.026 A  
BRANCH  10  13
HETATM   13  C   UNL     1      -6.150   8.553  70.214  1.00  0.00    -0.030 C  
HETATM   14  O   UNL     1      -5.577   8.541  71.295  1.00  0.00    -0.033 OA 
BRANCH  13  15
HETATM   15  O   UNL     1      -6.841   9.598  69.703  1.00  0.00    -0.057 OA 
BRANCH  15  16
HETATM   16  C   UNL     1      -6.389  10.890  70.147  1.00  0.00    -0.149 C  
BRANCH  16  17
HETATM   17  C   UNL     1      -6.835  11.994  69.188  1.00  0.00    -0.090 C  
BRANCH  17  18
HETATM   18  O   UNL     1      -8.062  11.607  68.562  1.00  0.00    -0.143 OA 
BRANCH  18  19
HETATM   19  C   UNL     1      -7.948  11.629  67.141  1.00  0.00    -0.163 C  
BRANCH  19  20
HETATM   20  C   UNL     1      -8.529  10.346  66.564  1.00  0.00    -0.132 C  
BRANCH  20  21
HETATM   21  O   UNL     1      -9.407   9.760  67.524  1.00  0.00    -0.133 OA 
BRANCH  21  22
HETATM   22  C   UNL     1     -10.372   8.916  66.901  1.00  0.00    -0.262 C  
BRANCH  22  23
HETATM   23  C   UNL     1      -9.891   7.472  66.971  1.00  0.00    -0.214 C  
BRANCH  23  24
HETATM   24  O   UNL     1     -11.011   6.617  67.189  1.00  0.00    -0.363 OA 
BRANCH  24  25
HETATM   25  C   UNL     1     -11.027   6.119  68.525  1.00  0.00    -0.320 C  
BRANCH  25  26
HETATM   26  C   UNL     1      -9.634   6.252  69.122  1.00  0.00    -0.135 C  
BRANCH  26  27
HETATM   27  O   UNL     1      -9.559   5.461  70.306  1.00  0.00    -0.160 OA 
BRANCH  27  28
HETATM   28  C   UNL     1      -9.213   6.257  71.436  1.00  0.00    -0.149 C  
BRANCH  28  29
HETATM   29  C   UNL     1     -10.414   6.347  72.366  1.00  0.00    -0.198 C  
BRANCH  29  30
HETATM   30  O   UNL     1     -11.149   7.528  72.057  1.00  0.00    -0.232 OA 
BRANCH  30  31
HETATM   31  C   UNL     1     -12.475   7.214  71.641  1.00  0.00    -0.370 C  
BRANCH  31  32
HETATM   32  C   UNL     1     -13.374   8.411  71.911  1.00  0.00    -0.357 C  
BRANCH  32  33
HETATM   33  O   UNL     1     -12.571   9.585  71.982  1.00  0.00    -0.379 OA 
BRANCH  33  34
HETATM   34  C   UNL     1     -12.814  10.441  70.870  1.00  0.00    -0.392 C  
BRANCH  34  35
HETATM   35  C   UNL     1     -13.036  11.858  71.377  1.00  0.00    -0.284 C  
BRANCH  35  36
HETATM   36  O   UNL     1     -12.075  12.722  70.775  1.00  0.00    -0.331 OA 
BRANCH  36  37
HETATM   37  C   UNL     1     -12.028  12.537  69.363  1.00  0.00    -0.256 C  
BRANCH  37  38
HETATM   38  C   UNL     1     -11.578  13.835  68.708  1.00  0.00    -0.328 C  
BRANCH  38  39
HETATM   39  O   UNL     1     -12.071  13.879  67.372  1.00  0.00    -0.392 OA 
BRANCH  39  40
HETATM   40  C   UNL     1     -11.082  13.439  66.442  1.00  0.00    -0.299 C  
BRANCH  40  41
HETATM   41  C   UNL     1     -11.629  12.254  65.658  1.00  0.00    -0.380 C  
BRANCH  41  42
HETATM   42  O   UNL     1     -12.789  12.661  64.934  1.00  0.00    -0.763 OA 
HETATM   43  C   UNL     1     -12.768  12.164  63.603  1.00  0.00    -0.432 C  
ENDBRANCH  41  42
ENDBRANCH  40  41
ENDBRANCH  39  40
ENDBRANCH  38  39
ENDBRANCH  37  38
ENDBRANCH  36  37
ENDBRANCH  35  36
ENDBRANCH  34  35
ENDBRANCH  33  34
ENDBRANCH  32  33
ENDBRANCH  31  32
ENDBRANCH  30  31
ENDBRANCH  29  30
ENDBRANCH  28  29
ENDBRANCH  27  28
ENDBRANCH  26  27
ENDBRANCH  25  26
ENDBRANCH  24  25
ENDBRANCH  23  24
ENDBRANCH  22  23
ENDBRANCH  21  22
ENDBRANCH  20  21
ENDBRANCH  19  20
ENDBRANCH  18  19
ENDBRANCH  17  18
ENDBRANCH  16  17
ENDBRANCH  15  16
ENDBRANCH  13  15
ENDBRANCH  10  13
ENDBRANCH   5   7
ENDBRANCH   4   5
ENDBRANCH   3   4
ENDBRANCH   2   3
TORSDOF 33
ENDMDL
MODEL      141
REMARK 921   NORMALIZED FREE ENERGY PREDICTED BY IDOCK:   -3.26 KCAL/MOL
REMARK 922        TOTAL FREE ENERGY PREDICTED BY IDOCK:  -12.34 KCAL/MOL
REMARK 923 INTER-LIGAND FREE ENERGY PREDICTED BY IDOCK:   -8.79 KCAL/MOL
REMARK 924 INTRA-LIGAND FREE ENERGY PREDICTED BY IDOCK:   -3.55 KCAL/MOL
REMARK 927      BINDING AFFINITY PREDICTED BY RF-SCORE:    0.00 PKD
ROOT
HETATM    1  C   UNL     1     -10.297   7.706  73.231  1.00  0.00    -0.405 C  
HETATM    2  C   UNL     1     -10.409   8.750  72.136  1.00  0.00    -0.378 C  
ENDROOT
BRANCH   2   3
HETATM    3  C   UNL     1     -11.830   8.850  71.576  1.00  0.00    -0.402 C  
BRANCH   3   4
HETATM    4  C   UNL     1     -12.466   7.465  71.552  1.00  0.00    -0.361 C  
BRANCH   4   5
HETATM    5  N   UNL     1     -12.435   6.880  70.216  1.00  0.00    -0.560 NA 
HETATM    6  H   UNL     1     -13.236   6.957  69.588  1.00  0.00     0.000 HD 
BRANCH   5   7
HETATM    7  C   UNL     1     -11.266   6.209  69.821  1.00  0.00    -0.423 A  
HETATM    8  C   UNL     1     -10.620   5.261  70.626  1.00  0.00    -0.263 A  
HETATM    9  C   UNL     1      -9.419   4.670  70.235  1.00  0.00    -0.240 A  
HETATM   10  C   UNL     1      -8.806   5.037  69.036  1.00  0.00    -0.112 A  
HETATM   11  C   UNL     1     -10.633   6.585  68.627  1.00  0.00    -0.289 A  
HETATM   12  C   UNL     1      -9.418   6.004  68.230  1.00  0.00    -0.117 A  
BRANCH  10  13
HETATM   13  C   UNL     1      -7.512   4.388  68.707  1.00  0.00    -0.060 C  
HETATM   14  O   UNL     1      -6.942   4.536  67.635  1.00  0.00    -0.058 OA 
BRANCH  13  15
HETATM   15  O   UNL     1      -7.082   3.606  69.723  1.00  0.00    -0.041 OA 
BRANCH  15  16
HETATM   16  C   UNL     1      -5.799   3.974  70.262  1.00  0.00    -0.017 C  
BRANCH  16  17
HETATM   17  C   UNL     1      -5.932   4.545  71.674  1.00  0.00    -0.017 C  
BRANCH  17  18
HETATM   18  O   UNL     1      -5.490   5.906  71.676  1.00  0.00    -0.020 OA 
BRANCH  18  19
HETATM   19  C   UNL     1      -6.592   6.809  71.619  1.00  0.00    -0.049 C  
BRANCH  19  20
HETATM   20  C   UNL     1      -6.427   7.737  70.423  1.00  0.00    -0.038 C  
BRANCH  20  21
HETATM   21  O   UNL     1      -5.300   7.313  69.657  1.00  0.00    -0.015 OA 
BRANCH  21  22
HETATM   22  C   UNL     1      -5.500   7.544  68.265  1.00  0.00    -0.027 C  
BRANCH  22  23
HETATM   23  C   UNL     1      -6.592   8.590  68.084  1.00  0.00    -0.061 C  
BRANCH  23  24
HETATM   24  O   UNL     1      -7.079   8.531  66.745  1.00  0.00    -0.072 OA 
BRANCH  24  25
HETATM   25  C   UNL     1      -7.233   9.836  66.193  1.00  0.00    -0.100 C  
BRANCH  25  26
HETATM   26  C   UNL     1      -6.397  10.819  67.001  1.00  0.00    -0.078 C  
BRANCH  26  27
HETATM   27  O   UNL     1      -7.039  12.091  66.992  1.00  0.00    -0.139 OA 
BRANCH  27  28
HETATM   28  C   UNL     1      -8.455  11.955  67.079  1.00  0.00    -0.177 C  
BRANCH  28  29
HETATM   29  C   UNL     1      -8.965  12.804  68.233  1.00  0.00    -0.175 C  
BRANCH  29  30
HETATM   30  O   UNL     1     -10.291  12.395  68.557  1.00  0.00    -0.228 OA 
BRANCH  30  31
HETATM   31  C   UNL     1     -11.207  13.479  68.437  1.00  0.00    -0.278 C  
BRANCH  31  32
HETATM   32  C   UNL     1     -11.345  14.161  69.790  1.00  0.00    -0.204 C  
BRANCH  32  33
HETATM   33  O   UNL     1     -10.775  15.464  69.710  1.00  0.00    -0.253 OA 
BRANCH  33  34
HETATM   34  C   UNL     1     -11.533  16.304  68.844  1.00  0.00    -0.282 C  
BRANCH  34  35
HETATM   35  C   UNL     1     -10.701  17.529  68.494  1.00  0.00    -0.237 C  
BRANCH  35  36
HETATM   36  O   UNL     1      -9.653  17.140  67.610  1.00  0.00    -0.248 OA 
BRANCH  36  37
HETATM   37  C   UNL     1     -10.153  16.879  66.301  1.00  0.00    -0.324 C  
BRANCH  37  38
HETATM   38  C   UNL     1      -9.433  15.666  65.729  1.00  0.00    -0.303 C  
BRANCH  38  39
HETATM   39  O   UNL     1     -10.292  15.006  64.804  1.00  0.00    -0.349 OA 
BRANCH  39  40
HETATM   40  C   UNL     1     -11.663  15.163  65.170  1.00  0.00    -0.179 C  
BRANCH  40  41
HETATM   41  C   UNL     1     -12.399  13.855  64.913  1.00  0.00    -0.420 C  
BRANCH  41  42
HETATM   42  O   UNL     1     -11.585  13.005  64.108  1.00  0.00    -0.361 OA 
HETATM   43  C   UNL     1     -12.376  12.180  63.263  1.00  0.00    -0.436 C  
ENDBRANCH  41  42
ENDBRANCH  40  41
ENDBRANCH  39  40
ENDBRANCH  38  39
ENDBRANCH  37  38
ENDBRANCH  36  37
ENDBRANCH  35  36
ENDBRANCH  34  35
ENDBRANCH  33  34
ENDBRANCH  32  33
ENDBRANCH  31  32
ENDBRANCH  30  31
ENDBRANCH  29  30
ENDBRANCH  28  29
ENDBRANCH  27  28
ENDBRANCH  26  27
ENDBRANCH  25  26
ENDBRANCH  24  25
ENDBRANCH  23  24
ENDBRANCH  22  23
ENDBRANCH  21  22
ENDBRANCH  20  21
ENDBRANCH  19  20
ENDBRANCH  18  19
ENDBRANCH  17  18
ENDBRANCH  16  17
ENDBRANCH  15  16
ENDBRANCH  13  15
ENDBRANCH  10  13
ENDBRANCH   5   7
ENDBRANCH   4   5
ENDBRANCH   3   4
ENDBRANCH   2   3
TORSDOF 33
ENDMDL
MODEL      142
REMARK 921   NORMALIZED FREE ENERGY PREDICTED BY IDOCK:   -3.25 KCAL/MOL
REMARK 922        TOTAL FREE ENERGY PREDICTED BY IDOCK:  -12.33 KCAL/MOL
REMARK 923 INTER-LIGAND FREE ENERGY PREDICTED BY IDOCK:   -9.89 KCAL/MOL
REMARK 924 INTRA-LIGAND FREE ENERGY PREDICTED BY IDOCK:   -2.44 KCAL/MOL
REMARK 927      BINDING AFFINITY PREDICTED BY RF-SCORE:    0.00 PKD
ROOT
HETATM    1  C   UNL     1      -9.977   9.360  65.736  1.00  0.00    -0.278 C  
HETATM    2  C   UNL     1      -9.773  10.724  66.368  1.00  0.00    -0.241 C  
ENDROOT
BRANCH   2   3
HETATM    3  C   UNL     1     -10.688  10.945  67.575  1.00  0.00    -0.299 C  
BRANCH   3   4
HETATM    4  C   UNL     1      -9.880  10.800  68.860  1.00  0.00    -0.199 C  
BRANCH   4   5
HETATM    5  N   UNL     1      -9.957   9.446  69.396  1.00  0.00    -0.175 NA 
HETATM    6  H   UNL     1     -10.613   8.764  69.014  1.00  0.00     0.000 HD 
BRANCH   5   7
HETATM    7  C   UNL     1      -9.097   9.111  70.454  1.00  0.00    -0.233 A  
HETATM    8  C   UNL     1      -7.728   8.869  70.280  1.00  0.00    -0.090 A  
HETATM    9  C   UNL     1      -6.917   8.463  71.341  1.00  0.00    -0.072 A  
HETATM   10  C   UNL     1      -7.463   8.254  72.609  1.00  0.00    -0.153 A  
HETATM   11  C   UNL     1      -9.639   8.880  71.727  1.00  0.00    -0.353 A  
HETATM   12  C   UNL     1      -8.834   8.461  72.800  1.00  0.00    -0.276 A  
BRANCH  10  13
HETATM   13  C   UNL     1      -6.542   7.790  73.677  1.00  0.00    -0.089 C  
HETATM   14  O   UNL     1      -5.651   8.487  74.141  1.00  0.00    -0.093 OA 
BRANCH  13  15
HETATM   15  O   UNL     1      -6.804   6.511  74.031  1.00  0.00    -0.077 OA 
BRANCH  15  16
HETATM   16  C   UNL     1      -5.901   5.538  73.475  1.00  0.00    -0.032 C  
BRANCH  16  17
HETATM   17  C   UNL     1      -6.628   4.238  73.130  1.00  0.00    -0.047 C  
BRANCH  17  18
HETATM   18  O   UNL     1      -6.165   3.762  71.863  1.00  0.00    -0.013 OA 
BRANCH  18  19
HETATM   19  C   UNL     1      -7.095   4.063  70.825  1.00  0.00    -0.033 C  
BRANCH  19  20
HETATM   20  C   UNL     1      -8.435   4.446  71.439  1.00  0.00    -0.100 C  
BRANCH  20  21
HETATM   21  O   UNL     1      -9.126   5.314  70.542  1.00  0.00    -0.135 OA 
BRANCH  21  22
HETATM   22  C   UNL     1     -10.536   5.255  70.742  1.00  0.00    -0.186 C  
BRANCH  22  23
HETATM   23  C   UNL     1     -10.845   5.538  72.207  1.00  0.00    -0.241 C  
BRANCH  23  24
HETATM   24  O   UNL     1     -12.168   6.059  72.313  1.00  0.00    -0.281 OA 
BRANCH  24  25
HETATM   25  C   UNL     1     -12.539   6.770  71.134  1.00  0.00    -0.250 C  
BRANCH  25  26
HETATM   26  C   UNL     1     -13.896   7.424  71.354  1.00  0.00    -0.328 C  
BRANCH  26  27
HETATM   27  O   UNL     1     -13.791   8.363  72.420  1.00  0.00    -0.303 OA 
BRANCH  27  28
HETATM   28  C   UNL     1     -12.686   9.242  72.227  1.00  0.00    -0.363 C  
BRANCH  28  29
HETATM   29  C   UNL     1     -13.107  10.369  71.295  1.00  0.00    -0.399 C  
BRANCH  29  30
HETATM   30  O   UNL     1     -12.475  11.575  71.716  1.00  0.00    -0.169 OA 
BRANCH  30  31
HETATM   31  C   UNL     1     -13.436  12.538  72.139  1.00  0.00    -0.422 C  
BRANCH  31  32
HETATM   32  C   UNL     1     -13.517  13.646  71.100  1.00  0.00    -0.049 C  
BRANCH  32  33
HETATM   33  O   UNL     1     -12.202  13.948  70.644  1.00  0.00    -0.334 OA 
BRANCH  33  34
HETATM   34  C   UNL     1     -12.151  14.002  69.222  1.00  0.00    -0.338 C  
BRANCH  34  35
HETATM   35  C   UNL     1     -10.889  14.741  68.800  1.00  0.00    -0.255 C  
BRANCH  35  36
HETATM   36  O   UNL     1     -11.253  16.016  68.276  1.00  0.00    -0.343 OA 
BRANCH  36  37
HETATM   37  C   UNL     1     -10.211  16.557  67.468  1.00  0.00    -0.283 C  
BRANCH  37  38
HETATM   38  C   UNL     1     -10.773  16.886  66.092  1.00  0.00    -0.109 C  
BRANCH  38  39
HETATM   39  O   UNL     1     -10.043  16.162  65.105  1.00  0.00    -0.503 OA 
BRANCH  39  40
HETATM   40  C   UNL     1     -10.667  14.912  64.813  1.00  0.00    -0.341 C  
BRANCH  40  41
HETATM   41  C   UNL     1     -12.110  15.162  64.396  1.00  0.00    -0.300 C  
BRANCH  41  42
HETATM   42  O   UNL     1     -12.796  13.915  64.298  1.00  0.00    -0.618 OA 
HETATM   43  C   UNL     1     -12.355  13.003  65.295  1.00  0.00    -0.486 C  
ENDBRANCH  41  42
ENDBRANCH  40  41
ENDBRANCH  39  40
ENDBRANCH  38  39
ENDBRANCH  37  38
ENDBRANCH  36  37
ENDBRANCH  35  36
ENDBRANCH  34  35
ENDBRANCH  33  34
ENDBRANCH  32  33
ENDBRANCH  31  32
ENDBRANCH  30  31
ENDBRANCH  29  30
ENDBRANCH  28  29
ENDBRANCH  27  28
ENDBRANCH  26  27
ENDBRANCH  25  26
ENDBRANCH  24  25
ENDBRANCH  23  24
ENDBRANCH  22  23
ENDBRANCH  21  22
ENDBRANCH  20  21
ENDBRANCH  19  20
ENDBRANCH  18  19
ENDBRANCH  17  18
ENDBRANCH  16  17
ENDBRANCH  15  16
ENDBRANCH  13  15
ENDBRANCH  10  13
ENDBRANCH   5   7
ENDBRANCH   4   5
ENDBRANCH   3   4
ENDBRANCH   2   3
TORSDOF 33
ENDMDL
MODEL      143
REMARK 921   NORMALIZED FREE ENERGY PREDICTED BY IDOCK:   -3.25 KCAL/MOL
REMARK 922        TOTAL FREE ENERGY PREDICTED BY IDOCK:  -12.31 KCAL/MOL
REMARK 923 INTER-LIGAND FREE ENERGY PREDICTED BY IDOCK:   -9.89 KCAL/MOL
REMARK 924 INTRA-LIGAND FREE ENERGY PREDICTED BY IDOCK:   -2.42 KCAL/MOL
REMARK 927      BINDING AFFINITY PREDICTED BY RF-SCORE:    0.00 PKD
ROOT
HETATM    1  C   UNL     1     -10.792  19.670  67.422  1.00  0.00    -0.497 C  
HETATM    2  C   UNL     1      -9.667  19.538  66.413  1.00  0.00    -0.485 C  
ENDROOT
BRANCH   2   3
HETATM    3  C   UNL     1      -8.410  20.295  66.848  1.00  0.00    -0.348 C  
BRANCH   3   4
HETATM    4  C   UNL     1      -7.330  19.297  67.255  1.00  0.00    -0.223 C  
BRANCH   4   5
HETATM    5  N   UNL     1      -7.618  18.690  68.550  1.00  0.00    -0.302 NA 
HETATM    6  H   UNL     1      -8.087  19.217  69.287  1.00  0.00     0.000 HD 
BRANCH   5   7
HETATM    7  C   UNL     1      -7.229  17.355  68.748  1.00  0.00    -0.249 A  
HETATM    8  C   UNL     1      -8.137  16.329  69.042  1.00  0.00    -0.236 A  
HETATM    9  C   UNL     1      -7.709  15.029  69.308  1.00  0.00    -0.194 A  
HETATM   10  C   UNL     1      -6.347  14.721  69.322  1.00  0.00    -0.115 A  
HETATM   11  C   UNL     1      -5.863  17.040  68.782  1.00  0.00    -0.146 A  
HETATM   12  C   UNL     1      -5.419  15.736  69.060  1.00  0.00    -0.104 A  
BRANCH  10  13
HETATM   13  C   UNL     1      -5.969  13.323  69.647  1.00  0.00    -0.117 C  
HETATM   14  O   UNL     1      -6.128  12.826  70.753  1.00  0.00    -0.205 OA 
BRANCH  13  15
HETATM   15  O   UNL     1      -5.410  12.705  68.582  1.00  0.00    -0.057 OA 
BRANCH  15  16
HETATM   16  C   UNL     1      -6.303  12.496  67.472  1.00  0.00    -0.154 C  
BRANCH  16  17
HETATM   17  C   UNL     1      -7.400  11.491  67.824  1.00  0.00    -0.096 C  
BRANCH  17  18
HETATM   18  O   UNL     1      -6.817  10.194  67.984  1.00  0.00    -0.069 OA 
BRANCH  18  19
HETATM   19  C   UNL     1      -7.336   9.531  69.135  1.00  0.00    -0.072 C  
BRANCH  19  20
HETATM   20  C   UNL     1      -6.564   8.240  69.370  1.00  0.00    -0.042 C  
BRANCH  20  21
HETATM   21  O   UNL     1      -7.440   7.274  69.948  1.00  0.00    -0.082 OA 
BRANCH  21  22
HETATM   22  C   UNL     1      -8.037   6.449  68.951  1.00  0.00    -0.111 C  
BRANCH  22  23
HETATM   23  C   UNL     1      -7.453   5.045  69.048  1.00  0.00    -0.065 C  
BRANCH  23  24
HETATM   24  O   UNL     1      -7.181   4.746  70.416  1.00  0.00    -0.047 OA 
BRANCH  24  25
HETATM   25  C   UNL     1      -8.039   3.715  70.899  1.00  0.00    -0.065 C  
BRANCH  25  26
HETATM   26  C   UNL     1      -8.934   4.284  71.990  1.00  0.00    -0.116 C  
BRANCH  26  27
HETATM   27  O   UNL     1     -10.109   4.823  71.392  1.00  0.00    -0.188 OA 
BRANCH  27  28
HETATM   28  C   UNL     1     -11.045   5.245  72.381  1.00  0.00    -0.197 C  
BRANCH  28  29
HETATM   29  C   UNL     1     -11.798   6.461  71.865  1.00  0.00    -0.329 C  
BRANCH  29  30
HETATM   30  O   UNL     1     -11.673   7.518  72.813  1.00  0.00    -0.279 OA 
BRANCH  30  31
HETATM   31  C   UNL     1     -10.363   8.077  72.790  1.00  0.00    -0.339 C  
BRANCH  31  32
HETATM   32  C   UNL     1     -10.140   8.760  71.448  1.00  0.00    -0.284 C  
BRANCH  32  33
HETATM   33  O   UNL     1     -10.942   9.936  71.391  1.00  0.00    -0.287 OA 
BRANCH  33  34
HETATM   34  C   UNL     1     -11.701   9.980  70.186  1.00  0.00    -0.215 C  
BRANCH  34  35
HETATM   35  C   UNL     1     -11.011  10.913  69.202  1.00  0.00    -0.239 C  
BRANCH  35  36
HETATM   36  O   UNL     1     -11.995  11.504  68.356  1.00  0.00    -0.511 OA 
BRANCH  36  37
HETATM   37  C   UNL     1     -11.901  12.926  68.372  1.00  0.00    -0.318 C  
BRANCH  37  38
HETATM   38  C   UNL     1     -11.958  13.410  69.815  1.00  0.00    -0.330 C  
BRANCH  38  39
HETATM   39  O   UNL     1     -12.209  14.812  69.827  1.00  0.00    -0.311 OA 
BRANCH  39  40
HETATM   40  C   UNL     1     -13.106  15.167  70.879  1.00  0.00    -0.441 C  
BRANCH  40  41
HETATM   41  C   UNL     1     -12.308  15.748  72.039  1.00  0.00    -0.456 C  
BRANCH  41  42
HETATM   42  O   UNL     1     -12.939  15.399  73.269  1.00  0.00    -0.444 OA 
HETATM   43  C   UNL     1     -12.467  16.206  74.339  1.00  0.00    -0.519 C  
ENDBRANCH  41  42
ENDBRANCH  40  41
ENDBRANCH  39  40
ENDBRANCH  38  39
ENDBRANCH  37  38
ENDBRANCH  36  37
ENDBRANCH  35  36
ENDBRANCH  34  35
ENDBRANCH  33  34
ENDBRANCH  32  33
ENDBRANCH  31  32
ENDBRANCH  30  31
ENDBRANCH  29  30
ENDBRANCH  28  29
ENDBRANCH  27  28
ENDBRANCH  26  27
ENDBRANCH  25  26
ENDBRANCH  24  25
ENDBRANCH  23  24
ENDBRANCH  22  23
ENDBRANCH  21  22
ENDBRANCH  20  21
ENDBRANCH  19  20
ENDBRANCH  18  19
ENDBRANCH  17  18
ENDBRANCH  16  17
ENDBRANCH  15  16
ENDBRANCH  13  15
ENDBRANCH  10  13
ENDBRANCH   5   7
ENDBRANCH   4   5
ENDBRANCH   3   4
ENDBRANCH   2   3
TORSDOF 33
ENDMDL
MODEL      144
REMARK 921   NORMALIZED FREE ENERGY PREDICTED BY IDOCK:   -3.20 KCAL/MOL
REMARK 922        TOTAL FREE ENERGY PREDICTED BY IDOCK:  -12.18 KCAL/MOL
REMARK 923 INTER-LIGAND FREE ENERGY PREDICTED BY IDOCK:   -9.73 KCAL/MOL
REMARK 924 INTRA-LIGAND FREE ENERGY PREDICTED BY IDOCK:   -2.44 KCAL/MOL
REMARK 927      BINDING AFFINITY PREDICTED BY RF-SCORE:    0.00 PKD
ROOT
HETATM    1  C   UNL     1     -11.753  16.257  71.767  1.00  0.00    -0.504 C  
HETATM    2  C   UNL     1     -12.306  14.898  72.154  1.00  0.00    -0.430 C  
ENDROOT
BRANCH   2   3
HETATM    3  C   UNL     1     -12.522  13.995  70.937  1.00  0.00    -0.439 C  
BRANCH   3   4
HETATM    4  C   UNL     1     -11.598  14.435  69.806  1.00  0.00    -0.298 C  
BRANCH   4   5
HETATM    5  N   UNL     1     -12.302  14.505  68.531  1.00  0.00    -0.595 NA 
HETATM    6  H   UNL     1     -13.147  15.067  68.425  1.00  0.00     0.000 HD 
BRANCH   5   7
HETATM    7  C   UNL     1     -11.779  13.772  67.453  1.00  0.00    -0.382 A  
HETATM    8  C   UNL     1     -12.443  13.635  66.226  1.00  0.00    -0.420 A  
HETATM    9  C   UNL     1     -11.931  12.837  65.204  1.00  0.00    -0.466 A  
HETATM   10  C   UNL     1     -10.748  12.119  65.391  1.00  0.00    -0.323 A  
HETATM   11  C   UNL     1     -10.601  13.033  67.638  1.00  0.00    -0.232 A  
HETATM   12  C   UNL     1     -10.082  12.217  66.619  1.00  0.00    -0.231 A  
BRANCH  10  13
HETATM   13  C   UNL     1     -10.285  11.265  64.268  1.00  0.00    -0.327 C  
HETATM   14  O   UNL     1     -10.231  11.654  63.110  1.00  0.00    -0.385 OA 
BRANCH  13  15
HETATM   15  O   UNL     1      -9.970  10.021  64.694  1.00  0.00    -0.309 OA 
BRANCH  15  16
HETATM   16  C   UNL     1      -8.827   9.435  64.043  1.00  0.00    -0.177 C  
BRANCH  16  17
HETATM   17  C   UNL     1      -7.520   9.987  64.612  1.00  0.00    -0.143 C  
BRANCH  17  18
HETATM   18  O   UNL     1      -7.454   9.693  66.011  1.00  0.00    -0.096 OA 
BRANCH  18  19
HETATM   19  C   UNL     1      -7.211   8.307  66.239  1.00  0.00    -0.074 C  
BRANCH  19  20
HETATM   20  C   UNL     1      -7.272   8.019  67.733  1.00  0.00    -0.091 C  
BRANCH  20  21
HETATM   21  O   UNL     1      -6.222   7.115  68.075  1.00  0.00    -0.032 OA 
BRANCH  21  22
HETATM   22  C   UNL     1      -6.542   5.778  67.698  1.00  0.00    -0.053 C  
BRANCH  22  23
HETATM   23  C   UNL     1      -5.279   4.928  67.752  1.00  0.00    -0.011 C  
BRANCH  23  24
HETATM   24  O   UNL     1      -5.180   4.163  66.553  1.00  0.00    -0.008 OA 
BRANCH  24  25
HETATM   25  C   UNL     1      -5.576   4.928  65.417  1.00  0.00    -0.014 C  
BRANCH  25  26
HETATM   26  C   UNL     1      -5.467   4.062  64.171  1.00  0.00    -0.013 C  
BRANCH  26  27
HETATM   27  O   UNL     1      -6.749   3.514  63.874  1.00  0.00    -0.040 OA 
BRANCH  27  28
HETATM   28  C   UNL     1      -7.792   4.408  64.251  1.00  0.00    -0.085 C  
BRANCH  28  29
HETATM   29  C   UNL     1      -9.134   3.732  64.015  1.00  0.00    -0.124 C  
BRANCH  29  30
HETATM   30  O   UNL     1     -10.144   4.455  64.714  1.00  0.00    -0.162 OA 
BRANCH  30  31
HETATM   31  C   UNL     1     -10.079   4.205  66.116  1.00  0.00    -0.124 C  
BRANCH  31  32
HETATM   32  C   UNL     1     -10.423   5.485  66.863  1.00  0.00    -0.287 C  
BRANCH  32  33
HETATM   33  O   UNL     1     -10.705   5.165  68.221  1.00  0.00    -0.014 OA 
BRANCH  33  34
HETATM   34  C   UNL     1     -10.424   6.268  69.078  1.00  0.00    -0.237 C  
BRANCH  34  35
HETATM   35  C   UNL     1     -10.627   5.836  70.522  1.00  0.00    -0.289 C  
BRANCH  35  36
HETATM   36  O   UNL     1      -9.515   6.274  71.298  1.00  0.00    -0.159 OA 
BRANCH  36  37
HETATM   37  C   UNL     1      -9.705   7.606  71.767  1.00  0.00    -0.161 C  
BRANCH  37  38
HETATM   38  C   UNL     1     -10.624   7.577  72.980  1.00  0.00    -0.368 C  
BRANCH  38  39
HETATM   39  O   UNL     1     -11.929   7.993  72.588  1.00  0.00    -0.356 OA 
BRANCH  39  40
HETATM   40  C   UNL     1     -11.876   9.163  71.773  1.00  0.00    -0.383 C  
BRANCH  40  41
HETATM   41  C   UNL     1     -13.180   9.934  71.923  1.00  0.00    -0.458 C  
BRANCH  41  42
HETATM   42  O   UNL     1     -13.309  10.860  70.846  1.00  0.00    -0.120 OA 
HETATM   43  C   UNL     1     -12.220  10.753  69.940  1.00  0.00    -0.313 C  
ENDBRANCH  41  42
ENDBRANCH  40  41
ENDBRANCH  39  40
ENDBRANCH  38  39
ENDBRANCH  37  38
ENDBRANCH  36  37
ENDBRANCH  35  36
ENDBRANCH  34  35
ENDBRANCH  33  34
ENDBRANCH  32  33
ENDBRANCH  31  32
ENDBRANCH  30  31
ENDBRANCH  29  30
ENDBRANCH  28  29
ENDBRANCH  27  28
ENDBRANCH  26  27
ENDBRANCH  25  26
ENDBRANCH  24  25
ENDBRANCH  23  24
ENDBRANCH  22  23
ENDBRANCH  21  22
ENDBRANCH  20  21
ENDBRANCH  19  20
ENDBRANCH  18  19
ENDBRANCH  17  18
ENDBRANCH  16  17
ENDBRANCH  15  16
ENDBRANCH  13  15
ENDBRANCH  10  13
ENDBRANCH   5   7
ENDBRANCH   4   5
ENDBRANCH   3   4
ENDBRANCH   2   3
TORSDOF 33
ENDMDL
MODEL      145
REMARK 921   NORMALIZED FREE ENERGY PREDICTED BY IDOCK:   -3.17 KCAL/MOL
REMARK 922        TOTAL FREE ENERGY PREDICTED BY IDOCK:  -12.09 KCAL/MOL
REMARK 923 INTER-LIGAND FREE ENERGY PREDICTED BY IDOCK:   -9.28 KCAL/MOL
REMARK 924 INTRA-LIGAND FREE ENERGY PREDICTED BY IDOCK:   -2.80 KCAL/MOL
REMARK 927      BINDING AFFINITY PREDICTED BY RF-SCORE:    0.00 PKD
ROOT
HETATM    1  C   UNL     1      -8.755   2.002  70.379  1.00  0.00    -0.116 C  
HETATM    2  C   UNL     1      -9.664   3.005  71.064  1.00  0.00    -0.173 C  
ENDROOT
BRANCH   2   3
HETATM    3  C   UNL     1      -9.397   3.091  72.569  1.00  0.00    -0.152 C  
BRANCH   3   4
HETATM    4  C   UNL     1     -10.716   3.282  73.310  1.00  0.00    -0.189 C  
BRANCH   4   5
HETATM    5  N   UNL     1     -10.743   4.539  74.049  1.00  0.00    -0.272 NA 
HETATM    6  H   UNL     1     -10.625   4.557  75.062  1.00  0.00     0.000 HD 
BRANCH   5   7
HETATM    7  C   UNL     1     -10.936   5.723  73.320  1.00  0.00    -0.253 A  
HETATM    8  C   UNL     1     -10.308   6.933  73.645  1.00  0.00    -0.397 A  
HETATM    9  C   UNL     1     -10.581   8.108  72.946  1.00  0.00    -0.327 A  
HETATM   10  C   UNL     1     -11.523   8.116  71.915  1.00  0.00    -0.357 A  
HETATM   11  C   UNL     1     -11.894   5.746  72.295  1.00  0.00    -0.215 A  
HETATM   12  C   UNL     1     -12.185   6.926  71.592  1.00  0.00    -0.403 A  
BRANCH  10  13
HETATM   13  C   UNL     1     -11.784   9.414  71.242  1.00  0.00    -0.360 C  
HETATM   14  O   UNL     1     -12.255  10.384  71.818  1.00  0.00    -0.319 OA 
BRANCH  13  15
HETATM   15  O   UNL     1     -11.462   9.359  69.929  1.00  0.00    -0.161 OA 
BRANCH  15  16
HETATM   16  C   UNL     1     -10.054   9.464  69.652  1.00  0.00    -0.206 C  
BRANCH  16  17
HETATM   17  C   UNL     1      -9.525   8.197  68.978  1.00  0.00    -0.155 C  
BRANCH  17  18
HETATM   18  O   UNL     1     -10.628   7.428  68.488  1.00  0.00    -0.199 OA 
BRANCH  18  19
HETATM   19  C   UNL     1     -10.554   7.258  67.074  1.00  0.00    -0.344 C  
BRANCH  19  20
HETATM   20  C   UNL     1     -10.443   5.776  66.746  1.00  0.00    -0.287 C  
BRANCH  20  21
HETATM   21  O   UNL     1      -9.092   5.357  66.937  1.00  0.00    -0.113 OA 
BRANCH  21  22
HETATM   22  C   UNL     1      -8.181   6.204  66.241  1.00  0.00    -0.116 C  
BRANCH  22  23
HETATM   23  C   UNL     1      -6.774   5.634  66.367  1.00  0.00    -0.057 C  
BRANCH  23  24
HETATM   24  O   UNL     1      -5.849   6.533  65.758  1.00  0.00    -0.024 OA 
BRANCH  24  25
HETATM   25  C   UNL     1      -5.977   6.523  64.338  1.00  0.00    -0.034 C  
BRANCH  25  26
HETATM   26  C   UNL     1      -5.601   7.894  63.795  1.00  0.00    -0.053 C  
BRANCH  26  27
HETATM   27  O   UNL     1      -5.752   8.861  64.831  1.00  0.00    -0.056 OA 
BRANCH  27  28
HETATM   28  C   UNL     1      -6.600   9.930  64.418  1.00  0.00    -0.125 C  
BRANCH  28  29
HETATM   29  C   UNL     1      -8.035   9.428  64.354  1.00  0.00    -0.131 C  
BRANCH  29  30
HETATM   30  O   UNL     1      -8.918  10.537  64.502  1.00  0.00    -0.189 OA 
BRANCH  30  31
HETATM   31  C   UNL     1      -9.516  10.888  63.257  1.00  0.00    -0.324 C  
BRANCH  31  32
HETATM   32  C   UNL     1     -10.404  12.106  63.461  1.00  0.00    -0.441 C  
BRANCH  32  33
HETATM   33  O   UNL     1     -11.643  11.685  64.024  1.00  0.00    -0.354 OA 
BRANCH  33  34
HETATM   34  C   UNL     1     -12.207  12.705  64.843  1.00  0.00    -0.471 C  
BRANCH  34  35
HETATM   35  C   UNL     1     -11.369  13.968  64.706  1.00  0.00    -0.366 C  
BRANCH  35  36
HETATM   36  O   UNL     1     -11.880  14.962  65.591  1.00  0.00    -0.265 OA 
BRANCH  36  37
HETATM   37  C   UNL     1     -10.973  15.215  66.661  1.00  0.00    -0.318 C  
BRANCH  37  38
HETATM   38  C   UNL     1      -9.818  14.227  66.575  1.00  0.00    -0.288 C  
BRANCH  38  39
HETATM   39  O   UNL     1      -8.924  14.459  67.660  1.00  0.00    -0.178 OA 
BRANCH  39  40
HETATM   40  C   UNL     1      -8.708  13.268  68.416  1.00  0.00    -0.126 C  
BRANCH  40  41
HETATM   41  C   UNL     1      -8.591  12.088  67.461  1.00  0.00    -0.167 C  
BRANCH  41  42
HETATM   42  O   UNL     1      -7.538  11.230  67.896  1.00  0.00    -0.094 OA 
HETATM   43  C   UNL     1      -6.828  11.797  68.989  1.00  0.00    -0.106 C  
ENDBRANCH  41  42
ENDBRANCH  40  41
ENDBRANCH  39  40
ENDBRANCH  38  39
ENDBRANCH  37  38
ENDBRANCH  36  37
ENDBRANCH  35  36
ENDBRANCH  34  35
ENDBRANCH  33  34
ENDBRANCH  32  33
ENDBRANCH  31  32
ENDBRANCH  30  31
ENDBRANCH  29  30
ENDBRANCH  28  29
ENDBRANCH  27  28
ENDBRANCH  26  27
ENDBRANCH  25  26
ENDBRANCH  24  25
ENDBRANCH  23  24
ENDBRANCH  22  23
ENDBRANCH  21  22
ENDBRANCH  20  21
ENDBRANCH  19  20
ENDBRANCH  18  19
ENDBRANCH  17  18
ENDBRANCH  16  17
ENDBRANCH  15  16
ENDBRANCH  13  15
ENDBRANCH  10  13
ENDBRANCH   5   7
ENDBRANCH   4   5
ENDBRANCH   3   4
ENDBRANCH   2   3
TORSDOF 33
ENDMDL
MODEL      146
REMARK 921   NORMALIZED FREE ENERGY PREDICTED BY IDOCK:   -3.15 KCAL/MOL
REMARK 922        TOTAL FREE ENERGY PREDICTED BY IDOCK:  -12.02 KCAL/MOL
REMARK 923 INTER-LIGAND FREE ENERGY PREDICTED BY IDOCK:   -8.66 KCAL/MOL
REMARK 924 INTRA-LIGAND FREE ENERGY PREDICTED BY IDOCK:   -3.36 KCAL/MOL
REMARK 927      BINDING AFFINITY PREDICTED BY RF-SCORE:    0.00 PKD
ROOT
HETATM    1  C   UNL     1      -6.028   5.905  65.157  1.00  0.00    -0.025 C  
HETATM    2  C   UNL     1      -5.679   6.080  63.691  1.00  0.00    -0.022 C  
ENDROOT
BRANCH   2   3
HETATM    3  C   UNL     1      -6.735   6.895  62.939  1.00  0.00    -0.047 C  
BRANCH   3   4
HETATM    4  C   UNL     1      -7.922   7.160  63.858  1.00  0.00    -0.076 C  
BRANCH   4   5
HETATM    5  N   UNL     1      -8.717   8.293  63.399  1.00  0.00    -0.388 NA 
HETATM    6  H   UNL     1      -9.183   8.277  62.491  1.00  0.00     0.000 HD 
BRANCH   5   7
HETATM    7  C   UNL     1      -8.821   9.408  64.247  1.00  0.00    -0.184 A  
HETATM    8  C   UNL     1      -9.916  10.283  64.231  1.00  0.00    -0.293 A  
HETATM    9  C   UNL     1      -9.952  11.422  65.033  1.00  0.00    -0.312 A  
HETATM   10  C   UNL     1      -8.871  11.741  65.858  1.00  0.00    -0.003 A  
HETATM   11  C   UNL     1      -7.734   9.746  65.066  1.00  0.00    -0.126 A  
HETATM   12  C   UNL     1      -7.755  10.898  65.870  1.00  0.00    -0.073 A  
BRANCH  10  13
HETATM   13  C   UNL     1      -8.971  12.989  66.657  1.00  0.00    -0.124 C  
HETATM   14  O   UNL     1      -8.297  13.200  67.656  1.00  0.00    -0.149 OA 
BRANCH  13  15
HETATM   15  O   UNL     1      -9.910  13.822  66.154  1.00  0.00    -0.294 OA 
BRANCH  15  16
HETATM   16  C   UNL     1     -10.833  14.343  67.127  1.00  0.00    -0.292 C  
BRANCH  16  17
HETATM   17  C   UNL     1     -12.235  13.767  66.927  1.00  0.00    -0.366 C  
BRANCH  17  18
HETATM   18  O   UNL     1     -12.246  12.397  67.342  1.00  0.00    -0.459 OA 
BRANCH  18  19
HETATM   19  C   UNL     1     -11.552  12.224  68.575  1.00  0.00    -0.310 C  
BRANCH  19  20
HETATM   20  C   UNL     1     -12.280  11.193  69.427  1.00  0.00    -0.259 C  
BRANCH  20  21
HETATM   21  O   UNL     1     -12.039  11.475  70.805  1.00  0.00    -0.364 OA 
BRANCH  21  22
HETATM   22  C   UNL     1     -13.042  10.898  71.638  1.00  0.00    -0.433 C  
BRANCH  22  23
HETATM   23  C   UNL     1     -13.053   9.388  71.432  1.00  0.00    -0.347 C  
BRANCH  23  24
HETATM   24  O   UNL     1     -12.461   8.758  72.565  1.00  0.00    -0.382 OA 
BRANCH  24  25
HETATM   25  C   UNL     1     -11.216   8.151  72.227  1.00  0.00    -0.359 C  
BRANCH  25  26
HETATM   26  C   UNL     1     -10.748   7.291  73.392  1.00  0.00    -0.369 C  
BRANCH  26  27
HETATM   27  O   UNL     1      -9.375   7.570  73.653  1.00  0.00    -0.234 OA 
BRANCH  27  28
HETATM   28  C   UNL     1      -8.821   6.622  74.562  1.00  0.00    -0.179 C  
BRANCH  28  29
HETATM   29  C   UNL     1      -7.532   6.067  73.974  1.00  0.00    -0.091 C  
BRANCH  29  30
HETATM   30  O   UNL     1      -7.859   5.095  72.983  1.00  0.00    -0.096 OA 
BRANCH  30  31
HETATM   31  C   UNL     1      -7.213   5.385  71.746  1.00  0.00    -0.085 C  
BRANCH  31  32
HETATM   32  C   UNL     1      -8.262   5.460  70.647  1.00  0.00    -0.114 C  
BRANCH  32  33
HETATM   33  O   UNL     1      -9.420   4.744  71.065  1.00  0.00    -0.146 OA 
BRANCH  33  34
HETATM   34  C   UNL     1     -10.521   4.998  70.196  1.00  0.00    -0.165 C  
BRANCH  34  35
HETATM   35  C   UNL     1      -9.989   5.381  68.823  1.00  0.00    -0.170 C  
BRANCH  35  36
HETATM   36  O   UNL     1     -10.986   6.129  68.132  1.00  0.00    -0.311 OA 
BRANCH  36  37
HETATM   37  C   UNL     1     -10.445   6.765  66.976  1.00  0.00    -0.299 C  
BRANCH  37  38
HETATM   38  C   UNL     1      -9.266   7.632  67.395  1.00  0.00    -0.132 C  
BRANCH  38  39
HETATM   39  O   UNL     1      -9.755   8.852  67.943  1.00  0.00    -0.151 OA 
BRANCH  39  40
HETATM   40  C   UNL     1      -9.541   8.909  69.353  1.00  0.00    -0.163 C  
BRANCH  40  41
HETATM   41  C   UNL     1      -8.400   9.873  69.645  1.00  0.00    -0.172 C  
BRANCH  41  42
HETATM   42  O   UNL     1      -7.288   9.146  70.164  1.00  0.00    -0.058 OA 
HETATM   43  C   UNL     1      -6.107   9.405  69.418  1.00  0.00    -0.037 C  
ENDBRANCH  41  42
ENDBRANCH  40  41
ENDBRANCH  39  40
ENDBRANCH  38  39
ENDBRANCH  37  38
ENDBRANCH  36  37
ENDBRANCH  35  36
ENDBRANCH  34  35
ENDBRANCH  33  34
ENDBRANCH  32  33
ENDBRANCH  31  32
ENDBRANCH  30  31
ENDBRANCH  29  30
ENDBRANCH  28  29
ENDBRANCH  27  28
ENDBRANCH  26  27
ENDBRANCH  25  26
ENDBRANCH  24  25
ENDBRANCH  23  24
ENDBRANCH  22  23
ENDBRANCH  21  22
ENDBRANCH  20  21
ENDBRANCH  19  20
ENDBRANCH  18  19
ENDBRANCH  17  18
ENDBRANCH  16  17
ENDBRANCH  15  16
ENDBRANCH  13  15
ENDBRANCH  10  13
ENDBRANCH   5   7
ENDBRANCH   4   5
ENDBRANCH   3   4
ENDBRANCH   2   3
TORSDOF 33
ENDMDL
MODEL      147
REMARK 921   NORMALIZED FREE ENERGY PREDICTED BY IDOCK:   -3.15 KCAL/MOL
REMARK 922        TOTAL FREE ENERGY PREDICTED BY IDOCK:  -12.02 KCAL/MOL
REMARK 923 INTER-LIGAND FREE ENERGY PREDICTED BY IDOCK:   -9.06 KCAL/MOL
REMARK 924 INTRA-LIGAND FREE ENERGY PREDICTED BY IDOCK:   -2.96 KCAL/MOL
REMARK 927      BINDING AFFINITY PREDICTED BY RF-SCORE:    0.00 PKD
ROOT
HETATM    1  C   UNL     1      -9.987   4.113  70.003  1.00  0.00    -0.137 C  
HETATM    2  C   UNL     1      -9.471   3.264  71.149  1.00  0.00    -0.221 C  
ENDROOT
BRANCH   2   3
HETATM    3  C   UNL     1      -9.361   4.058  72.453  1.00  0.00    -0.167 C  
BRANCH   3   4
HETATM    4  C   UNL     1      -7.890   4.248  72.810  1.00  0.00    -0.082 C  
BRANCH   4   5
HETATM    5  N   UNL     1      -7.473   5.637  72.658  1.00  0.00    -0.095 NA 
HETATM    6  H   UNL     1      -7.112   6.168  73.450  1.00  0.00     0.000 HD 
BRANCH   5   7
HETATM    7  C   UNL     1      -7.585   6.219  71.385  1.00  0.00    -0.098 A  
HETATM    8  C   UNL     1      -6.791   5.836  70.296  1.00  0.00    -0.049 A  
HETATM    9  C   UNL     1      -6.876   6.488  69.066  1.00  0.00    -0.066 A  
HETATM   10  C   UNL     1      -7.740   7.572  68.897  1.00  0.00    -0.115 A  
HETATM   11  C   UNL     1      -8.437   7.320  71.210  1.00  0.00    -0.115 A  
HETATM   12  C   UNL     1      -8.522   7.991  69.979  1.00  0.00    -0.129 A  
BRANCH  10  13
HETATM   13  C   UNL     1      -7.748   8.234  67.568  1.00  0.00    -0.099 C  
HETATM   14  O   UNL     1      -7.873   7.623  66.516  1.00  0.00    -0.100 OA 
BRANCH  13  15
HETATM   15  O   UNL     1      -7.570   9.570  67.683  1.00  0.00    -0.093 OA 
BRANCH  15  16
HETATM   16  C   UNL     1      -6.194   9.993  67.698  1.00  0.00    -0.058 C  
BRANCH  16  17
HETATM   17  C   UNL     1      -5.788  10.608  66.359  1.00  0.00    -0.092 C  
BRANCH  17  18
HETATM   18  O   UNL     1      -5.785  12.035  66.477  1.00  0.00    -0.272 OA 
BRANCH  18  19
HETATM   19  C   UNL     1      -5.661  12.442  67.838  1.00  0.00    -0.085 C  
BRANCH  19  20
HETATM   20  C   UNL     1      -6.646  13.566  68.125  1.00  0.00    -0.121 C  
BRANCH  20  21
HETATM   21  O   UNL     1      -7.789  13.026  68.787  1.00  0.00    -0.081 OA 
BRANCH  21  22
HETATM   22  C   UNL     1      -8.965  13.166  67.994  1.00  0.00    -0.195 C  
BRANCH  22  23
HETATM   23  C   UNL     1      -9.834  11.927  68.165  1.00  0.00    -0.192 C  
BRANCH  23  24
HETATM   24  O   UNL     1     -10.223  11.448  66.880  1.00  0.00    -0.208 OA 
BRANCH  24  25
HETATM   25  C   UNL     1      -9.250  11.775  65.891  1.00  0.00    -0.170 C  
BRANCH  25  26
HETATM   26  C   UNL     1      -9.340  10.768  64.753  1.00  0.00    -0.226 C  
BRANCH  26  27
HETATM   27  O   UNL     1     -10.562  10.971  64.049  1.00  0.00    -0.366 OA 
BRANCH  27  28
HETATM   28  C   UNL     1     -10.506  12.147  63.246  1.00  0.00    -0.317 C  
BRANCH  28  29
HETATM   29  C   UNL     1     -11.883  12.792  63.216  1.00  0.00    -0.419 C  
BRANCH  29  30
HETATM   30  O   UNL     1     -12.112  13.449  64.459  1.00  0.00    -0.379 OA 
BRANCH  30  31
HETATM   31  C   UNL     1     -12.402  14.831  64.265  1.00  0.00    -0.320 C  
BRANCH  31  32
HETATM   32  C   UNL     1     -11.141  15.642  64.525  1.00  0.00    -0.286 C  
BRANCH  32  33
HETATM   33  O   UNL     1     -10.903  15.688  65.928  1.00  0.00    -0.326 OA 
BRANCH  33  34
HETATM   34  C   UNL     1      -9.648  16.296  66.216  1.00  0.00    -0.308 C  
BRANCH  34  35
HETATM   35  C   UNL     1      -9.890  17.708  66.730  1.00  0.00    -0.304 C  
BRANCH  35  36
HETATM   36  O   UNL     1     -10.624  17.637  67.950  1.00  0.00    -0.382 OA 
BRANCH  36  37
HETATM   37  C   UNL     1     -10.152  16.575  68.775  1.00  0.00    -0.255 C  
BRANCH  37  38
HETATM   38  C   UNL     1     -11.195  16.278  69.844  1.00  0.00    -0.317 C  
BRANCH  38  39
HETATM   39  O   UNL     1     -11.031  14.937  70.296  1.00  0.00    -0.226 OA 
BRANCH  39  40
HETATM   40  C   UNL     1     -11.938  14.634  71.354  1.00  0.00    -0.343 C  
BRANCH  40  41
HETATM   41  C   UNL     1     -12.065  15.848  72.264  1.00  0.00    -0.503 C  
BRANCH  41  42
HETATM   42  O   UNL     1     -13.439  16.052  72.591  1.00  0.00    -0.475 OA 
HETATM   43  C   UNL     1     -14.165  14.831  72.560  1.00  0.00    -0.262 C  
ENDBRANCH  41  42
ENDBRANCH  40  41
ENDBRANCH  39  40
ENDBRANCH  38  39
ENDBRANCH  37  38
ENDBRANCH  36  37
ENDBRANCH  35  36
ENDBRANCH  34  35
ENDBRANCH  33  34
ENDBRANCH  32  33
ENDBRANCH  31  32
ENDBRANCH  30  31
ENDBRANCH  29  30
ENDBRANCH  28  29
ENDBRANCH  27  28
ENDBRANCH  26  27
ENDBRANCH  25  26
ENDBRANCH  24  25
ENDBRANCH  23  24
ENDBRANCH  22  23
ENDBRANCH  21  22
ENDBRANCH  20  21
ENDBRANCH  19  20
ENDBRANCH  18  19
ENDBRANCH  17  18
ENDBRANCH  16  17
ENDBRANCH  15  16
ENDBRANCH  13  15
ENDBRANCH  10  13
ENDBRANCH   5   7
ENDBRANCH   4   5
ENDBRANCH   3   4
ENDBRANCH   2   3
TORSDOF 33
ENDMDL
MODEL      148
REMARK 921   NORMALIZED FREE ENERGY PREDICTED BY IDOCK:   -3.10 KCAL/MOL
REMARK 922        TOTAL FREE ENERGY PREDICTED BY IDOCK:  -11.88 KCAL/MOL
REMARK 923 INTER-LIGAND FREE ENERGY PREDICTED BY IDOCK:  -10.91 KCAL/MOL
REMARK 924 INTRA-LIGAND FREE ENERGY PREDICTED BY IDOCK:   -0.98 KCAL/MOL
REMARK 927      BINDING AFFINITY PREDICTED BY RF-SCORE:    0.00 PKD
ROOT
HETATM    1  C   UNL     1      -9.826   7.080  66.168  1.00  0.00     0.109 C  
HETATM    2  C   UNL     1     -10.616   5.905  66.712  1.00  0.00    -0.368 C  
ENDROOT
BRANCH   2   3
HETATM    3  C   UNL     1     -10.476   4.658  65.834  1.00  0.00    -0.305 C  
BRANCH   3   4
HETATM    4  C   UNL     1      -9.187   3.927  66.190  1.00  0.00    -0.160 C  
BRANCH   4   5
HETATM    5  N   UNL     1      -9.453   2.668  66.877  1.00  0.00    -0.395 NA 
HETATM    6  H   UNL     1      -9.689   1.823  66.357  1.00  0.00     0.000 HD 
BRANCH   5   7
HETATM    7  C   UNL     1      -9.372   2.658  68.279  1.00  0.00    -0.201 A  
HETATM    8  C   UNL     1      -9.467   1.487  69.043  1.00  0.00    -0.170 A  
HETATM    9  C   UNL     1      -9.460   1.522  70.437  1.00  0.00    -0.156 A  
HETATM   10  C   UNL     1      -9.390   2.740  71.114  1.00  0.00    -0.211 A  
HETATM   11  C   UNL     1      -9.320   3.878  68.969  1.00  0.00    -0.237 A  
HETATM   12  C   UNL     1      -9.323   3.926  70.373  1.00  0.00    -0.231 A  
BRANCH  10  13
HETATM   13  C   UNL     1      -9.421   2.697  72.598  1.00  0.00    -0.103 C  
HETATM   14  O   UNL     1      -9.186   1.684  73.243  1.00  0.00    -0.068 OA 
BRANCH  13  15
HETATM   15  O   UNL     1      -9.767   3.896  73.118  1.00  0.00    -0.118 OA 
BRANCH  15  16
HETATM   16  C   UNL     1      -9.071   4.249  74.328  1.00  0.00    -0.099 C  
BRANCH  16  17
HETATM   17  C   UNL     1      -7.816   5.069  74.028  1.00  0.00    -0.101 C  
BRANCH  17  18
HETATM   18  O   UNL     1      -7.883   5.560  72.685  1.00  0.00    -0.100 OA 
BRANCH  18  19
HETATM   19  C   UNL     1      -8.764   6.677  72.585  1.00  0.00    -0.123 C  
BRANCH  19  20
HETATM   20  C   UNL     1      -7.961   7.930  72.261  1.00  0.00    -0.121 C  
BRANCH  20  21
HETATM   21  O   UNL     1      -8.801   9.073  72.416  1.00  0.00    -0.337 OA 
BRANCH  21  22
HETATM   22  C   UNL     1      -9.928   9.013  71.545  1.00  0.00    -0.321 C  
BRANCH  22  23
HETATM   23  C   UNL     1      -9.517   9.505  70.163  1.00  0.00    -0.246 C  
BRANCH  23  24
HETATM   24  O   UNL     1     -10.570  10.296  69.616  1.00  0.00    -0.224 OA 
BRANCH  24  25
HETATM   25  C   UNL     1     -10.749  10.029  68.227  1.00  0.00    -0.240 C  
BRANCH  25  26
HETATM   26  C   UNL     1      -9.639  10.713  67.442  1.00  0.00    -0.158 C  
BRANCH  26  27
HETATM   27  O   UNL     1      -9.114   9.796  66.486  1.00  0.00    -0.147 OA 
BRANCH  27  28
HETATM   28  C   UNL     1      -8.394  10.476  65.461  1.00  0.00    -0.170 C  
BRANCH  28  29
HETATM   29  C   UNL     1      -9.112  10.275  64.135  1.00  0.00    -0.251 C  
BRANCH  29  30
HETATM   30  O   UNL     1      -9.656  11.523  63.711  1.00  0.00    -0.245 OA 
BRANCH  30  31
HETATM   31  C   UNL     1     -11.040  11.617  64.038  1.00  0.00    -0.384 C  
BRANCH  31  32
HETATM   32  C   UNL     1     -11.631  12.832  63.339  1.00  0.00    -0.443 C  
BRANCH  32  33
HETATM   33  O   UNL     1     -12.786  13.260  64.053  1.00  0.00    -0.644 OA 
BRANCH  33  34
HETATM   34  C   UNL     1     -12.526  14.457  64.780  1.00  0.00    -0.357 C  
BRANCH  34  35
HETATM   35  C   UNL     1     -12.157  14.096  66.211  1.00  0.00    -0.442 C  
BRANCH  35  36
HETATM   36  O   UNL     1     -10.880  14.651  66.515  1.00  0.00    -0.303 OA 
BRANCH  36  37
HETATM   37  C   UNL     1     -10.569  14.504  67.898  1.00  0.00    -0.243 C  
BRANCH  37  38
HETATM   38  C   UNL     1     -11.624  15.229  68.722  1.00  0.00    -0.362 C  
BRANCH  38  39
HETATM   39  O   UNL     1     -12.039  14.386  69.794  1.00  0.00    -0.303 OA 
BRANCH  39  40
HETATM   40  C   UNL     1     -12.137  15.115  71.016  1.00  0.00    -0.333 C  
BRANCH  40  41
HETATM   41  C   UNL     1     -13.551  14.980  71.564  1.00  0.00    -0.452 C  
BRANCH  41  42
HETATM   42  O   UNL     1     -13.687  15.793  72.728  1.00  0.00    -0.561 OA 
HETATM   43  C   UNL     1     -12.776  15.396  73.745  1.00  0.00    -0.583 C  
ENDBRANCH  41  42
ENDBRANCH  40  41
ENDBRANCH  39  40
ENDBRANCH  38  39
ENDBRANCH  37  38
ENDBRANCH  36  37
ENDBRANCH  35  36
ENDBRANCH  34  35
ENDBRANCH  33  34
ENDBRANCH  32  33
ENDBRANCH  31  32
ENDBRANCH  30  31
ENDBRANCH  29  30
ENDBRANCH  28  29
ENDBRANCH  27  28
ENDBRANCH  26  27
ENDBRANCH  25  26
ENDBRANCH  24  25
ENDBRANCH  23  24
ENDBRANCH  22  23
ENDBRANCH  21  22
ENDBRANCH  20  21
ENDBRANCH  19  20
ENDBRANCH  18  19
ENDBRANCH  17  18
ENDBRANCH  16  17
ENDBRANCH  15  16
ENDBRANCH  13  15
ENDBRANCH  10  13
ENDBRANCH   5   7
ENDBRANCH   4   5
ENDBRANCH   3   4
ENDBRANCH   2   3
TORSDOF 33
ENDMDL
MODEL      149
REMARK 921   NORMALIZED FREE ENERGY PREDICTED BY IDOCK:   -3.10 KCAL/MOL
REMARK 922        TOTAL FREE ENERGY PREDICTED BY IDOCK:  -11.87 KCAL/MOL
REMARK 923 INTER-LIGAND FREE ENERGY PREDICTED BY IDOCK:   -8.09 KCAL/MOL
REMARK 924 INTRA-LIGAND FREE ENERGY PREDICTED BY IDOCK:   -3.78 KCAL/MOL
REMARK 927      BINDING AFFINITY PREDICTED BY RF-SCORE:    0.00 PKD
ROOT
HETATM    1  C   UNL     1      -7.877   5.553  65.665  1.00  0.00    -0.101 C  
HETATM    2  C   UNL     1      -6.607   5.264  64.887  1.00  0.00    -0.043 C  
ENDROOT
BRANCH   2   3
HETATM    3  C   UNL     1      -6.492   6.130  63.629  1.00  0.00    -0.029 C  
BRANCH   3   4
HETATM    4  C   UNL     1      -7.856   6.723  63.293  1.00  0.00    -0.102 C  
BRANCH   4   5
HETATM    5  N   UNL     1      -7.772   8.155  63.032  1.00  0.00    -0.128 NA 
HETATM    6  H   UNL     1      -7.586   8.510  62.094  1.00  0.00     0.000 HD 
BRANCH   5   7
HETATM    7  C   UNL     1      -7.954   9.030  64.115  1.00  0.00    -0.144 A  
HETATM    8  C   UNL     1      -9.205   9.547  64.478  1.00  0.00    -0.223 A  
HETATM    9  C   UNL     1      -9.340  10.474  65.512  1.00  0.00    -0.245 A  
HETATM   10  C   UNL     1      -8.216  10.939  66.197  1.00  0.00    -0.168 A  
HETATM   11  C   UNL     1      -6.829   9.517  64.797  1.00  0.00    -0.103 A  
HETATM   12  C   UNL     1      -6.953  10.458  65.833  1.00  0.00    -0.131 A  
BRANCH  10  13
HETATM   13  C   UNL     1      -8.438  11.950  67.262  1.00  0.00    -0.172 C  
HETATM   14  O   UNL     1      -7.622  12.184  68.142  1.00  0.00    -0.107 OA 
BRANCH  13  15
HETATM   15  O   UNL     1      -9.651  12.533  67.140  1.00  0.00    -0.199 OA 
BRANCH  15  16
HETATM   16  C   UNL     1     -10.203  13.035  68.371  1.00  0.00    -0.245 C  
BRANCH  16  17
HETATM   17  C   UNL     1     -11.725  12.895  68.396  1.00  0.00    -0.345 C  
BRANCH  17  18
HETATM   18  O   UNL     1     -12.069  11.527  68.637  1.00  0.00    -0.483 OA 
BRANCH  18  19
HETATM   19  C   UNL     1     -11.510  11.060  69.862  1.00  0.00    -0.320 C  
BRANCH  19  20
HETATM   20  C   UNL     1     -12.608  10.944  70.911  1.00  0.00    -0.397 C  
BRANCH  20  21
HETATM   21  O   UNL     1     -12.236   9.952  71.866  1.00  0.00    -0.372 OA 
BRANCH  21  22
HETATM   22  C   UNL     1     -13.377   9.266  72.376  1.00  0.00    -0.449 C  
BRANCH  22  23
HETATM   23  C   UNL     1     -13.555   7.958  71.616  1.00  0.00    -0.345 C  
BRANCH  23  24
HETATM   24  O   UNL     1     -12.373   7.173  71.756  1.00  0.00    -0.321 OA 
BRANCH  24  25
HETATM   25  C   UNL     1     -11.819   6.843  70.484  1.00  0.00    -0.333 C  
BRANCH  25  26
HETATM   26  C   UNL     1     -10.702   5.828  70.677  1.00  0.00    -0.281 C  
BRANCH  26  27
HETATM   27  O   UNL     1      -9.649   6.117  69.761  1.00  0.00    -0.148 OA 
BRANCH  27  28
HETATM   28  C   UNL     1     -10.066   7.059  68.776  1.00  0.00    -0.170 C  
BRANCH  28  29
HETATM   29  C   UNL     1      -8.889   7.949  68.410  1.00  0.00    -0.130 C  
BRANCH  29  30
HETATM   30  O   UNL     1      -8.827   9.034  69.332  1.00  0.00    -0.137 OA 
BRANCH  30  31
HETATM   31  C   UNL     1      -7.553   9.098  69.967  1.00  0.00    -0.080 C  
BRANCH  31  32
HETATM   32  C   UNL     1      -7.726   8.818  71.452  1.00  0.00    -0.114 C  
BRANCH  32  33
HETATM   33  O   UNL     1      -9.085   9.048  71.810  1.00  0.00    -0.340 OA 
BRANCH  33  34
HETATM   34  C   UNL     1      -9.403   8.420  73.048  1.00  0.00    -0.179 C  
BRANCH  34  35
HETATM   35  C   UNL     1      -8.110   8.059  73.765  1.00  0.00    -0.224 C  
BRANCH  35  36
HETATM   36  O   UNL     1      -8.183   6.703  74.198  1.00  0.00    -0.122 OA 
BRANCH  36  37
HETATM   37  C   UNL     1      -7.067   5.951  73.728  1.00  0.00    -0.082 C  
BRANCH  37  38
HETATM   38  C   UNL     1      -7.520   5.055  72.584  1.00  0.00    -0.095 C  
BRANCH  38  39
HETATM   39  O   UNL     1      -7.406   3.692  72.986  1.00  0.00    -0.053 OA 
BRANCH  39  40
HETATM   40  C   UNL     1      -8.262   2.852  72.213  1.00  0.00    -0.055 C  
BRANCH  40  41
HETATM   41  C   UNL     1      -9.081   1.977  73.152  1.00  0.00    -0.069 C  
BRANCH  41  42
HETATM   42  O   UNL     1      -9.570   2.771  74.231  1.00  0.00    -0.084 OA 
HETATM   43  C   UNL     1     -10.766   3.449  73.873  1.00  0.00    -0.216 C  
ENDBRANCH  41  42
ENDBRANCH  40  41
ENDBRANCH  39  40
ENDBRANCH  38  39
ENDBRANCH  37  38
ENDBRANCH  36  37
ENDBRANCH  35  36
ENDBRANCH  34  35
ENDBRANCH  33  34
ENDBRANCH  32  33
ENDBRANCH  31  32
ENDBRANCH  30  31
ENDBRANCH  29  30
ENDBRANCH  28  29
ENDBRANCH  27  28
ENDBRANCH  26  27
ENDBRANCH  25  26
ENDBRANCH  24  25
ENDBRANCH  23  24
ENDBRANCH  22  23
ENDBRANCH  21  22
ENDBRANCH  20  21
ENDBRANCH  19  20
ENDBRANCH  18  19
ENDBRANCH  17  18
ENDBRANCH  16  17
ENDBRANCH  15  16
ENDBRANCH  13  15
ENDBRANCH  10  13
ENDBRANCH   5   7
ENDBRANCH   4   5
ENDBRANCH   3   4
ENDBRANCH   2   3
TORSDOF 33
ENDMDL
MODEL      150
REMARK 921   NORMALIZED FREE ENERGY PREDICTED BY IDOCK:   -3.09 KCAL/MOL
REMARK 922        TOTAL FREE ENERGY PREDICTED BY IDOCK:  -11.86 KCAL/MOL
REMARK 923 INTER-LIGAND FREE ENERGY PREDICTED BY IDOCK:   -9.67 KCAL/MOL
REMARK 924 INTRA-LIGAND FREE ENERGY PREDICTED BY IDOCK:   -2.19 KCAL/MOL
REMARK 927      BINDING AFFINITY PREDICTED BY RF-SCORE:    0.00 PKD
ROOT
HETATM    1  C   UNL     1     -13.821   7.144  71.467  1.00  0.00    -0.421 C  
HETATM    2  C   UNL     1     -13.590   8.602  71.118  1.00  0.00    -0.073 C  
ENDROOT
BRANCH   2   3
HETATM    3  C   UNL     1     -13.562   9.496  72.361  1.00  0.00    -0.459 C  
BRANCH   3   4
HETATM    4  C   UNL     1     -13.315  10.942  71.942  1.00  0.00    -0.324 C  
BRANCH   4   5
HETATM    5  N   UNL     1     -12.673  11.022  70.635  1.00  0.00    -0.313 NA 
HETATM    6  H   UNL     1     -12.600  10.202  70.032  1.00  0.00     0.000 HD 
BRANCH   5   7
HETATM    7  C   UNL     1     -12.158  12.266  70.234  1.00  0.00    -0.295 A  
HETATM    8  C   UNL     1     -12.481  13.470  70.873  1.00  0.00    -0.448 A  
HETATM    9  C   UNL     1     -12.012  14.696  70.401  1.00  0.00    -0.375 A  
HETATM   10  C   UNL     1     -11.228  14.757  69.248  1.00  0.00    -0.303 A  
HETATM   11  C   UNL     1     -11.385  12.339  69.065  1.00  0.00    -0.333 A  
HETATM   12  C   UNL     1     -10.916  13.570  68.575  1.00  0.00    -0.291 A  
BRANCH  10  13
HETATM   13  C   UNL     1     -10.796  16.102  68.790  1.00  0.00    -0.310 C  
HETATM   14  O   UNL     1     -10.455  16.992  69.556  1.00  0.00    -0.295 OA 
BRANCH  13  15
HETATM   15  O   UNL     1     -10.863  16.207  67.443  1.00  0.00    -0.322 OA 
BRANCH  15  16
HETATM   16  C   UNL     1      -9.840  17.031  66.854  1.00  0.00    -0.271 C  
BRANCH  16  17
HETATM   17  C   UNL     1     -10.348  18.450  66.599  1.00  0.00    -0.396 C  
BRANCH  17  18
HETATM   18  O   UNL     1      -9.626  19.366  67.428  1.00  0.00    -0.307 OA 
BRANCH  18  19
HETATM   19  C   UNL     1      -8.248  19.014  67.511  1.00  0.00    -0.276 C  
BRANCH  19  20
HETATM   20  C   UNL     1      -7.759  19.207  68.940  1.00  0.00    -0.323 C  
BRANCH  20  21
HETATM   21  O   UNL     1      -6.611  18.387  69.154  1.00  0.00    -0.260 OA 
BRANCH  21  22
HETATM   22  C   UNL     1      -6.682  17.183  68.393  1.00  0.00    -0.170 C  
BRANCH  22  23
HETATM   23  C   UNL     1      -6.975  16.018  69.330  1.00  0.00    -0.205 C  
BRANCH  23  24
HETATM   24  O   UNL     1      -5.930  15.054  69.216  1.00  0.00    -0.100 OA 
BRANCH  24  25
HETATM   25  C   UNL     1      -6.405  13.741  69.503  1.00  0.00    -0.118 C  
BRANCH  25  26
HETATM   26  C   UNL     1      -6.203  12.859  68.279  1.00  0.00    -0.082 C  
BRANCH  26  27
HETATM   27  O   UNL     1      -7.267  11.914  68.207  1.00  0.00    -0.076 OA 
BRANCH  27  28
HETATM   28  C   UNL     1      -6.895  10.673  68.802  1.00  0.00    -0.062 C  
BRANCH  28  29
HETATM   29  C   UNL     1      -7.957  10.272  69.815  1.00  0.00    -0.126 C  
BRANCH  29  30
HETATM   30  O   UNL     1      -8.440   8.972  69.486  1.00  0.00    -0.117 OA 
BRANCH  30  31
HETATM   31  C   UNL     1      -9.842   8.869  69.719  1.00  0.00    -0.180 C  
BRANCH  31  32
HETATM   32  C   UNL     1     -10.192   7.415  69.994  1.00  0.00    -0.209 C  
BRANCH  32  33
HETATM   33  O   UNL     1      -9.096   6.793  70.657  1.00  0.00    -0.154 OA 
BRANCH  33  34
HETATM   34  C   UNL     1      -8.730   5.577  70.014  1.00  0.00    -0.128 C  
BRANCH  34  35
HETATM   35  C   UNL     1      -9.963   4.696  69.884  1.00  0.00    -0.226 C  
BRANCH  35  36
HETATM   36  O   UNL     1      -9.734   3.723  68.867  1.00  0.00    -0.151 OA 
BRANCH  36  37
HETATM   37  C   UNL     1      -9.265   2.497  69.423  1.00  0.00    -0.125 C  
BRANCH  37  38
HETATM   38  C   UNL     1      -9.310   2.593  70.941  1.00  0.00    -0.147 C  
BRANCH  38  39
HETATM   39  O   UNL     1     -10.064   1.499  71.456  1.00  0.00    -0.145 OA 
BRANCH  39  40
HETATM   40  C   UNL     1     -10.521   1.764  72.781  1.00  0.00    -0.148 C  
BRANCH  40  41
HETATM   41  C   UNL     1      -9.872   3.047  73.284  1.00  0.00    -0.107 C  
BRANCH  41  42
HETATM   42  O   UNL     1     -10.824   3.793  74.039  1.00  0.00    -0.213 OA 
HETATM   43  C   UNL     1     -10.432   5.153  74.165  1.00  0.00    -0.285 C  
ENDBRANCH  41  42
ENDBRANCH  40  41
ENDBRANCH  39  40
ENDBRANCH  38  39
ENDBRANCH  37  38
ENDBRANCH  36  37
ENDBRANCH  35  36
ENDBRANCH  34  35
ENDBRANCH  33  34
ENDBRANCH  32  33
ENDBRANCH  31  32
ENDBRANCH  30  31
ENDBRANCH  29  30
ENDBRANCH  28  29
ENDBRANCH  27  28
ENDBRANCH  26  27
ENDBRANCH  25  26
ENDBRANCH  24  25
ENDBRANCH  23  24
ENDBRANCH  22  23
ENDBRANCH  21  22
ENDBRANCH  20  21
ENDBRANCH  19  20
ENDBRANCH  18  19
ENDBRANCH  17  18
ENDBRANCH  16  17
ENDBRANCH  15  16
ENDBRANCH  13  15
ENDBRANCH  10  13
ENDBRANCH   5   7
ENDBRANCH   4   5
ENDBRANCH   3   4
ENDBRANCH   2   3
TORSDOF 33
ENDMDL
MODEL      151
REMARK 921   NORMALIZED FREE ENERGY PREDICTED BY IDOCK:   -3.09 KCAL/MOL
REMARK 922        TOTAL FREE ENERGY PREDICTED BY IDOCK:  -11.86 KCAL/MOL
REMARK 923 INTER-LIGAND FREE ENERGY PREDICTED BY IDOCK:   -9.33 KCAL/MOL
REMARK 924 INTRA-LIGAND FREE ENERGY PREDICTED BY IDOCK:   -2.53 KCAL/MOL
REMARK 927      BINDING AFFINITY PREDICTED BY RF-SCORE:    0.00 PKD
ROOT
HETATM    1  C   UNL     1      -9.448   2.844  64.213  1.00  0.00    -0.143 C  
HETATM    2  C   UNL     1     -10.523   3.884  64.464  1.00  0.00    -0.221 C  
ENDROOT
BRANCH   2   3
HETATM    3  C   UNL     1     -10.325   4.611  65.796  1.00  0.00    -0.295 C  
BRANCH   3   4
HETATM    4  C   UNL     1      -9.411   3.784  66.695  1.00  0.00    -0.190 C  
BRANCH   4   5
HETATM    5  N   UNL     1      -8.175   4.494  67.006  1.00  0.00    -0.102 NA 
HETATM    6  H   UNL     1      -7.272   4.142  66.689  1.00  0.00     0.000 HD 
BRANCH   5   7
HETATM    7  C   UNL     1      -8.270   5.678  67.755  1.00  0.00    -0.101 A  
HETATM    8  C   UNL     1      -8.832   5.729  69.038  1.00  0.00    -0.111 A  
HETATM    9  C   UNL     1      -8.980   6.935  69.722  1.00  0.00    -0.141 A  
HETATM   10  C   UNL     1      -8.599   8.139  69.126  1.00  0.00    -0.136 A  
HETATM   11  C   UNL     1      -7.908   6.894  67.157  1.00  0.00    -0.109 A  
HETATM   12  C   UNL     1      -8.062   8.116  67.834  1.00  0.00    -0.128 A  
BRANCH  10  13
HETATM   13  C   UNL     1      -8.820   9.383  69.906  1.00  0.00    -0.199 C  
HETATM   14  O   UNL     1      -9.692  10.197  69.635  1.00  0.00    -0.228 OA 
BRANCH  13  15
HETATM   15  O   UNL     1      -7.922   9.499  70.911  1.00  0.00    -0.297 OA 
BRANCH  15  16
HETATM   16  C   UNL     1      -6.548   9.551  70.485  1.00  0.00    -0.094 C  
BRANCH  16  17
HETATM   17  C   UNL     1      -5.997  10.975  70.557  1.00  0.00    -0.116 C  
BRANCH  17  18
HETATM   18  O   UNL     1      -6.379  11.688  69.376  1.00  0.00    -0.083 OA 
BRANCH  18  19
HETATM   19  C   UNL     1      -5.819  11.094  68.208  1.00  0.00    -0.045 C  
BRANCH  19  20
HETATM   20  C   UNL     1      -6.178  11.933  66.989  1.00  0.00    -0.145 C  
BRANCH  20  21
HETATM   21  O   UNL     1      -5.440  11.458  65.864  1.00  0.00    -0.243 OA 
BRANCH  21  22
HETATM   22  C   UNL     1      -5.473  10.035  65.783  1.00  0.00    -0.052 C  
BRANCH  22  23
HETATM   23  C   UNL     1      -6.107   9.625  64.460  1.00  0.00    -0.088 C  
BRANCH  23  24
HETATM   24  O   UNL     1      -7.520   9.533  64.627  1.00  0.00    -0.104 OA 
BRANCH  24  25
HETATM   25  C   UNL     1      -8.206  10.350  63.682  1.00  0.00    -0.129 C  
BRANCH  25  26
HETATM   26  C   UNL     1      -9.545  10.772  64.269  1.00  0.00    -0.283 C  
BRANCH  26  27
HETATM   27  O   UNL     1     -10.196  11.652  63.356  1.00  0.00    -0.370 OA 
BRANCH  27  28
HETATM   28  C   UNL     1     -11.611  11.614  63.523  1.00  0.00    -0.305 C  
BRANCH  28  29
HETATM   29  C   UNL     1     -12.157  13.031  63.449  1.00  0.00    -0.515 C  
BRANCH  29  30
HETATM   30  O   UNL     1     -12.964  13.275  64.597  1.00  0.00    -0.692 OA 
BRANCH  30  31
HETATM   31  C   UNL     1     -12.397  14.293  65.418  1.00  0.00    -0.415 C  
BRANCH  31  32
HETATM   32  C   UNL     1     -12.210  13.746  66.825  1.00  0.00    -0.397 C  
BRANCH  32  33
HETATM   33  O   UNL     1     -11.124  12.824  66.821  1.00  0.00    -0.261 OA 
BRANCH  33  34
HETATM   34  C   UNL     1     -10.081  13.256  67.690  1.00  0.00    -0.229 C  
BRANCH  34  35
HETATM   35  C   UNL     1      -9.943  14.768  67.582  1.00  0.00    -0.226 C  
BRANCH  35  36
HETATM   36  O   UNL     1      -9.075  15.078  66.494  1.00  0.00    -0.261 OA 
BRANCH  36  37
HETATM   37  C   UNL     1      -7.972  15.870  66.925  1.00  0.00    -0.252 C  
BRANCH  37  38
HETATM   38  C   UNL     1      -8.419  16.757  68.078  1.00  0.00    -0.205 C  
BRANCH  38  39
HETATM   39  O   UNL     1      -7.447  16.695  69.118  1.00  0.00    -0.232 OA 
BRANCH  39  40
HETATM   40  C   UNL     1      -6.647  17.877  69.148  1.00  0.00    -0.240 C  
BRANCH  40  41
HETATM   41  C   UNL     1      -7.513  19.075  68.785  1.00  0.00    -0.333 C  
BRANCH  41  42
HETATM   42  O   UNL     1      -6.688  20.114  68.262  1.00  0.00    -0.281 OA 
HETATM   43  C   UNL     1      -7.327  20.790  67.189  1.00  0.00    -0.329 C  
ENDBRANCH  41  42
ENDBRANCH  40  41
ENDBRANCH  39  40
ENDBRANCH  38  39
ENDBRANCH  37  38
ENDBRANCH  36  37
ENDBRANCH  35  36
ENDBRANCH  34  35
ENDBRANCH  33  34
ENDBRANCH  32  33
ENDBRANCH  31  32
ENDBRANCH  30  31
ENDBRANCH  29  30
ENDBRANCH  28  29
ENDBRANCH  27  28
ENDBRANCH  26  27
ENDBRANCH  25  26
ENDBRANCH  24  25
ENDBRANCH  23  24
ENDBRANCH  22  23
ENDBRANCH  21  22
ENDBRANCH  20  21
ENDBRANCH  19  20
ENDBRANCH  18  19
ENDBRANCH  17  18
ENDBRANCH  16  17
ENDBRANCH  15  16
ENDBRANCH  13  15
ENDBRANCH  10  13
ENDBRANCH   5   7
ENDBRANCH   4   5
ENDBRANCH   3   4
ENDBRANCH   2   3
TORSDOF 33
ENDMDL
MODEL      152
REMARK 921   NORMALIZED FREE ENERGY PREDICTED BY IDOCK:   -3.08 KCAL/MOL
REMARK 922        TOTAL FREE ENERGY PREDICTED BY IDOCK:  -11.82 KCAL/MOL
REMARK 923 INTER-LIGAND FREE ENERGY PREDICTED BY IDOCK:  -10.31 KCAL/MOL
REMARK 924 INTRA-LIGAND FREE ENERGY PREDICTED BY IDOCK:   -1.50 KCAL/MOL
REMARK 927      BINDING AFFINITY PREDICTED BY RF-SCORE:    0.00 PKD
ROOT
HETATM    1  C   UNL     1      -9.391   3.550  64.854  1.00  0.00    -0.153 C  
HETATM    2  C   UNL     1     -10.333   4.538  65.516  1.00  0.00    -0.254 C  
ENDROOT
BRANCH   2   3
HETATM    3  C   UNL     1     -10.220   4.509  67.043  1.00  0.00    -0.123 C  
BRANCH   3   4
HETATM    4  C   UNL     1      -9.330   3.345  67.465  1.00  0.00    -0.204 C  
BRANCH   4   5
HETATM    5  N   UNL     1      -8.121   3.806  68.138  1.00  0.00    -0.082 NA 
HETATM    6  H   UNL     1      -7.266   3.250  68.125  1.00  0.00     0.000 HD 
BRANCH   5   7
HETATM    7  C   UNL     1      -8.174   5.041  68.805  1.00  0.00    -0.084 A  
HETATM    8  C   UNL     1      -8.681   5.188  70.103  1.00  0.00    -0.128 A  
HETATM    9  C   UNL     1      -8.789   6.441  70.707  1.00  0.00    -0.144 A  
HETATM   10  C   UNL     1      -8.422   7.595  70.013  1.00  0.00    -0.136 A  
HETATM   11  C   UNL     1      -7.825   6.208  68.110  1.00  0.00    -0.103 A  
HETATM   12  C   UNL     1      -7.940   7.475  68.704  1.00  0.00    -0.123 A  
BRANCH  10  13
HETATM   13  C   UNL     1      -8.598   8.894  70.711  1.00  0.00    -0.199 C  
HETATM   14  O   UNL     1      -9.628   9.550  70.654  1.00  0.00    -0.258 OA 
BRANCH  13  15
HETATM   15  O   UNL     1      -7.475   9.251  71.375  1.00  0.00    -0.316 OA 
BRANCH  15  16
HETATM   16  C   UNL     1      -6.321   9.449  70.538  1.00  0.00    -0.072 C  
BRANCH  16  17
HETATM   17  C   UNL     1      -5.965  10.931  70.423  1.00  0.00    -0.134 C  
BRANCH  17  18
HETATM   18  O   UNL     1      -6.846  11.556  69.484  1.00  0.00    -0.118 OA 
BRANCH  18  19
HETATM   19  C   UNL     1      -6.728  10.966  68.192  1.00  0.00    -0.063 C  
BRANCH  19  20
HETATM   20  C   UNL     1      -7.315  11.907  67.148  1.00  0.00    -0.142 C  
BRANCH  20  21
HETATM   21  O   UNL     1      -7.617  11.162  65.969  1.00  0.00    -0.094 OA 
BRANCH  21  22
HETATM   22  C   UNL     1      -8.108   9.862  66.286  1.00  0.00    -0.114 C  
BRANCH  22  23
HETATM   23  C   UNL     1      -9.261   9.522  65.351  1.00  0.00    -0.247 C  
BRANCH  23  24
HETATM   24  O   UNL     1     -10.305  10.478  65.529  1.00  0.00    -0.270 OA 
BRANCH  24  25
HETATM   25  C   UNL     1     -10.719  11.029  64.281  1.00  0.00    -0.278 C  
BRANCH  25  26
HETATM   26  C   UNL     1     -11.926  11.928  64.511  1.00  0.00    -0.196 C  
BRANCH  26  27
HETATM   27  O   UNL     1     -11.892  12.999  63.573  1.00  0.00    -0.504 OA 
BRANCH  27  28
HETATM   28  C   UNL     1     -11.816  14.261  64.233  1.00  0.00    -0.379 C  
BRANCH  28  29
HETATM   29  C   UNL     1     -10.650  14.240  65.209  1.00  0.00    -0.381 C  
BRANCH  29  30
HETATM   30  O   UNL     1     -10.441  15.559  65.706  1.00  0.00    -0.315 OA 
BRANCH  30  31
HETATM   31  C   UNL     1     -10.473  15.583  67.130  1.00  0.00    -0.286 C  
BRANCH  31  32
HETATM   32  C   UNL     1     -10.545  17.029  67.598  1.00  0.00    -0.333 C  
BRANCH  32  33
HETATM   33  O   UNL     1     -11.312  17.089  68.797  1.00  0.00    -0.098 OA 
BRANCH  33  34
HETATM   34  C   UNL     1     -11.458  15.796  69.378  1.00  0.00    -0.355 C  
BRANCH  34  35
HETATM   35  C   UNL     1     -11.991  15.948  70.795  1.00  0.00    -0.378 C  
BRANCH  35  36
HETATM   36  O   UNL     1     -13.396  15.709  70.789  1.00  0.00    -0.535 OA 
BRANCH  36  37
HETATM   37  C   UNL     1     -13.896  15.544  72.114  1.00  0.00    -0.523 C  
BRANCH  37  38
HETATM   38  C   UNL     1     -12.846  14.830  72.954  1.00  0.00    -0.463 C  
BRANCH  38  39
HETATM   39  O   UNL     1     -13.265  13.488  73.183  1.00  0.00    -0.442 OA 
BRANCH  39  40
HETATM   40  C   UNL     1     -13.783  12.898  71.991  1.00  0.00    -0.305 C  
BRANCH  40  41
HETATM   41  C   UNL     1     -12.977  11.649  71.663  1.00  0.00    -0.378 C  
BRANCH  41  42
HETATM   42  O   UNL     1     -11.992  11.966  70.682  1.00  0.00    -0.342 OA 
HETATM   43  C   UNL     1     -12.242  11.285  69.460  1.00  0.00    -0.256 C  
ENDBRANCH  41  42
ENDBRANCH  40  41
ENDBRANCH  39  40
ENDBRANCH  38  39
ENDBRANCH  37  38
ENDBRANCH  36  37
ENDBRANCH  35  36
ENDBRANCH  34  35
ENDBRANCH  33  34
ENDBRANCH  32  33
ENDBRANCH  31  32
ENDBRANCH  30  31
ENDBRANCH  29  30
ENDBRANCH  28  29
ENDBRANCH  27  28
ENDBRANCH  26  27
ENDBRANCH  25  26
ENDBRANCH  24  25
ENDBRANCH  23  24
ENDBRANCH  22  23
ENDBRANCH  21  22
ENDBRANCH  20  21
ENDBRANCH  19  20
ENDBRANCH  18  19
ENDBRANCH  17  18
ENDBRANCH  16  17
ENDBRANCH  15  16
ENDBRANCH  13  15
ENDBRANCH  10  13
ENDBRANCH   5   7
ENDBRANCH   4   5
ENDBRANCH   3   4
ENDBRANCH   2   3
TORSDOF 33
ENDMDL
MODEL      153
REMARK 921   NORMALIZED FREE ENERGY PREDICTED BY IDOCK:   -3.06 KCAL/MOL
REMARK 922        TOTAL FREE ENERGY PREDICTED BY IDOCK:  -11.76 KCAL/MOL
REMARK 923 INTER-LIGAND FREE ENERGY PREDICTED BY IDOCK:   -8.72 KCAL/MOL
REMARK 924 INTRA-LIGAND FREE ENERGY PREDICTED BY IDOCK:   -3.04 KCAL/MOL
REMARK 927      BINDING AFFINITY PREDICTED BY RF-SCORE:    0.00 PKD
ROOT
HETATM    1  C   UNL     1      -5.645   5.380  70.566  1.00  0.00    -0.005 C  
HETATM    2  C   UNL     1      -6.904   5.094  71.361  1.00  0.00    -0.051 C  
ENDROOT
BRANCH   2   3
HETATM    3  C   UNL     1      -7.595   3.806  70.905  1.00  0.00    -0.044 C  
BRANCH   3   4
HETATM    4  C   UNL     1      -7.407   3.632  69.402  1.00  0.00    -0.049 C  
BRANCH   4   5
HETATM    5  N   UNL     1      -8.676   3.703  68.688  1.00  0.00    -0.095 NA 
HETATM    6  H   UNL     1      -9.286   2.888  68.614  1.00  0.00     0.000 HD 
BRANCH   5   7
HETATM    7  C   UNL     1      -9.032   4.930  68.105  1.00  0.00    -0.110 A  
HETATM    8  C   UNL     1      -8.183   6.045  68.090  1.00  0.00    -0.113 A  
HETATM    9  C   UNL     1      -8.597   7.271  67.570  1.00  0.00    -0.122 A  
HETATM   10  C   UNL     1      -9.894   7.429  67.077  1.00  0.00    -0.273 A  
HETATM   11  C   UNL     1     -10.338   5.104  67.623  1.00  0.00    -0.173 A  
HETATM   12  C   UNL     1     -10.769   6.337  67.108  1.00  0.00    -0.432 A  
BRANCH  10  13
HETATM   13  C   UNL     1     -10.270   8.774  66.572  1.00  0.00    -0.244 C  
HETATM   14  O   UNL     1     -10.988   9.545  67.193  1.00  0.00    -0.168 OA 
BRANCH  13  15
HETATM   15  O   UNL     1      -9.745   9.003  65.347  1.00  0.00    -0.148 OA 
BRANCH  15  16
HETATM   16  C   UNL     1      -8.902  10.167  65.264  1.00  0.00    -0.178 C  
BRANCH  16  17
HETATM   17  C   UNL     1      -8.717  10.617  63.815  1.00  0.00    -0.141 C  
BRANCH  17  18
HETATM   18  O   UNL     1      -9.995  10.679  63.173  1.00  0.00    -0.320 OA 
BRANCH  18  19
HETATM   19  C   UNL     1     -10.617  11.945  63.379  1.00  0.00    -0.430 C  
BRANCH  19  20
HETATM   20  C   UNL     1     -12.091  11.854  63.007  1.00  0.00     0.006 C  
BRANCH  20  21
HETATM   21  O   UNL     1     -12.876  12.317  64.105  1.00  0.00    -0.678 OA 
BRANCH  21  22
HETATM   22  C   UNL     1     -12.111  12.370  65.307  1.00  0.00    -0.391 C  
BRANCH  22  23
HETATM   23  C   UNL     1     -12.459  13.646  66.064  1.00  0.00    -0.426 C  
BRANCH  23  24
HETATM   24  O   UNL     1     -11.276  14.422  66.240  1.00  0.00    -0.325 OA 
BRANCH  24  25
HETATM   25  C   UNL     1     -11.105  15.351  65.171  1.00  0.00    -0.394 C  
BRANCH  25  26
HETATM   26  C   UNL     1     -10.355  16.571  65.688  1.00  0.00    -0.322 C  
BRANCH  26  27
HETATM   27  O   UNL     1      -8.956  16.303  65.657  1.00  0.00    -0.403 OA 
BRANCH  27  28
HETATM   28  C   UNL     1      -8.371  16.464  66.947  1.00  0.00    -0.228 C  
BRANCH  28  29
HETATM   29  C   UNL     1      -8.364  15.121  67.659  1.00  0.00    -0.160 C  
BRANCH  29  30
HETATM   30  O   UNL     1      -9.238  15.190  68.783  1.00  0.00    -0.183 OA 
BRANCH  30  31
HETATM   31  C   UNL     1      -9.871  13.935  69.021  1.00  0.00     0.059 C  
BRANCH  31  32
HETATM   32  C   UNL     1     -11.280  14.183  69.536  1.00  0.00    -0.221 C  
BRANCH  32  33
HETATM   33  O   UNL     1     -12.025  12.972  69.443  1.00  0.00    -0.306 OA 
BRANCH  33  34
HETATM   34  C   UNL     1     -11.677  12.073  70.492  1.00  0.00     0.040 C  
BRANCH  34  35
HETATM   35  C   UNL     1     -12.929  11.734  71.287  1.00  0.00    -0.254 C  
BRANCH  35  36
HETATM   36  O   UNL     1     -12.936  10.337  71.567  1.00  0.00    -0.381 OA 
BRANCH  36  37
HETATM   37  C   UNL     1     -12.450   9.586  70.457  1.00  0.00     0.069 C  
BRANCH  37  38
HETATM   38  C   UNL     1     -11.683   8.378  70.974  1.00  0.00    -0.267 C  
BRANCH  38  39
HETATM   39  O   UNL     1     -10.416   8.316  70.324  1.00  0.00    -0.209 OA 
BRANCH  39  40
HETATM   40  C   UNL     1      -9.545   9.345  70.792  1.00  0.00    -0.255 C  
BRANCH  40  41
HETATM   41  C   UNL     1      -8.731   9.878  69.621  1.00  0.00    -0.204 C  
BRANCH  41  42
HETATM   42  O   UNL     1      -7.506  10.425  70.106  1.00  0.00    -0.151 OA 
HETATM   43  C   UNL     1      -7.097  11.544  69.332  1.00  0.00    -0.037 C  
ENDBRANCH  41  42
ENDBRANCH  40  41
ENDBRANCH  39  40
ENDBRANCH  38  39
ENDBRANCH  37  38
ENDBRANCH  36  37
ENDBRANCH  35  36
ENDBRANCH  34  35
ENDBRANCH  33  34
ENDBRANCH  32  33
ENDBRANCH  31  32
ENDBRANCH  30  31
ENDBRANCH  29  30
ENDBRANCH  28  29
ENDBRANCH  27  28
ENDBRANCH  26  27
ENDBRANCH  25  26
ENDBRANCH  24  25
ENDBRANCH  23  24
ENDBRANCH  22  23
ENDBRANCH  21  22
ENDBRANCH  20  21
ENDBRANCH  19  20
ENDBRANCH  18  19
ENDBRANCH  17  18
ENDBRANCH  16  17
ENDBRANCH  15  16
ENDBRANCH  13  15
ENDBRANCH  10  13
ENDBRANCH   5   7
ENDBRANCH   4   5
ENDBRANCH   3   4
ENDBRANCH   2   3
TORSDOF 33
ENDMDL
MODEL      154
REMARK 921   NORMALIZED FREE ENERGY PREDICTED BY IDOCK:   -3.05 KCAL/MOL
REMARK 922        TOTAL FREE ENERGY PREDICTED BY IDOCK:  -11.74 KCAL/MOL
REMARK 923 INTER-LIGAND FREE ENERGY PREDICTED BY IDOCK:   -9.07 KCAL/MOL
REMARK 924 INTRA-LIGAND FREE ENERGY PREDICTED BY IDOCK:   -2.67 KCAL/MOL
REMARK 927      BINDING AFFINITY PREDICTED BY RF-SCORE:    0.00 PKD
ROOT
HETATM    1  C   UNL     1      -9.649   2.974  64.631  1.00  0.00    -0.138 C  
HETATM    2  C   UNL     1     -10.441   4.221  64.976  1.00  0.00    -0.189 C  
ENDROOT
BRANCH   2   3
HETATM    3  C   UNL     1     -10.223   4.659  66.427  1.00  0.00    -0.293 C  
BRANCH   3   4
HETATM    4  C   UNL     1      -9.504   3.552  67.191  1.00  0.00    -0.183 C  
BRANCH   4   5
HETATM    5  N   UNL     1      -8.247   4.021  67.763  1.00  0.00    -0.093 NA 
HETATM    6  H   UNL     1      -7.396   3.463  67.693  1.00  0.00     0.000 HD 
BRANCH   5   7
HETATM    7  C   UNL     1      -8.247   5.266  68.413  1.00  0.00    -0.090 A  
HETATM    8  C   UNL     1      -8.885   5.488  69.641  1.00  0.00    -0.120 A  
HETATM    9  C   UNL     1      -8.930   6.755  70.222  1.00  0.00    -0.152 A  
HETATM   10  C   UNL     1      -8.365   7.853  69.570  1.00  0.00    -0.131 A  
HETATM   11  C   UNL     1      -7.699   6.378  67.758  1.00  0.00    -0.103 A  
HETATM   12  C   UNL     1      -7.749   7.661  68.328  1.00  0.00    -0.120 A  
BRANCH  10  13
HETATM   13  C   UNL     1      -8.485   9.175  70.236  1.00  0.00    -0.191 C  
HETATM   14  O   UNL     1      -9.344   9.995  69.946  1.00  0.00    -0.220 OA 
BRANCH  13  15
HETATM   15  O   UNL     1      -7.514   9.348  71.161  1.00  0.00    -0.294 OA 
BRANCH  15  16
HETATM   16  C   UNL     1      -6.196   9.548  70.618  1.00  0.00    -0.077 C  
BRANCH  16  17
HETATM   17  C   UNL     1      -5.543  10.805  71.191  1.00  0.00    -0.009 C  
BRANCH  17  18
HETATM   18  O   UNL     1      -6.194  11.961  70.654  1.00  0.00    -0.277 OA 
BRANCH  18  19
HETATM   19  C   UNL     1      -6.169  11.955  69.228  1.00  0.00    -0.094 C  
BRANCH  19  20
HETATM   20  C   UNL     1      -7.222  12.917  68.697  1.00  0.00    -0.098 C  
BRANCH  20  21
HETATM   21  O   UNL     1      -7.485  12.609  67.329  1.00  0.00    -0.149 OA 
BRANCH  21  22
HETATM   22  C   UNL     1      -7.093  11.275  67.011  1.00  0.00    -0.129 C  
BRANCH  22  23
HETATM   23  C   UNL     1      -8.131  10.659  66.081  1.00  0.00    -0.154 C  
BRANCH  23  24
HETATM   24  O   UNL     1      -9.371  10.543  66.775  1.00  0.00    -0.154 OA 
BRANCH  24  25
HETATM   25  C   UNL     1     -10.453  11.031  65.985  1.00  0.00    -0.245 C  
BRANCH  25  26
HETATM   26  C   UNL     1     -11.298  11.974  66.828  1.00  0.00    -0.339 C  
BRANCH  26  27
HETATM   27  O   UNL     1     -12.283  12.583  65.997  1.00  0.00    -0.605 OA 
BRANCH  27  28
HETATM   28  C   UNL     1     -12.156  14.003  66.003  1.00  0.00    -0.439 C  
BRANCH  28  29
HETATM   29  C   UNL     1     -11.004  14.401  65.093  1.00  0.00    -0.373 C  
BRANCH  29  30
HETATM   30  O   UNL     1     -10.689  15.772  65.321  1.00  0.00    -0.385 OA 
BRANCH  30  31
HETATM   31  C   UNL     1      -9.410  15.910  65.935  1.00  0.00    -0.318 C  
BRANCH  31  32
HETATM   32  C   UNL     1      -9.494  16.974  67.019  1.00  0.00    -0.250 C  
BRANCH  32  33
HETATM   33  O   UNL     1      -9.303  16.356  68.288  1.00  0.00    -0.202 OA 
BRANCH  33  34
HETATM   34  C   UNL     1      -7.963  16.520  68.741  1.00  0.00    -0.236 C  
BRANCH  34  35
HETATM   35  C   UNL     1      -7.679  18.004  68.918  1.00  0.00    -0.204 C  
BRANCH  35  36
HETATM   36  O   UNL     1      -6.328  18.170  69.342  1.00  0.00    -0.250 OA 
BRANCH  36  37
HETATM   37  C   UNL     1      -5.907  19.524  69.204  1.00  0.00    -0.239 C  
BRANCH  37  38
HETATM   38  C   UNL     1      -7.015  20.321  68.531  1.00  0.00    -0.210 C  
BRANCH  38  39
HETATM   39  O   UNL     1      -6.479  21.009  67.404  1.00  0.00    -0.303 OA 
BRANCH  39  40
HETATM   40  C   UNL     1      -5.955  20.094  66.442  1.00  0.00    -0.173 C  
BRANCH  40  41
HETATM   41  C   UNL     1      -7.095  19.571  65.580  1.00  0.00    -0.285 C  
BRANCH  41  42
HETATM   42  O   UNL     1      -6.730  18.306  65.031  1.00  0.00    -0.416 OA 
HETATM   43  C   UNL     1      -5.811  17.623  65.872  1.00  0.00    -0.138 C  
ENDBRANCH  41  42
ENDBRANCH  40  41
ENDBRANCH  39  40
ENDBRANCH  38  39
ENDBRANCH  37  38
ENDBRANCH  36  37
ENDBRANCH  35  36
ENDBRANCH  34  35
ENDBRANCH  33  34
ENDBRANCH  32  33
ENDBRANCH  31  32
ENDBRANCH  30  31
ENDBRANCH  29  30
ENDBRANCH  28  29
ENDBRANCH  27  28
ENDBRANCH  26  27
ENDBRANCH  25  26
ENDBRANCH  24  25
ENDBRANCH  23  24
ENDBRANCH  22  23
ENDBRANCH  21  22
ENDBRANCH  20  21
ENDBRANCH  19  20
ENDBRANCH  18  19
ENDBRANCH  17  18
ENDBRANCH  16  17
ENDBRANCH  15  16
ENDBRANCH  13  15
ENDBRANCH  10  13
ENDBRANCH   5   7
ENDBRANCH   4   5
ENDBRANCH   3   4
ENDBRANCH   2   3
TORSDOF 33
ENDMDL
MODEL      155
REMARK 921   NORMALIZED FREE ENERGY PREDICTED BY IDOCK:   -3.04 KCAL/MOL
REMARK 922        TOTAL FREE ENERGY PREDICTED BY IDOCK:  -11.71 KCAL/MOL
REMARK 923 INTER-LIGAND FREE ENERGY PREDICTED BY IDOCK:   -8.82 KCAL/MOL
REMARK 924 INTRA-LIGAND FREE ENERGY PREDICTED BY IDOCK:   -2.89 KCAL/MOL
REMARK 927      BINDING AFFINITY PREDICTED BY RF-SCORE:    0.00 PKD
ROOT
HETATM    1  C   UNL     1     -10.665   7.634  73.175  1.00  0.00    -0.445 C  
HETATM    2  C   UNL     1     -10.861   8.801  72.226  1.00  0.00    -0.328 C  
ENDROOT
BRANCH   2   3
HETATM    3  C   UNL     1     -12.208   8.735  71.500  1.00  0.00    -0.382 C  
BRANCH   3   4
HETATM    4  C   UNL     1     -12.665   7.284  71.406  1.00  0.00    -0.389 C  
BRANCH   4   5
HETATM    5  N   UNL     1     -12.396   6.718  70.089  1.00  0.00    -0.546 NA 
HETATM    6  H   UNL     1     -13.136   6.632  69.391  1.00  0.00     0.000 HD 
BRANCH   5   7
HETATM    7  C   UNL     1     -11.085   6.297  69.812  1.00  0.00    -0.406 A  
HETATM    8  C   UNL     1     -10.397   5.367  70.602  1.00  0.00    -0.333 A  
HETATM    9  C   UNL     1      -9.070   5.028  70.343  1.00  0.00    -0.172 A  
HETATM   10  C   UNL     1      -8.375   5.639  69.298  1.00  0.00    -0.107 A  
HETATM   11  C   UNL     1     -10.373   6.919  68.776  1.00  0.00    -0.200 A  
HETATM   12  C   UNL     1      -9.032   6.593  68.512  1.00  0.00    -0.120 A  
BRANCH  10  13
HETATM   13  C   UNL     1      -6.954   5.251  69.106  1.00  0.00    -0.056 C  
HETATM   14  O   UNL     1      -6.281   5.623  68.156  1.00  0.00    -0.030 OA 
BRANCH  13  15
HETATM   15  O   UNL     1      -6.534   4.424  70.091  1.00  0.00    -0.030 OA 
BRANCH  15  16
HETATM   16  C   UNL     1      -5.330   4.847  70.757  1.00  0.00    -0.004 C  
BRANCH  16  17
HETATM   17  C   UNL     1      -5.573   5.081  72.248  1.00  0.00    -0.009 C  
BRANCH  17  18
HETATM   18  O   UNL     1      -5.572   6.488  72.511  1.00  0.00    -0.036 OA 
BRANCH  18  19
HETATM   19  C   UNL     1      -6.891   6.971  72.754  1.00  0.00    -0.069 C  
BRANCH  19  20
HETATM   20  C   UNL     1      -7.144   8.209  71.905  1.00  0.00    -0.081 C  
BRANCH  20  21
HETATM   21  O   UNL     1      -6.143   8.290  70.891  1.00  0.00    -0.033 OA 
BRANCH  21  22
HETATM   22  C   UNL     1      -6.616   8.999  69.748  1.00  0.00    -0.045 C  
BRANCH  22  23
HETATM   23  C   UNL     1      -7.846   9.809  70.137  1.00  0.00    -0.183 C  
BRANCH  23  24
HETATM   24  O   UNL     1      -8.601  10.104  68.964  1.00  0.00    -0.135 OA 
BRANCH  24  25
HETATM   25  C   UNL     1      -8.634  11.507  68.710  1.00  0.00    -0.052 C  
BRANCH  25  26
HETATM   26  C   UNL     1      -7.907  11.793  67.404  1.00  0.00    -0.155 C  
BRANCH  26  27
HETATM   27  O   UNL     1      -8.026  13.180  67.101  1.00  0.00    -0.157 OA 
BRANCH  27  28
HETATM   28  C   UNL     1      -7.852  13.980  68.269  1.00  0.00    -0.140 C  
BRANCH  28  29
HETATM   29  C   UNL     1      -6.898  15.121  67.950  1.00  0.00    -0.155 C  
BRANCH  29  30
HETATM   30  O   UNL     1      -6.476  15.724  69.170  1.00  0.00    -0.126 OA 
BRANCH  30  31
HETATM   31  C   UNL     1      -6.798  17.112  69.196  1.00  0.00    -0.236 C  
BRANCH  31  32
HETATM   32  C   UNL     1      -5.545  17.916  68.882  1.00  0.00    -0.185 C  
BRANCH  32  33
HETATM   33  O   UNL     1      -5.785  18.711  67.725  1.00  0.00    -0.171 OA 
BRANCH  33  34
HETATM   34  C   UNL     1      -6.460  19.919  68.064  1.00  0.00    -0.242 C  
BRANCH  34  35
HETATM   35  C   UNL     1      -6.796  20.672  66.785  1.00  0.00    -0.283 C  
BRANCH  35  36
HETATM   36  O   UNL     1      -7.912  20.045  66.158  1.00  0.00    -0.324 OA 
BRANCH  36  37
HETATM   37  C   UNL     1      -9.021  19.955  67.049  1.00  0.00    -0.340 C  
BRANCH  37  38
HETATM   38  C   UNL     1     -10.109  19.110  66.402  1.00  0.00    -0.419 C  
BRANCH  38  39
HETATM   39  O   UNL     1     -10.917  18.530  67.422  1.00  0.00    -0.376 OA 
BRANCH  39  40
HETATM   40  C   UNL     1     -10.166  18.314  68.616  1.00  0.00    -0.353 C  
BRANCH  40  41
HETATM   41  C   UNL     1     -10.311  16.858  69.039  1.00  0.00    -0.333 C  
BRANCH  41  42
HETATM   42  O   UNL     1     -11.294  16.225  68.223  1.00  0.00    -0.352 OA 
HETATM   43  C   UNL     1     -10.832  14.973  67.735  1.00  0.00    -0.284 C  
ENDBRANCH  41  42
ENDBRANCH  40  41
ENDBRANCH  39  40
ENDBRANCH  38  39
ENDBRANCH  37  38
ENDBRANCH  36  37
ENDBRANCH  35  36
ENDBRANCH  34  35
ENDBRANCH  33  34
ENDBRANCH  32  33
ENDBRANCH  31  32
ENDBRANCH  30  31
ENDBRANCH  29  30
ENDBRANCH  28  29
ENDBRANCH  27  28
ENDBRANCH  26  27
ENDBRANCH  25  26
ENDBRANCH  24  25
ENDBRANCH  23  24
ENDBRANCH  22  23
ENDBRANCH  21  22
ENDBRANCH  20  21
ENDBRANCH  19  20
ENDBRANCH  18  19
ENDBRANCH  17  18
ENDBRANCH  16  17
ENDBRANCH  15  16
ENDBRANCH  13  15
ENDBRANCH  10  13
ENDBRANCH   5   7
ENDBRANCH   4   5
ENDBRANCH   3   4
ENDBRANCH   2   3
TORSDOF 33
ENDMDL
MODEL      156
REMARK 921   NORMALIZED FREE ENERGY PREDICTED BY IDOCK:   -3.03 KCAL/MOL
REMARK 922        TOTAL FREE ENERGY PREDICTED BY IDOCK:  -11.66 KCAL/MOL
REMARK 923 INTER-LIGAND FREE ENERGY PREDICTED BY IDOCK:   -8.79 KCAL/MOL
REMARK 924 INTRA-LIGAND FREE ENERGY PREDICTED BY IDOCK:   -2.88 KCAL/MOL
REMARK 927      BINDING AFFINITY PREDICTED BY RF-SCORE:    0.00 PKD
ROOT
HETATM    1  C   UNL     1     -10.642  15.573  68.895  1.00  0.00    -0.240 C  
HETATM    2  C   UNL     1     -12.004  14.978  68.594  1.00  0.00    -0.278 C  
ENDROOT
BRANCH   2   3
HETATM    3  C   UNL     1     -11.931  13.874  67.535  1.00  0.00    -0.421 C  
BRANCH   3   4
HETATM    4  C   UNL     1     -11.011  14.317  66.402  1.00  0.00    -0.311 C  
BRANCH   4   5
HETATM    5  N   UNL     1     -11.367  13.679  65.139  1.00  0.00    -0.302 NA 
HETATM    6  H   UNL     1     -12.148  14.020  64.578  1.00  0.00     0.000 HD 
BRANCH   5   7
HETATM    7  C   UNL     1     -10.597  12.582  64.721  1.00  0.00    -0.305 A  
HETATM    8  C   UNL     1     -10.764  11.960  63.476  1.00  0.00    -0.504 A  
HETATM    9  C   UNL     1     -10.035  10.825  63.123  1.00  0.00    -0.341 A  
HETATM   10  C   UNL     1      -9.136  10.253  64.024  1.00  0.00    -0.283 A  
HETATM   11  C   UNL     1      -9.705  11.989  65.626  1.00  0.00    -0.241 A  
HETATM   12  C   UNL     1      -8.973  10.839  65.285  1.00  0.00    -0.211 A  
BRANCH  10  13
HETATM   13  C   UNL     1      -8.423   9.025  63.587  1.00  0.00    -0.167 C  
HETATM   14  O   UNL     1      -7.889   8.915  62.493  1.00  0.00    -0.119 OA 
BRANCH  13  15
HETATM   15  O   UNL     1      -8.475   8.063  64.536  1.00  0.00    -0.090 OA 
BRANCH  15  16
HETATM   16  C   UNL     1      -7.240   7.351  64.737  1.00  0.00    -0.072 C  
BRANCH  16  17
HETATM   17  C   UNL     1      -6.350   8.060  65.759  1.00  0.00    -0.042 C  
BRANCH  17  18
HETATM   18  O   UNL     1      -7.149   8.480  66.869  1.00  0.00    -0.073 OA 
BRANCH  18  19
HETATM   19  C   UNL     1      -7.141   7.506  67.911  1.00  0.00    -0.085 C  
BRANCH  19  20
HETATM   20  C   UNL     1      -7.051   8.206  69.260  1.00  0.00    -0.060 C  
BRANCH  20  21
HETATM   21  O   UNL     1      -6.371   7.353  70.181  1.00  0.00    -0.033 OA 
BRANCH  21  22
HETATM   22  C   UNL     1      -7.249   6.373  70.728  1.00  0.00    -0.074 C  
BRANCH  22  23
HETATM   23  C   UNL     1      -6.425   5.208  71.262  1.00  0.00    -0.031 C  
BRANCH  23  24
HETATM   24  O   UNL     1      -7.102   3.986  70.973  1.00  0.00    -0.032 OA 
BRANCH  24  25
HETATM   25  C   UNL     1      -7.390   3.873  69.581  1.00  0.00    -0.049 C  
BRANCH  25  26
HETATM   26  C   UNL     1      -8.446   2.797  69.378  1.00  0.00    -0.062 C  
BRANCH  26  27
HETATM   27  O   UNL     1      -9.650   3.408  68.921  1.00  0.00    -0.163 OA 
BRANCH  27  28
HETATM   28  C   UNL     1      -9.379   4.621  68.222  1.00  0.00    -0.136 C  
BRANCH  28  29
HETATM   29  C   UNL     1      -9.927   4.510  66.808  1.00  0.00    -0.215 C  
BRANCH  29  30
HETATM   30  O   UNL     1     -10.234   5.816  66.328  1.00  0.00    -0.153 OA 
BRANCH  30  31
HETATM   31  C   UNL     1     -10.822   6.615  67.352  1.00  0.00    -0.363 C  
BRANCH  31  32
HETATM   32  C   UNL     1     -10.632   8.083  67.003  1.00  0.00    -0.294 C  
BRANCH  32  33
HETATM   33  O   UNL     1     -10.374   8.812  68.199  1.00  0.00    -0.208 OA 
BRANCH  33  34
HETATM   34  C   UNL     1     -11.154  10.004  68.252  1.00  0.00    -0.190 C  
BRANCH  34  35
HETATM   35  C   UNL     1     -10.658  10.867  69.402  1.00  0.00    -0.197 C  
BRANCH  35  36
HETATM   36  O   UNL     1     -11.220  10.384  70.620  1.00  0.00    -0.319 OA 
BRANCH  36  37
HETATM   37  C   UNL     1     -12.607  10.092  70.468  1.00  0.00    -0.213 C  
BRANCH  37  38
HETATM   38  C   UNL     1     -13.295  10.242  71.817  1.00  0.00    -0.375 C  
BRANCH  38  39
HETATM   39  O   UNL     1     -12.817   9.230  72.699  1.00  0.00    -0.334 OA 
BRANCH  39  40
HETATM   40  C   UNL     1     -12.589   8.005  72.005  1.00  0.00    -0.312 C  
BRANCH  40  41
HETATM   41  C   UNL     1     -11.275   7.401  72.480  1.00  0.00    -0.317 C  
BRANCH  41  42
HETATM   42  O   UNL     1     -11.149   6.077  71.966  1.00  0.00    -0.250 OA 
HETATM   43  C   UNL     1     -11.279   5.107  72.997  1.00  0.00    -0.322 C  
ENDBRANCH  41  42
ENDBRANCH  40  41
ENDBRANCH  39  40
ENDBRANCH  38  39
ENDBRANCH  37  38
ENDBRANCH  36  37
ENDBRANCH  35  36
ENDBRANCH  34  35
ENDBRANCH  33  34
ENDBRANCH  32  33
ENDBRANCH  31  32
ENDBRANCH  30  31
ENDBRANCH  29  30
ENDBRANCH  28  29
ENDBRANCH  27  28
ENDBRANCH  26  27
ENDBRANCH  25  26
ENDBRANCH  24  25
ENDBRANCH  23  24
ENDBRANCH  22  23
ENDBRANCH  21  22
ENDBRANCH  20  21
ENDBRANCH  19  20
ENDBRANCH  18  19
ENDBRANCH  17  18
ENDBRANCH  16  17
ENDBRANCH  15  16
ENDBRANCH  13  15
ENDBRANCH  10  13
ENDBRANCH   5   7
ENDBRANCH   4   5
ENDBRANCH   3   4
ENDBRANCH   2   3
TORSDOF 33
ENDMDL
MODEL      157
REMARK 921   NORMALIZED FREE ENERGY PREDICTED BY IDOCK:   -3.03 KCAL/MOL
REMARK 922        TOTAL FREE ENERGY PREDICTED BY IDOCK:  -11.66 KCAL/MOL
REMARK 923 INTER-LIGAND FREE ENERGY PREDICTED BY IDOCK:   -9.82 KCAL/MOL
REMARK 924 INTRA-LIGAND FREE ENERGY PREDICTED BY IDOCK:   -1.85 KCAL/MOL
REMARK 927      BINDING AFFINITY PREDICTED BY RF-SCORE:    0.00 PKD
ROOT
HETATM    1  C   UNL     1     -11.184  12.586  63.394  1.00  0.00    -0.460 C  
HETATM    2  C   UNL     1     -11.513  13.287  64.698  1.00  0.00    -0.373 C  
ENDROOT
BRANCH   2   3
HETATM    3  C   UNL     1     -10.411  14.260  65.125  1.00  0.00    -0.440 C  
BRANCH   3   4
HETATM    4  C   UNL     1     -11.008  15.649  65.326  1.00  0.00    -0.364 C  
BRANCH   4   5
HETATM    5  N   UNL     1     -10.254  16.423  66.305  1.00  0.00    -0.316 NA 
HETATM    6  H   UNL     1      -9.465  17.005  66.023  1.00  0.00     0.000 HD 
BRANCH   5   7
HETATM    7  C   UNL     1     -10.650  16.341  67.650  1.00  0.00    -0.311 A  
HETATM    8  C   UNL     1     -10.143  17.182  68.650  1.00  0.00    -0.329 A  
HETATM    9  C   UNL     1     -10.501  17.023  69.989  1.00  0.00     0.209 A  
HETATM   10  C   UNL     1     -11.356  15.989  70.375  1.00  0.00    -0.405 A  
HETATM   11  C   UNL     1     -11.494  15.294  68.051  1.00  0.00    -0.351 A  
HETATM   12  C   UNL     1     -11.852  15.118  69.397  1.00  0.00    -0.357 A  
BRANCH  10  13
HETATM   13  C   UNL     1     -11.663  15.865  71.822  1.00  0.00    -0.491 C  
HETATM   14  O   UNL     1     -11.845  16.828  72.553  1.00  0.00    -0.421 OA 
BRANCH  13  15
HETATM   15  O   UNL     1     -11.680  14.569  72.211  1.00  0.00    -0.113 OA 
BRANCH  15  16
HETATM   16  C   UNL     1     -12.942  14.118  72.738  1.00  0.00    -0.422 C  
BRANCH  16  17
HETATM   17  C   UNL     1     -13.565  13.045  71.845  1.00  0.00    -0.332 C  
BRANCH  17  18
HETATM   18  O   UNL     1     -13.191  11.752  72.330  1.00  0.00    -0.438 OA 
BRANCH  18  19
HETATM   19  C   UNL     1     -13.134  10.798  71.271  1.00  0.00    -0.330 C  
BRANCH  19  20
HETATM   20  C   UNL     1     -12.203  11.306  70.179  1.00  0.00    -0.330 C  
BRANCH  20  21
HETATM   21  O   UNL     1     -11.199  10.323  69.931  1.00  0.00    -0.259 OA 
BRANCH  21  22
HETATM   22  C   UNL     1     -11.399   9.160  70.731  1.00  0.00    -0.280 C  
BRANCH  22  23
HETATM   23  C   UNL     1     -10.216   8.996  71.678  1.00  0.00    -0.348 C  
BRANCH  23  24
HETATM   24  O   UNL     1     -10.164   7.645  72.130  1.00  0.00    -0.192 OA 
BRANCH  24  25
HETATM   25  C   UNL     1      -9.873   7.577  73.524  1.00  0.00    -0.317 C  
BRANCH  25  26
HETATM   26  C   UNL     1     -10.587   6.375  74.123  1.00  0.00    -0.120 C  
BRANCH  26  27
HETATM   27  O   UNL     1     -11.108   5.571  73.068  1.00  0.00    -0.267 OA 
BRANCH  27  28
HETATM   28  C   UNL     1     -11.264   4.216  73.481  1.00  0.00    -0.250 C  
BRANCH  28  29
HETATM   29  C   UNL     1      -9.888   3.593  73.665  1.00  0.00    -0.112 C  
BRANCH  29  30
HETATM   30  O   UNL     1      -9.551   2.864  72.488  1.00  0.00    -0.103 OA 
BRANCH  30  31
HETATM   31  C   UNL     1      -8.138   2.776  72.324  1.00  0.00    -0.055 C  
BRANCH  31  32
HETATM   32  C   UNL     1      -7.668   3.934  71.456  1.00  0.00    -0.061 C  
BRANCH  32  33
HETATM   33  O   UNL     1      -8.742   4.346  70.616  1.00  0.00    -0.086 OA 
BRANCH  33  34
HETATM   34  C   UNL     1      -8.273   5.165  69.548  1.00  0.00    -0.093 C  
BRANCH  34  35
HETATM   35  C   UNL     1      -7.726   6.463  70.125  1.00  0.00    -0.098 C  
BRANCH  35  36
HETATM   36  O   UNL     1      -6.518   6.799  69.446  1.00  0.00    -0.040 OA 
BRANCH  36  37
HETATM   37  C   UNL     1      -6.333   8.211  69.391  1.00  0.00    -0.034 C  
BRANCH  37  38
HETATM   38  C   UNL     1      -7.555   8.845  68.742  1.00  0.00    -0.091 C  
BRANCH  38  39
HETATM   39  O   UNL     1      -7.940   8.066  67.612  1.00  0.00    -0.119 OA 
BRANCH  39  40
HETATM   40  C   UNL     1      -9.209   8.481  67.107  1.00  0.00    -0.142 C  
BRANCH  40  41
HETATM   41  C   UNL     1      -9.879   7.301  66.417  1.00  0.00    -0.054 C  
BRANCH  41  42
HETATM   42  O   UNL     1      -9.070   6.137  66.577  1.00  0.00    -0.139 OA 
HETATM   43  C   UNL     1      -9.713   4.984  66.053  1.00  0.00    -0.180 C  
ENDBRANCH  41  42
ENDBRANCH  40  41
ENDBRANCH  39  40
ENDBRANCH  38  39
ENDBRANCH  37  38
ENDBRANCH  36  37
ENDBRANCH  35  36
ENDBRANCH  34  35
ENDBRANCH  33  34
ENDBRANCH  32  33
ENDBRANCH  31  32
ENDBRANCH  30  31
ENDBRANCH  29  30
ENDBRANCH  28  29
ENDBRANCH  27  28
ENDBRANCH  26  27
ENDBRANCH  25  26
ENDBRANCH  24  25
ENDBRANCH  23  24
ENDBRANCH  22  23
ENDBRANCH  21  22
ENDBRANCH  20  21
ENDBRANCH  19  20
ENDBRANCH  18  19
ENDBRANCH  17  18
ENDBRANCH  16  17
ENDBRANCH  15  16
ENDBRANCH  13  15
ENDBRANCH  10  13
ENDBRANCH   5   7
ENDBRANCH   4   5
ENDBRANCH   3   4
ENDBRANCH   2   3
TORSDOF 33
ENDMDL
MODEL      158
REMARK 921   NORMALIZED FREE ENERGY PREDICTED BY IDOCK:   -3.00 KCAL/MOL
REMARK 922        TOTAL FREE ENERGY PREDICTED BY IDOCK:  -11.60 KCAL/MOL
REMARK 923 INTER-LIGAND FREE ENERGY PREDICTED BY IDOCK:   -8.47 KCAL/MOL
REMARK 924 INTRA-LIGAND FREE ENERGY PREDICTED BY IDOCK:   -3.13 KCAL/MOL
REMARK 927      BINDING AFFINITY PREDICTED BY RF-SCORE:    0.00 PKD
ROOT
HETATM    1  C   UNL     1      -9.938   1.806  71.661  1.00  0.00    -0.207 C  
HETATM    2  C   UNL     1      -9.795   3.283  71.350  1.00  0.00    -0.194 C  
ENDROOT
BRANCH   2   3
HETATM    3  C   UNL     1      -8.945   3.532  70.102  1.00  0.00    -0.174 C  
BRANCH   3   4
HETATM    4  C   UNL     1      -8.917   2.270  69.246  1.00  0.00    -0.107 C  
BRANCH   4   5
HETATM    5  N   UNL     1      -9.662   2.443  68.005  1.00  0.00    -0.278 NA 
HETATM    6  H   UNL     1     -10.538   1.946  67.842  1.00  0.00     0.000 HD 
BRANCH   5   7
HETATM    7  C   UNL     1      -9.133   3.316  67.040  1.00  0.00    -0.174 A  
HETATM    8  C   UNL     1      -7.873   3.136  66.454  1.00  0.00    -0.077 A  
HETATM    9  C   UNL     1      -7.347   4.064  65.556  1.00  0.00    -0.076 A  
HETATM   10  C   UNL     1      -8.056   5.225  65.240  1.00  0.00    -0.123 A  
HETATM   11  C   UNL     1      -9.830   4.493  66.731  1.00  0.00    -0.242 A  
HETATM   12  C   UNL     1      -9.304   5.440  65.836  1.00  0.00    -0.155 A  
BRANCH  10  13
HETATM   13  C   UNL     1      -7.414   6.181  64.302  1.00  0.00    -0.080 C  
HETATM   14  O   UNL     1      -6.322   6.691  64.510  1.00  0.00    -0.037 OA 
BRANCH  13  15
HETATM   15  O   UNL     1      -8.203   6.422  63.230  1.00  0.00    -0.076 OA 
BRANCH  15  16
HETATM   16  C   UNL     1      -7.752   7.494  62.383  1.00  0.00    -0.119 C  
BRANCH  16  17
HETATM   17  C   UNL     1      -8.388   8.825  62.785  1.00  0.00    -0.192 C  
BRANCH  17  18
HETATM   18  O   UNL     1      -7.396   9.655  63.400  1.00  0.00    -0.111 OA 
BRANCH  18  19
HETATM   19  C   UNL     1      -7.876  10.218  64.618  1.00  0.00    -0.123 C  
BRANCH  19  20
HETATM   20  C   UNL     1      -9.139   9.488  65.054  1.00  0.00    -0.228 C  
BRANCH  20  21
HETATM   21  O   UNL     1      -9.823  10.281  66.023  1.00  0.00    -0.206 OA 
BRANCH  21  22
HETATM   22  C   UNL     1      -9.594  11.673  65.812  1.00  0.00    -0.232 C  
BRANCH  22  23
HETATM   23  C   UNL     1      -9.177  12.315  67.130  1.00  0.00    -0.196 C  
BRANCH  23  24
HETATM   24  O   UNL     1      -8.974  13.711  66.924  1.00  0.00    -0.237 OA 
BRANCH  24  25
HETATM   25  C   UNL     1      -9.987  14.263  66.086  1.00  0.00    -0.314 C  
BRANCH  25  26
HETATM   26  C   UNL     1     -11.072  14.878  66.958  1.00  0.00    -0.338 C  
BRANCH  26  27
HETATM   27  O   UNL     1     -10.460  15.593  68.027  1.00  0.00    -0.251 OA 
BRANCH  27  28
HETATM   28  C   UNL     1     -11.050  15.253  69.279  1.00  0.00    -0.274 C  
BRANCH  28  29
HETATM   29  C   UNL     1     -11.988  14.072  69.081  1.00  0.00    -0.360 C  
BRANCH  29  30
HETATM   30  O   UNL     1     -11.804  13.152  70.154  1.00  0.00    -0.313 OA 
BRANCH  30  31
HETATM   31  C   UNL     1     -11.939  11.806  69.706  1.00  0.00    -0.322 C  
BRANCH  31  32
HETATM   32  C   UNL     1     -12.475  10.956  70.848  1.00  0.00    -0.408 C  
BRANCH  32  33
HETATM   33  O   UNL     1     -11.482  10.007  71.222  1.00  0.00    -0.364 OA 
BRANCH  33  34
HETATM   34  C   UNL     1     -11.996   8.679  71.170  1.00  0.00    -0.279 C  
BRANCH  34  35
HETATM   35  C   UNL     1     -12.011   8.100  72.577  1.00  0.00    -0.350 C  
BRANCH  35  36
HETATM   36  O   UNL     1     -10.936   7.174  72.708  1.00  0.00    -0.266 OA 
BRANCH  36  37
HETATM   37  C   UNL     1      -9.746   7.824  73.148  1.00  0.00    -0.285 C  
BRANCH  37  38
HETATM   38  C   UNL     1      -8.571   7.314  72.326  1.00  0.00    -0.116 C  
BRANCH  38  39
HETATM   39  O   UNL     1      -9.034   6.940  71.031  1.00  0.00    -0.150 OA 
BRANCH  39  40
HETATM   40  C   UNL     1      -8.113   7.341  70.017  1.00  0.00    -0.130 C  
BRANCH  40  41
HETATM   41  C   UNL     1      -8.552   8.682  69.448  1.00  0.00    -0.127 C  
BRANCH  41  42
HETATM   42  O   UNL     1      -7.663   9.065  68.400  1.00  0.00    -0.096 OA 
HETATM   43  C   UNL     1      -7.260   7.943  67.628  1.00  0.00    -0.088 C  
ENDBRANCH  41  42
ENDBRANCH  40  41
ENDBRANCH  39  40
ENDBRANCH  38  39
ENDBRANCH  37  38
ENDBRANCH  36  37
ENDBRANCH  35  36
ENDBRANCH  34  35
ENDBRANCH  33  34
ENDBRANCH  32  33
ENDBRANCH  31  32
ENDBRANCH  30  31
ENDBRANCH  29  30
ENDBRANCH  28  29
ENDBRANCH  27  28
ENDBRANCH  26  27
ENDBRANCH  25  26
ENDBRANCH  24  25
ENDBRANCH  23  24
ENDBRANCH  22  23
ENDBRANCH  21  22
ENDBRANCH  20  21
ENDBRANCH  19  20
ENDBRANCH  18  19
ENDBRANCH  17  18
ENDBRANCH  16  17
ENDBRANCH  15  16
ENDBRANCH  13  15
ENDBRANCH  10  13
ENDBRANCH   5   7
ENDBRANCH   4   5
ENDBRANCH   3   4
ENDBRANCH   2   3
TORSDOF 33
ENDMDL
MODEL      159
REMARK 921   NORMALIZED FREE ENERGY PREDICTED BY IDOCK:   -2.99 KCAL/MOL
REMARK 922        TOTAL FREE ENERGY PREDICTED BY IDOCK:  -11.55 KCAL/MOL
REMARK 923 INTER-LIGAND FREE ENERGY PREDICTED BY IDOCK:   -9.77 KCAL/MOL
REMARK 924 INTRA-LIGAND FREE ENERGY PREDICTED BY IDOCK:   -1.78 KCAL/MOL
REMARK 927      BINDING AFFINITY PREDICTED BY RF-SCORE:    0.00 PKD
ROOT
HETATM    1  C   UNL     1     -10.515  20.196  68.442  1.00  0.00    -0.310 C  
HETATM    2  C   UNL     1     -10.532  19.285  67.229  1.00  0.00    -0.566 C  
ENDROOT
BRANCH   2   3
HETATM    3  C   UNL     1      -9.506  19.708  66.175  1.00  0.00    -0.441 C  
BRANCH   3   4
HETATM    4  C   UNL     1      -8.204  18.945  66.398  1.00  0.00    -0.294 C  
BRANCH   4   5
HETATM    5  N   UNL     1      -8.196  18.255  67.682  1.00  0.00    -0.247 NA 
HETATM    6  H   UNL     1      -8.108  18.772  68.557  1.00  0.00     0.000 HD 
BRANCH   5   7
HETATM    7  C   UNL     1      -8.315  16.856  67.675  1.00  0.00    -0.184 A  
HETATM    8  C   UNL     1      -9.390  16.176  68.262  1.00  0.00    -0.205 A  
HETATM    9  C   UNL     1      -9.438  14.783  68.303  1.00  0.00    -0.207 A  
HETATM   10  C   UNL     1      -8.388  14.023  67.784  1.00  0.00    -0.176 A  
HETATM   11  C   UNL     1      -7.257  16.084  67.172  1.00  0.00    -0.257 A  
HETATM   12  C   UNL     1      -7.290  14.680  67.218  1.00  0.00    -0.122 A  
BRANCH  10  13
HETATM   13  C   UNL     1      -8.498  12.546  67.896  1.00  0.00    -0.171 C  
HETATM   14  O   UNL     1      -7.933  11.897  68.765  1.00  0.00    -0.123 OA 
BRANCH  13  15
HETATM   15  O   UNL     1      -9.265  12.034  66.907  1.00  0.00    -0.185 OA 
BRANCH  15  16
HETATM   16  C   UNL     1     -10.641  11.812  67.269  1.00  0.00    -0.224 C  
BRANCH  16  17
HETATM   17  C   UNL     1     -10.827  10.447  67.933  1.00  0.00    -0.279 C  
BRANCH  17  18
HETATM   18  O   UNL     1     -10.576   9.417  66.971  1.00  0.00    -0.251 OA 
BRANCH  18  19
HETATM   19  C   UNL     1      -9.591   8.499  67.441  1.00  0.00    -0.160 C  
BRANCH  19  20
HETATM   20  C   UNL     1      -9.546   7.287  66.521  1.00  0.00    -0.149 C  
BRANCH  20  21
HETATM   21  O   UNL     1      -9.880   6.121  67.272  1.00  0.00    -0.121 OA 
BRANCH  21  22
HETATM   22  C   UNL     1     -10.658   5.210  66.499  1.00  0.00    -0.260 C  
BRANCH  22  23
HETATM   23  C   UNL     1      -9.771   4.570  65.439  1.00  0.00    -0.187 C  
BRANCH  23  24
HETATM   24  O   UNL     1      -8.629   3.995  66.070  1.00  0.00    -0.109 OA 
BRANCH  24  25
HETATM   25  C   UNL     1      -8.981   2.827  66.809  1.00  0.00    -0.152 C  
BRANCH  25  26
HETATM   26  C   UNL     1      -8.425   2.945  68.220  1.00  0.00    -0.081 C  
BRANCH  26  27
HETATM   27  O   UNL     1      -9.485   3.289  69.109  1.00  0.00    -0.162 OA 
BRANCH  27  28
HETATM   28  C   UNL     1      -9.102   3.094  70.468  1.00  0.00    -0.123 C  
BRANCH  28  29
HETATM   29  C   UNL     1      -9.471   4.333  71.270  1.00  0.00    -0.160 C  
BRANCH  29  30
HETATM   30  O   UNL     1      -8.278   5.038  71.603  1.00  0.00    -0.110 OA 
BRANCH  30  31
HETATM   31  C   UNL     1      -8.151   6.229  70.830  1.00  0.00    -0.124 C  
BRANCH  31  32
HETATM   32  C   UNL     1      -9.389   7.088  71.038  1.00  0.00    -0.159 C  
BRANCH  32  33
HETATM   33  O   UNL     1      -9.267   7.782  72.275  1.00  0.00    -0.135 OA 
BRANCH  33  34
HETATM   34  C   UNL     1     -10.391   7.536  73.115  1.00  0.00    -0.347 C  
BRANCH  34  35
HETATM   35  C   UNL     1     -11.656   7.582  72.272  1.00  0.00    -0.310 C  
BRANCH  35  36
HETATM   36  O   UNL     1     -12.461   8.677  72.704  1.00  0.00    -0.375 OA 
BRANCH  36  37
HETATM   37  C   UNL     1     -13.525   8.927  71.790  1.00  0.00    -0.397 C  
BRANCH  37  38
HETATM   38  C   UNL     1     -13.328  10.300  71.164  1.00  0.00    -0.259 C  
BRANCH  38  39
HETATM   39  O   UNL     1     -13.451  11.296  72.176  1.00  0.00    -0.390 OA 
BRANCH  39  40
HETATM   40  C   UNL     1     -12.708  12.467  71.841  1.00  0.00    -0.087 C  
BRANCH  40  41
HETATM   41  C   UNL     1     -13.636  13.674  71.882  1.00  0.00    -0.427 C  
BRANCH  41  42
HETATM   42  O   UNL     1     -12.858  14.864  71.996  1.00  0.00    -0.300 OA 
HETATM   43  C   UNL     1     -12.638  15.461  70.725  1.00  0.00    -0.442 C  
ENDBRANCH  41  42
ENDBRANCH  40  41
ENDBRANCH  39  40
ENDBRANCH  38  39
ENDBRANCH  37  38
ENDBRANCH  36  37
ENDBRANCH  35  36
ENDBRANCH  34  35
ENDBRANCH  33  34
ENDBRANCH  32  33
ENDBRANCH  31  32
ENDBRANCH  30  31
ENDBRANCH  29  30
ENDBRANCH  28  29
ENDBRANCH  27  28
ENDBRANCH  26  27
ENDBRANCH  25  26
ENDBRANCH  24  25
ENDBRANCH  23  24
ENDBRANCH  22  23
ENDBRANCH  21  22
ENDBRANCH  20  21
ENDBRANCH  19  20
ENDBRANCH  18  19
ENDBRANCH  17  18
ENDBRANCH  16  17
ENDBRANCH  15  16
ENDBRANCH  13  15
ENDBRANCH  10  13
ENDBRANCH   5   7
ENDBRANCH   4   5
ENDBRANCH   3   4
ENDBRANCH   2   3
TORSDOF 33
ENDMDL
MODEL      160
REMARK 921   NORMALIZED FREE ENERGY PREDICTED BY IDOCK:   -2.97 KCAL/MOL
REMARK 922        TOTAL FREE ENERGY PREDICTED BY IDOCK:  -11.51 KCAL/MOL
REMARK 923 INTER-LIGAND FREE ENERGY PREDICTED BY IDOCK:   -9.55 KCAL/MOL
REMARK 924 INTRA-LIGAND FREE ENERGY PREDICTED BY IDOCK:   -1.96 KCAL/MOL
REMARK 927      BINDING AFFINITY PREDICTED BY RF-SCORE:    0.00 PKD
ROOT
HETATM    1  C   UNL     1      -9.457   4.932  64.021  1.00  0.00     0.231 C  
HETATM    2  C   UNL     1      -9.182   4.071  65.239  1.00  0.00    -0.151 C  
ENDROOT
BRANCH   2   3
HETATM    3  C   UNL     1      -9.066   4.901  66.520  1.00  0.00    -0.124 C  
BRANCH   3   4
HETATM    4  C   UNL     1      -9.068   3.973  67.730  1.00  0.00    -0.145 C  
BRANCH   4   5
HETATM    5  N   UNL     1      -8.700   4.679  68.952  1.00  0.00    -0.088 NA 
HETATM    6  H   UNL     1      -7.736   4.687  69.286  1.00  0.00     0.000 HD 
BRANCH   5   7
HETATM    7  C   UNL     1      -9.717   5.347  69.653  1.00  0.00    -0.177 A  
HETATM    8  C   UNL     1     -10.817   5.944  69.023  1.00  0.00    -0.383 A  
HETATM    9  C   UNL     1     -11.769   6.665  69.743  1.00  0.00    -0.279 A  
HETATM   10  C   UNL     1     -11.630   6.840  71.121  1.00  0.00    -0.377 A  
HETATM   11  C   UNL     1      -9.577   5.544  71.035  1.00  0.00    -0.217 A  
HETATM   12  C   UNL     1     -10.524   6.278  71.769  1.00  0.00    -0.249 A  
BRANCH  10  13
HETATM   13  C   UNL     1     -12.666   7.649  71.811  1.00  0.00    -0.330 C  
HETATM   14  O   UNL     1     -13.861   7.398  71.751  1.00  0.00    -0.363 OA 
BRANCH  13  15
HETATM   15  O   UNL     1     -12.116   8.693  72.472  1.00  0.00    -0.374 OA 
BRANCH  15  16
HETATM   16  C   UNL     1     -11.489   9.675  71.626  1.00  0.00    -0.305 C  
BRANCH  16  17
HETATM   17  C   UNL     1     -12.509  10.351  70.710  1.00  0.00    -0.368 C  
BRANCH  17  18
HETATM   18  O   UNL     1     -11.943  10.500  69.403  1.00  0.00    -0.246 OA 
BRANCH  18  19
HETATM   19  C   UNL     1     -10.520  10.432  69.444  1.00  0.00    -0.238 C  
BRANCH  19  20
HETATM   20  C   UNL     1     -10.002   9.830  68.145  1.00  0.00    -0.154 C  
BRANCH  20  21
HETATM   21  O   UNL     1     -10.788  10.321  67.060  1.00  0.00    -0.248 OA 
BRANCH  21  22
HETATM   22  C   UNL     1     -10.184  10.023  65.803  1.00  0.00    -0.200 C  
BRANCH  22  23
HETATM   23  C   UNL     1      -9.204  11.132  65.445  1.00  0.00    -0.205 C  
BRANCH  23  24
HETATM   24  O   UNL     1      -9.698  11.845  64.313  1.00  0.00    -0.210 OA 
BRANCH  24  25
HETATM   25  C   UNL     1     -10.868  11.225  63.784  1.00  0.00    -0.350 C  
BRANCH  25  26
HETATM   26  C   UNL     1     -12.060  12.147  63.999  1.00  0.00    -0.443 C  
BRANCH  26  27
HETATM   27  O   UNL     1     -11.611  13.499  63.975  1.00  0.00    -0.388 OA 
BRANCH  27  28
HETATM   28  C   UNL     1     -12.224  14.264  65.010  1.00  0.00    -0.433 C  
BRANCH  28  29
HETATM   29  C   UNL     1     -11.926  13.612  66.352  1.00  0.00    -0.426 C  
BRANCH  29  30
HETATM   30  O   UNL     1     -10.760  14.215  66.908  1.00  0.00    -0.282 OA 
BRANCH  30  31
HETATM   31  C   UNL     1     -10.946  15.616  67.097  1.00  0.00    -0.270 C  
BRANCH  31  32
HETATM   32  C   UNL     1     -10.061  16.369  66.117  1.00  0.00    -0.346 C  
BRANCH  32  33
HETATM   33  O   UNL     1      -9.306  17.343  66.830  1.00  0.00    -0.248 OA 
BRANCH  33  34
HETATM   34  C   UNL     1      -8.146  16.762  67.420  1.00  0.00    -0.170 C  
BRANCH  34  35
HETATM   35  C   UNL     1      -7.743  17.589  68.632  1.00  0.00    -0.275 C  
BRANCH  35  36
HETATM   36  O   UNL     1      -7.364  16.709  69.688  1.00  0.00    -0.071 OA 
BRANCH  36  37
HETATM   37  C   UNL     1      -6.006  16.298  69.554  1.00  0.00    -0.167 C  
BRANCH  37  38
HETATM   38  C   UNL     1      -5.816  14.973  70.280  1.00  0.00    -0.147 C  
BRANCH  38  39
HETATM   39  O   UNL     1      -5.139  14.062  69.418  1.00  0.00    -0.083 OA 
BRANCH  39  40
HETATM   40  C   UNL     1      -6.055  13.387  68.557  1.00  0.00    -0.085 C  
BRANCH  40  41
HETATM   41  C   UNL     1      -5.592  11.949  68.366  1.00  0.00    -0.049 C  
BRANCH  41  42
HETATM   42  O   UNL     1      -6.265  11.381  67.244  1.00  0.00    -0.071 OA 
HETATM   43  C   UNL     1      -5.449  10.424  66.583  1.00  0.00    -0.049 C  
ENDBRANCH  41  42
ENDBRANCH  40  41
ENDBRANCH  39  40
ENDBRANCH  38  39
ENDBRANCH  37  38
ENDBRANCH  36  37
ENDBRANCH  35  36
ENDBRANCH  34  35
ENDBRANCH  33  34
ENDBRANCH  32  33
ENDBRANCH  31  32
ENDBRANCH  30  31
ENDBRANCH  29  30
ENDBRANCH  28  29
ENDBRANCH  27  28
ENDBRANCH  26  27
ENDBRANCH  25  26
ENDBRANCH  24  25
ENDBRANCH  23  24
ENDBRANCH  22  23
ENDBRANCH  21  22
ENDBRANCH  20  21
ENDBRANCH  19  20
ENDBRANCH  18  19
ENDBRANCH  17  18
ENDBRANCH  16  17
ENDBRANCH  15  16
ENDBRANCH  13  15
ENDBRANCH  10  13
ENDBRANCH   5   7
ENDBRANCH   4   5
ENDBRANCH   3   4
ENDBRANCH   2   3
TORSDOF 33
ENDMDL
MODEL      161
REMARK 921   NORMALIZED FREE ENERGY PREDICTED BY IDOCK:   -2.95 KCAL/MOL
REMARK 922        TOTAL FREE ENERGY PREDICTED BY IDOCK:  -11.44 KCAL/MOL
REMARK 923 INTER-LIGAND FREE ENERGY PREDICTED BY IDOCK:   -8.69 KCAL/MOL
REMARK 924 INTRA-LIGAND FREE ENERGY PREDICTED BY IDOCK:   -2.75 KCAL/MOL
REMARK 927      BINDING AFFINITY PREDICTED BY RF-SCORE:    0.00 PKD
ROOT
HETATM    1  C   UNL     1      -9.905   1.867  71.610  1.00  0.00    -0.218 C  
HETATM    2  C   UNL     1      -9.737   3.335  71.265  1.00  0.00    -0.222 C  
ENDROOT
BRANCH   2   3
HETATM    3  C   UNL     1      -8.980   3.535  69.949  1.00  0.00    -0.173 C  
BRANCH   3   4
HETATM    4  C   UNL     1      -8.983   2.232  69.157  1.00  0.00    -0.109 C  
BRANCH   4   5
HETATM    5  N   UNL     1      -9.736   2.357  67.914  1.00  0.00    -0.309 NA 
HETATM    6  H   UNL     1     -10.636   1.892  67.795  1.00  0.00     0.000 HD 
BRANCH   5   7
HETATM    7  C   UNL     1      -9.182   3.141  66.889  1.00  0.00    -0.163 A  
HETATM    8  C   UNL     1      -7.915   2.899  66.341  1.00  0.00    -0.081 A  
HETATM    9  C   UNL     1      -7.364   3.743  65.377  1.00  0.00    -0.072 A  
HETATM   10  C   UNL     1      -8.054   4.880  64.953  1.00  0.00    -0.112 A  
HETATM   11  C   UNL     1      -9.860   4.295  66.469  1.00  0.00    -0.238 A  
HETATM   12  C   UNL     1      -9.309   5.157  65.507  1.00  0.00    -0.125 A  
BRANCH  10  13
HETATM   13  C   UNL     1      -7.386   5.746  63.948  1.00  0.00    -0.060 C  
HETATM   14  O   UNL     1      -6.171   5.844  63.852  1.00  0.00    -0.024 OA 
BRANCH  13  15
HETATM   15  O   UNL     1      -8.291   6.416  63.199  1.00  0.00    -0.026 OA 
BRANCH  15  16
HETATM   16  C   UNL     1      -7.834   7.687  62.702  1.00  0.00    -0.131 C  
BRANCH  16  17
HETATM   17  C   UNL     1      -8.052   8.797  63.730  1.00  0.00    -0.165 C  
BRANCH  17  18
HETATM   18  O   UNL     1      -6.786   9.205  64.259  1.00  0.00    -0.083 OA 
BRANCH  18  19
HETATM   19  C   UNL     1      -6.945   9.970  65.451  1.00  0.00    -0.127 C  
BRANCH  19  20
HETATM   20  C   UNL     1      -8.353   9.774  65.997  1.00  0.00    -0.120 C  
BRANCH  20  21
HETATM   21  O   UNL     1      -8.852  11.029  66.457  1.00  0.00    -0.158 OA 
BRANCH  21  22
HETATM   22  C   UNL     1      -7.794  11.884  66.887  1.00  0.00    -0.120 C  
BRANCH  22  23
HETATM   23  C   UNL     1      -7.934  12.137  68.383  1.00  0.00    -0.152 C  
BRANCH  23  24
HETATM   24  O   UNL     1      -7.233  13.332  68.721  1.00  0.00    -0.102 OA 
BRANCH  24  25
HETATM   25  C   UNL     1      -7.286  14.280  67.658  1.00  0.00    -0.176 C  
BRANCH  25  26
HETATM   26  C   UNL     1      -8.031  15.519  68.133  1.00  0.00    -0.131 C  
BRANCH  26  27
HETATM   27  O   UNL     1      -8.469  15.312  69.473  1.00  0.00    -0.247 OA 
BRANCH  27  28
HETATM   28  C   UNL     1      -9.884  15.449  69.580  1.00  0.00    -0.260 C  
BRANCH  28  29
HETATM   29  C   UNL     1     -10.445  15.865  68.229  1.00  0.00    -0.257 C  
BRANCH  29  30
HETATM   30  O   UNL     1     -11.512  14.986  67.882  1.00  0.00    -0.322 OA 
BRANCH  30  31
HETATM   31  C   UNL     1     -11.016  13.753  67.369  1.00  0.00    -0.284 C  
BRANCH  31  32
HETATM   32  C   UNL     1     -11.913  12.622  67.848  1.00  0.00    -0.249 C  
BRANCH  32  33
HETATM   33  O   UNL     1     -11.624  12.352  69.217  1.00  0.00    -0.282 OA 
BRANCH  33  34
HETATM   34  C   UNL     1     -11.654  10.953  69.481  1.00  0.00    -0.313 C  
BRANCH  34  35
HETATM   35  C   UNL     1     -12.088  10.733  70.923  1.00  0.00    -0.370 C  
BRANCH  35  36
HETATM   36  O   UNL     1     -13.363  10.096  70.932  1.00  0.00    -0.388 OA 
BRANCH  36  37
HETATM   37  C   UNL     1     -13.570   9.372  72.142  1.00  0.00    -0.457 C  
BRANCH  37  38
HETATM   38  C   UNL     1     -14.165   8.011  71.809  1.00  0.00    -0.456 C  
BRANCH  38  39
HETATM   39  O   UNL     1     -13.263   7.302  70.964  1.00  0.00    -0.283 OA 
BRANCH  39  40
HETATM   40  C   UNL     1     -12.229   6.675  71.722  1.00  0.00    -0.353 C  
BRANCH  40  41
HETATM   41  C   UNL     1     -10.881   7.017  71.103  1.00  0.00    -0.237 C  
BRANCH  41  42
HETATM   42  O   UNL     1     -10.152   7.860  71.993  1.00  0.00    -0.181 OA 
HETATM   43  C   UNL     1     -10.369   7.491  73.348  1.00  0.00    -0.350 C  
ENDBRANCH  41  42
ENDBRANCH  40  41
ENDBRANCH  39  40
ENDBRANCH  38  39
ENDBRANCH  37  38
ENDBRANCH  36  37
ENDBRANCH  35  36
ENDBRANCH  34  35
ENDBRANCH  33  34
ENDBRANCH  32  33
ENDBRANCH  31  32
ENDBRANCH  30  31
ENDBRANCH  29  30
ENDBRANCH  28  29
ENDBRANCH  27  28
ENDBRANCH  26  27
ENDBRANCH  25  26
ENDBRANCH  24  25
ENDBRANCH  23  24
ENDBRANCH  22  23
ENDBRANCH  21  22
ENDBRANCH  20  21
ENDBRANCH  19  20
ENDBRANCH  18  19
ENDBRANCH  17  18
ENDBRANCH  16  17
ENDBRANCH  15  16
ENDBRANCH  13  15
ENDBRANCH  10  13
ENDBRANCH   5   7
ENDBRANCH   4   5
ENDBRANCH   3   4
ENDBRANCH   2   3
TORSDOF 33
ENDMDL
MODEL      162
REMARK 921   NORMALIZED FREE ENERGY PREDICTED BY IDOCK:   -2.94 KCAL/MOL
REMARK 922        TOTAL FREE ENERGY PREDICTED BY IDOCK:  -11.41 KCAL/MOL
REMARK 923 INTER-LIGAND FREE ENERGY PREDICTED BY IDOCK:   -8.78 KCAL/MOL
REMARK 924 INTRA-LIGAND FREE ENERGY PREDICTED BY IDOCK:   -2.63 KCAL/MOL
REMARK 927      BINDING AFFINITY PREDICTED BY RF-SCORE:    0.00 PKD
ROOT
HETATM    1  C   UNL     1      -7.197   6.246  70.950  1.00  0.00    -0.071 C  
HETATM    2  C   UNL     1      -7.313   7.315  72.020  1.00  0.00    -0.079 C  
ENDROOT
BRANCH   2   3
HETATM    3  C   UNL     1      -5.946   7.744  72.559  1.00  0.00    -0.041 C  
BRANCH   3   4
HETATM    4  C   UNL     1      -5.749   9.236  72.317  1.00  0.00    -0.026 C  
BRANCH   4   5
HETATM    5  N   UNL     1      -5.574   9.534  70.900  1.00  0.00    -0.049 NA 
HETATM    6  H   UNL     1      -5.245   8.822  70.248  1.00  0.00     0.000 HD 
BRANCH   5   7
HETATM    7  C   UNL     1      -5.875  10.835  70.462  1.00  0.00    -0.119 A  
HETATM    8  C   UNL     1      -6.701  11.100  69.362  1.00  0.00    -0.120 A  
HETATM    9  C   UNL     1      -6.917  12.400  68.908  1.00  0.00    -0.091 A  
HETATM   10  C   UNL     1      -6.282  13.480  69.525  1.00  0.00    -0.115 A  
HETATM   11  C   UNL     1      -5.227  11.924  71.063  1.00  0.00    -0.128 A  
HETATM   12  C   UNL     1      -5.429  13.237  70.607  1.00  0.00    -0.165 A  
BRANCH  10  13
HETATM   13  C   UNL     1      -6.536  14.831  68.962  1.00  0.00    -0.100 C  
HETATM   14  O   UNL     1      -7.516  15.098  68.281  1.00  0.00    -0.103 OA 
BRANCH  13  15
HETATM   15  O   UNL     1      -5.540  15.689  69.276  1.00  0.00    -0.104 OA 
BRANCH  15  16
HETATM   16  C   UNL     1      -5.978  16.927  69.867  1.00  0.00    -0.219 C  
BRANCH  16  17
HETATM   17  C   UNL     1      -5.604  18.123  68.992  1.00  0.00    -0.194 C  
BRANCH  17  18
HETATM   18  O   UNL     1      -6.544  19.180  69.211  1.00  0.00    -0.288 OA 
BRANCH  18  19
HETATM   19  C   UNL     1      -7.844  18.821  68.751  1.00  0.00    -0.310 C  
BRANCH  19  20
HETATM   20  C   UNL     1      -7.824  18.671  67.235  1.00  0.00    -0.232 C  
BRANCH  20  21
HETATM   21  O   UNL     1      -8.832  17.739  66.847  1.00  0.00    -0.235 OA 
BRANCH  21  22
HETATM   22  C   UNL     1     -10.033  17.932  67.590  1.00  0.00    -0.324 C  
BRANCH  22  23
HETATM   23  C   UNL     1     -10.732  16.589  67.766  1.00  0.00    -0.329 C  
BRANCH  23  24
HETATM   24  O   UNL     1     -10.216  15.665  66.810  1.00  0.00    -0.263 OA 
BRANCH  24  25
HETATM   25  C   UNL     1     -11.100  15.525  65.700  1.00  0.00    -0.235 C  
BRANCH  25  26
HETATM   26  C   UNL     1     -10.541  14.476  64.749  1.00  0.00    -0.377 C  
BRANCH  26  27
HETATM   27  O   UNL     1     -11.624  13.810  64.105  1.00  0.00    -0.381 OA 
BRANCH  27  28
HETATM   28  C   UNL     1     -11.488  12.395  64.199  1.00  0.00    -0.381 C  
BRANCH  28  29
HETATM   29  C   UNL     1     -10.621  12.059  65.403  1.00  0.00    -0.278 C  
BRANCH  29  30
HETATM   30  O   UNL     1     -10.475  10.644  65.485  1.00  0.00    -0.248 OA 
BRANCH  30  31
HETATM   31  C   UNL     1      -9.235  10.289  66.091  1.00  0.00    -0.158 C  
BRANCH  31  32
HETATM   32  C   UNL     1      -9.512   9.461  67.337  1.00  0.00    -0.131 C  
BRANCH  32  33
HETATM   33  O   UNL     1      -8.803   8.230  67.240  1.00  0.00    -0.128 OA 
BRANCH  33  34
HETATM   34  C   UNL     1      -9.666   7.171  66.835  1.00  0.00    -0.186 C  
BRANCH  34  35
HETATM   35  C   UNL     1      -9.565   6.038  67.845  1.00  0.00    -0.116 C  
BRANCH  35  36
HETATM   36  O   UNL     1     -10.007   6.508  69.116  1.00  0.00    -0.142 OA 
BRANCH  36  37
HETATM   37  C   UNL     1     -11.356   6.121  69.368  1.00  0.00    -0.331 C  
BRANCH  37  38
HETATM   38  C   UNL     1     -11.804   6.722  70.693  1.00  0.00    -0.387 C  
BRANCH  38  39
HETATM   39  O   UNL     1     -10.654   7.063  71.463  1.00  0.00    -0.212 OA 
BRANCH  39  40
HETATM   40  C   UNL     1     -10.807   8.340  72.080  1.00  0.00    -0.320 C  
BRANCH  40  41
HETATM   41  C   UNL     1     -11.014   9.393  71.001  1.00  0.00    -0.338 C  
BRANCH  41  42
HETATM   42  O   UNL     1     -12.003  10.326  71.434  1.00  0.00    -0.368 OA 
HETATM   43  C   UNL     1     -12.997   9.694  72.229  1.00  0.00    -0.356 C  
ENDBRANCH  41  42
ENDBRANCH  40  41
ENDBRANCH  39  40
ENDBRANCH  38  39
ENDBRANCH  37  38
ENDBRANCH  36  37
ENDBRANCH  35  36
ENDBRANCH  34  35
ENDBRANCH  33  34
ENDBRANCH  32  33
ENDBRANCH  31  32
ENDBRANCH  30  31
ENDBRANCH  29  30
ENDBRANCH  28  29
ENDBRANCH  27  28
ENDBRANCH  26  27
ENDBRANCH  25  26
ENDBRANCH  24  25
ENDBRANCH  23  24
ENDBRANCH  22  23
ENDBRANCH  21  22
ENDBRANCH  20  21
ENDBRANCH  19  20
ENDBRANCH  18  19
ENDBRANCH  17  18
ENDBRANCH  16  17
ENDBRANCH  15  16
ENDBRANCH  13  15
ENDBRANCH  10  13
ENDBRANCH   5   7
ENDBRANCH   4   5
ENDBRANCH   3   4
ENDBRANCH   2   3
TORSDOF 33
ENDMDL
MODEL      163
REMARK 921   NORMALIZED FREE ENERGY PREDICTED BY IDOCK:   -2.94 KCAL/MOL
REMARK 922        TOTAL FREE ENERGY PREDICTED BY IDOCK:  -11.41 KCAL/MOL
REMARK 923 INTER-LIGAND FREE ENERGY PREDICTED BY IDOCK:   -8.62 KCAL/MOL
REMARK 924 INTRA-LIGAND FREE ENERGY PREDICTED BY IDOCK:   -2.79 KCAL/MOL
REMARK 927      BINDING AFFINITY PREDICTED BY RF-SCORE:    0.00 PKD
ROOT
HETATM    1  C   UNL     1      -9.255   5.786  67.718  1.00  0.00    -0.105 C  
HETATM    2  C   UNL     1      -9.444   6.195  66.270  1.00  0.00    -0.144 C  
ENDROOT
BRANCH   2   3
HETATM    3  C   UNL     1      -8.144   6.699  65.637  1.00  0.00    -0.125 C  
BRANCH   3   4
HETATM    4  C   UNL     1      -7.789   8.062  66.221  1.00  0.00    -0.099 C  
BRANCH   4   5
HETATM    5  N   UNL     1      -6.576   8.003  67.029  1.00  0.00    -0.056 NA 
HETATM    6  H   UNL     1      -5.661   7.878  66.597  1.00  0.00     0.000 HD 
BRANCH   5   7
HETATM    7  C   UNL     1      -6.710   8.126  68.422  1.00  0.00    -0.064 A  
HETATM    8  C   UNL     1      -6.004   7.327  69.331  1.00  0.00    -0.030 A  
HETATM    9  C   UNL     1      -6.218   7.423  70.706  1.00  0.00    -0.035 A  
HETATM   10  C   UNL     1      -7.176   8.303  71.214  1.00  0.00    -0.073 A  
HETATM   11  C   UNL     1      -7.682   8.994  68.940  1.00  0.00    -0.094 A  
HETATM   12  C   UNL     1      -7.914   9.091  70.322  1.00  0.00    -0.124 A  
BRANCH  10  13
HETATM   13  C   UNL     1      -7.369   8.323  72.686  1.00  0.00    -0.105 C  
HETATM   14  O   UNL     1      -6.633   8.933  73.449  1.00  0.00    -0.316 OA 
BRANCH  13  15
HETATM   15  O   UNL     1      -8.428   7.566  73.053  1.00  0.00    -0.116 OA 
BRANCH  15  16
HETATM   16  C   UNL     1      -9.692   8.255  73.037  1.00  0.00    -0.206 C  
BRANCH  16  17
HETATM   17  C   UNL     1     -10.850   7.296  73.310  1.00  0.00    -0.358 C  
BRANCH  17  18
HETATM   18  O   UNL     1     -11.351   6.795  72.066  1.00  0.00    -0.251 OA 
BRANCH  18  19
HETATM   19  C   UNL     1     -11.700   7.857  71.182  1.00  0.00    -0.285 C  
BRANCH  19  20
HETATM   20  C   UNL     1     -12.739   8.751  71.846  1.00  0.00    -0.374 C  
BRANCH  20  21
HETATM   21  O   UNL     1     -12.348  10.114  71.690  1.00  0.00    -0.387 OA 
BRANCH  21  22
HETATM   22  C   UNL     1     -12.829  10.656  70.462  1.00  0.00    -0.279 C  
BRANCH  22  23
HETATM   23  C   UNL     1     -11.677  11.331  69.728  1.00  0.00    -0.349 C  
BRANCH  23  24
HETATM   24  O   UNL     1     -11.038  10.375  68.885  1.00  0.00    -0.227 OA 
BRANCH  24  25
HETATM   25  C   UNL     1     -11.099  10.772  67.516  1.00  0.00    -0.308 C  
BRANCH  25  26
HETATM   26  C   UNL     1     -10.504  12.166  67.376  1.00  0.00    -0.213 C  
BRANCH  26  27
HETATM   27  O   UNL     1     -10.464  12.517  65.996  1.00  0.00    -0.250 OA 
BRANCH  27  28
HETATM   28  C   UNL     1     -11.710  13.059  65.565  1.00  0.00    -0.368 C  
BRANCH  28  29
HETATM   29  C   UNL     1     -11.483  14.472  65.050  1.00  0.00    -0.382 C  
BRANCH  29  30
HETATM   30  O   UNL     1     -11.238  15.334  66.158  1.00  0.00    -0.318 OA 
BRANCH  30  31
HETATM   31  C   UNL     1     -10.028  16.066  65.983  1.00  0.00    -0.339 C  
BRANCH  31  32
HETATM   32  C   UNL     1     -10.266  17.516  66.377  1.00  0.00    -0.354 C  
BRANCH  32  33
HETATM   33  O   UNL     1      -9.765  17.724  67.693  1.00  0.00    -0.271 OA 
BRANCH  33  34
HETATM   34  C   UNL     1      -8.953  16.631  68.112  1.00  0.00    -0.210 C  
BRANCH  34  35
HETATM   35  C   UNL     1      -7.543  17.138  68.380  1.00  0.00    -0.231 C  
BRANCH  35  36
HETATM   36  O   UNL     1      -6.755  16.957  67.206  1.00  0.00    -0.140 OA 
BRANCH  36  37
HETATM   37  C   UNL     1      -5.630  16.120  67.464  1.00  0.00    -0.136 C  
BRANCH  37  38
HETATM   38  C   UNL     1      -6.124  14.751  67.909  1.00  0.00    -0.154 C  
BRANCH  38  39
HETATM   39  O   UNL     1      -5.249  13.750  67.396  1.00  0.00    -0.337 OA 
BRANCH  39  40
HETATM   40  C   UNL     1      -5.536  12.472  67.964  1.00  0.00    -0.082 C  
BRANCH  40  41
HETATM   41  C   UNL     1      -6.219  11.604  66.915  1.00  0.00    -0.149 C  
BRANCH  41  42
HETATM   42  O   UNL     1      -5.272  10.686  66.373  1.00  0.00    -0.049 OA 
HETATM   43  C   UNL     1      -5.229  10.764  64.955  1.00  0.00    -0.126 C  
ENDBRANCH  41  42
ENDBRANCH  40  41
ENDBRANCH  39  40
ENDBRANCH  38  39
ENDBRANCH  37  38
ENDBRANCH  36  37
ENDBRANCH  35  36
ENDBRANCH  34  35
ENDBRANCH  33  34
ENDBRANCH  32  33
ENDBRANCH  31  32
ENDBRANCH  30  31
ENDBRANCH  29  30
ENDBRANCH  28  29
ENDBRANCH  27  28
ENDBRANCH  26  27
ENDBRANCH  25  26
ENDBRANCH  24  25
ENDBRANCH  23  24
ENDBRANCH  22  23
ENDBRANCH  21  22
ENDBRANCH  20  21
ENDBRANCH  19  20
ENDBRANCH  18  19
ENDBRANCH  17  18
ENDBRANCH  16  17
ENDBRANCH  15  16
ENDBRANCH  13  15
ENDBRANCH  10  13
ENDBRANCH   5   7
ENDBRANCH   4   5
ENDBRANCH   3   4
ENDBRANCH   2   3
TORSDOF 33
ENDMDL
MODEL      164
REMARK 921   NORMALIZED FREE ENERGY PREDICTED BY IDOCK:   -2.93 KCAL/MOL
REMARK 922        TOTAL FREE ENERGY PREDICTED BY IDOCK:  -11.38 KCAL/MOL
REMARK 923 INTER-LIGAND FREE ENERGY PREDICTED BY IDOCK:   -8.84 KCAL/MOL
REMARK 924 INTRA-LIGAND FREE ENERGY PREDICTED BY IDOCK:   -2.54 KCAL/MOL
REMARK 927      BINDING AFFINITY PREDICTED BY RF-SCORE:    0.00 PKD
ROOT
HETATM    1  C   UNL     1     -10.820  16.221  69.702  1.00  0.00    -0.345 C  
HETATM    2  C   UNL     1     -12.038  15.324  69.820  1.00  0.00    -0.357 C  
ENDROOT
BRANCH   2   3
HETATM    3  C   UNL     1     -12.159  14.356  68.640  1.00  0.00    -0.274 C  
BRANCH   3   4
HETATM    4  C   UNL     1     -11.349  14.886  67.462  1.00  0.00    -0.342 C  
BRANCH   4   5
HETATM    5  N   UNL     1     -11.897  14.438  66.187  1.00  0.00    -0.390 NA 
HETATM    6  H   UNL     1     -12.735  14.867  65.793  1.00  0.00     0.000 HD 
BRANCH   5   7
HETATM    7  C   UNL     1     -11.232  13.398  65.517  1.00  0.00    -0.288 A  
HETATM    8  C   UNL     1     -11.657  12.887  64.284  1.00  0.00    -0.434 A  
HETATM    9  C   UNL     1     -11.018  11.803  63.683  1.00  0.00    -0.513 A  
HETATM   10  C   UNL     1      -9.948  11.171  64.320  1.00  0.00    -0.359 A  
HETATM   11  C   UNL     1     -10.168  12.745  66.157  1.00  0.00    -0.286 A  
HETATM   12  C   UNL     1      -9.524  11.645  65.566  1.00  0.00    -0.215 A  
BRANCH  10  13
HETATM   13  C   UNL     1      -9.343  10.001  63.632  1.00  0.00    -0.253 C  
HETATM   14  O   UNL     1      -9.152   9.960  62.425  1.00  0.00    -0.253 OA 
BRANCH  13  15
HETATM   15  O   UNL     1      -9.069   9.006  64.506  1.00  0.00    -0.111 OA 
BRANCH  15  16
HETATM   16  C   UNL     1      -7.864   8.272  64.220  1.00  0.00    -0.144 C  
BRANCH  16  17
HETATM   17  C   UNL     1      -6.656   8.893  64.922  1.00  0.00    -0.069 C  
BRANCH  17  18
HETATM   18  O   UNL     1      -6.762   8.668  66.332  1.00  0.00    -0.068 OA 
BRANCH  18  19
HETATM   19  C   UNL     1      -6.523   7.300  66.658  1.00  0.00    -0.052 C  
BRANCH  19  20
HETATM   20  C   UNL     1      -5.990   7.203  68.080  1.00  0.00    -0.030 C  
BRANCH  20  21
HETATM   21  O   UNL     1      -5.253   5.989  68.218  1.00  0.00    -0.003 OA 
BRANCH  21  22
HETATM   22  C   UNL     1      -6.120   4.863  68.337  1.00  0.00    -0.030 C  
BRANCH  22  23
HETATM   23  C   UNL     1      -5.426   3.635  67.762  1.00  0.00    -0.020 C  
BRANCH  23  24
HETATM   24  O   UNL     1      -6.363   2.888  66.989  1.00  0.00    -0.033 OA 
BRANCH  24  25
HETATM   25  C   UNL     1      -7.270   3.750  66.304  1.00  0.00    -0.064 C  
BRANCH  25  26
HETATM   26  C   UNL     1      -8.572   3.003  66.054  1.00  0.00    -0.117 C  
BRANCH  26  27
HETATM   27  O   UNL     1      -9.486   3.298  67.107  1.00  0.00    -0.200 OA 
BRANCH  27  28
HETATM   28  C   UNL     1      -9.507   4.694  67.395  1.00  0.00    -0.153 C  
BRANCH  28  29
HETATM   29  C   UNL     1     -10.573   5.361  66.539  1.00  0.00    -0.289 C  
BRANCH  29  30
HETATM   30  O   UNL     1     -11.045   6.524  67.214  1.00  0.00    -0.378 OA 
BRANCH  30  31
HETATM   31  C   UNL     1     -11.112   6.310  68.621  1.00  0.00    -0.325 C  
BRANCH  31  32
HETATM   32  C   UNL     1     -10.729   7.597  69.336  1.00  0.00    -0.184 C  
BRANCH  32  33
HETATM   33  O   UNL     1      -9.745   7.302  70.322  1.00  0.00    -0.175 OA 
BRANCH  33  34
HETATM   34  C   UNL     1      -9.502   8.431  71.158  1.00  0.00    -0.179 C  
BRANCH  34  35
HETATM   35  C   UNL     1      -8.077   8.355  71.686  1.00  0.00    -0.144 C  
BRANCH  35  36
HETATM   36  O   UNL     1      -8.063   8.791  73.043  1.00  0.00    -0.409 OA 
BRANCH  36  37
HETATM   37  C   UNL     1      -8.732   7.861  73.891  1.00  0.00    -0.272 C  
BRANCH  37  38
HETATM   38  C   UNL     1      -7.977   6.539  73.868  1.00  0.00    -0.103 C  
BRANCH  38  39
HETATM   39  O   UNL     1      -8.914   5.469  73.778  1.00  0.00    -0.124 OA 
BRANCH  39  40
HETATM   40  C   UNL     1     -10.246   5.959  73.634  1.00  0.00    -0.226 C  
BRANCH  40  41
HETATM   41  C   UNL     1     -11.133   4.840  73.104  1.00  0.00    -0.310 C  
BRANCH  41  42
HETATM   42  O   UNL     1     -10.397   3.619  73.094  1.00  0.00    -0.148 OA 
HETATM   43  C   UNL     1     -11.220   2.517  73.452  1.00  0.00    -0.171 C  
ENDBRANCH  41  42
ENDBRANCH  40  41
ENDBRANCH  39  40
ENDBRANCH  38  39
ENDBRANCH  37  38
ENDBRANCH  36  37
ENDBRANCH  35  36
ENDBRANCH  34  35
ENDBRANCH  33  34
ENDBRANCH  32  33
ENDBRANCH  31  32
ENDBRANCH  30  31
ENDBRANCH  29  30
ENDBRANCH  28  29
ENDBRANCH  27  28
ENDBRANCH  26  27
ENDBRANCH  25  26
ENDBRANCH  24  25
ENDBRANCH  23  24
ENDBRANCH  22  23
ENDBRANCH  21  22
ENDBRANCH  20  21
ENDBRANCH  19  20
ENDBRANCH  18  19
ENDBRANCH  17  18
ENDBRANCH  16  17
ENDBRANCH  15  16
ENDBRANCH  13  15
ENDBRANCH  10  13
ENDBRANCH   5   7
ENDBRANCH   4   5
ENDBRANCH   3   4
ENDBRANCH   2   3
TORSDOF 33
ENDMDL
MODEL      165
REMARK 921   NORMALIZED FREE ENERGY PREDICTED BY IDOCK:   -2.88 KCAL/MOL
REMARK 922        TOTAL FREE ENERGY PREDICTED BY IDOCK:  -11.25 KCAL/MOL
REMARK 923 INTER-LIGAND FREE ENERGY PREDICTED BY IDOCK:   -7.96 KCAL/MOL
REMARK 924 INTRA-LIGAND FREE ENERGY PREDICTED BY IDOCK:   -3.29 KCAL/MOL
REMARK 927      BINDING AFFINITY PREDICTED BY RF-SCORE:    0.00 PKD
ROOT
HETATM    1  C   UNL     1     -12.292  15.661  73.526  1.00  0.00    -0.663 C  
HETATM    2  C   UNL     1     -12.907  14.347  73.085  1.00  0.00    -0.492 C  
ENDROOT
BRANCH   2   3
HETATM    3  C   UNL     1     -13.815  14.514  71.864  1.00  0.00    -0.545 C  
BRANCH   3   4
HETATM    4  C   UNL     1     -13.203  15.535  70.911  1.00  0.00    -0.415 C  
BRANCH   4   5
HETATM    5  N   UNL     1     -12.883  14.941  69.618  1.00  0.00    -0.526 NA 
HETATM    6  H   UNL     1     -13.617  14.581  69.008  1.00  0.00     0.000 HD 
BRANCH   5   7
HETATM    7  C   UNL     1     -11.532  14.883  69.240  1.00  0.00    -0.303 A  
HETATM    8  C   UNL     1     -10.674  15.989  69.293  1.00  0.00    -0.275 A  
HETATM    9  C   UNL     1      -9.358  15.915  68.838  1.00  0.00    -0.233 A  
HETATM   10  C   UNL     1      -8.867  14.733  68.281  1.00  0.00    -0.179 A  
HETATM   11  C   UNL     1     -11.035  13.705  68.662  1.00  0.00    -0.290 A  
HETATM   12  C   UNL     1      -9.714  13.623  68.191  1.00  0.00    -0.229 A  
BRANCH  10  13
HETATM   13  C   UNL     1      -7.466  14.743  67.789  1.00  0.00    -0.163 C  
HETATM   14  O   UNL     1      -7.006  15.641  67.098  1.00  0.00    -0.199 OA 
BRANCH  13  15
HETATM   15  O   UNL     1      -6.800  13.633  68.178  1.00  0.00    -0.091 OA 
BRANCH  15  16
HETATM   16  C   UNL     1      -6.145  13.742  69.455  1.00  0.00    -0.112 C  
BRANCH  16  17
HETATM   17  C   UNL     1      -5.157  12.597  69.674  1.00  0.00    -0.073 C  
BRANCH  17  18
HETATM   18  O   UNL     1      -5.623  11.434  68.981  1.00  0.00    -0.040 OA 
BRANCH  18  19
HETATM   19  C   UNL     1      -5.201  10.239  69.633  1.00  0.00    -0.038 C  
BRANCH  19  20
HETATM   20  C   UNL     1      -5.473  10.352  71.127  1.00  0.00    -0.071 C  
BRANCH  20  21
HETATM   21  O   UNL     1      -6.667   9.635  71.438  1.00  0.00    -0.311 OA 
BRANCH  21  22
HETATM   22  C   UNL     1      -6.402   8.531  72.301  1.00  0.00    -0.073 C  
BRANCH  22  23
HETATM   23  C   UNL     1      -7.723   7.943  72.778  1.00  0.00    -0.116 C  
BRANCH  23  24
HETATM   24  O   UNL     1      -8.746   8.266  71.838  1.00  0.00    -0.138 OA 
BRANCH  24  25
HETATM   25  C   UNL     1      -9.881   8.836  72.486  1.00  0.00    -0.063 C  
BRANCH  25  26
HETATM   26  C   UNL     1     -11.081   8.747  71.554  1.00  0.00    -0.307 C  
BRANCH  26  27
HETATM   27  O   UNL     1     -10.625   8.774  70.205  1.00  0.00    -0.211 OA 
BRANCH  27  28
HETATM   28  C   UNL     1     -10.778  10.072  69.635  1.00  0.00    -0.255 C  
BRANCH  28  29
HETATM   29  C   UNL     1      -9.809  10.220  68.472  1.00  0.00    -0.164 C  
BRANCH  29  30
HETATM   30  O   UNL     1     -10.259   9.409  67.390  1.00  0.00    -0.206 OA 
BRANCH  30  31
HETATM   31  C   UNL     1      -9.324   9.420  66.315  1.00  0.00    -0.198 C  
BRANCH  31  32
HETATM   32  C   UNL     1      -7.918   9.286  66.880  1.00  0.00    -0.105 C  
BRANCH  32  33
HETATM   33  O   UNL     1      -7.350   8.064  66.418  1.00  0.00    -0.080 OA 
BRANCH  33  34
HETATM   34  C   UNL     1      -5.973   7.973  66.770  1.00  0.00    -0.052 C  
BRANCH  34  35
HETATM   35  C   UNL     1      -5.679   6.561  67.252  1.00  0.00    -0.013 C  
BRANCH  35  36
HETATM   36  O   UNL     1      -5.312   6.608  68.629  1.00  0.00    -0.014 OA 
BRANCH  36  37
HETATM   37  C   UNL     1      -6.016   5.624  69.384  1.00  0.00    -0.020 C  
BRANCH  37  38
HETATM   38  C   UNL     1      -7.345   5.334  68.702  1.00  0.00    -0.070 C  
BRANCH  38  39
HETATM   39  O   UNL     1      -8.341   6.204  69.233  1.00  0.00    -0.114 OA 
BRANCH  39  40
HETATM   40  C   UNL     1      -9.505   6.223  68.406  1.00  0.00    -0.118 C  
BRANCH  40  41
HETATM   41  C   UNL     1      -9.393   5.119  67.364  1.00  0.00    -0.120 C  
BRANCH  41  42
HETATM   42  O   UNL     1      -9.709   5.649  66.078  1.00  0.00    -0.139 OA 
HETATM   43  C   UNL     1      -8.869   5.100  65.072  1.00  0.00    -0.134 C  
ENDBRANCH  41  42
ENDBRANCH  40  41
ENDBRANCH  39  40
ENDBRANCH  38  39
ENDBRANCH  37  38
ENDBRANCH  36  37
ENDBRANCH  35  36
ENDBRANCH  34  35
ENDBRANCH  33  34
ENDBRANCH  32  33
ENDBRANCH  31  32
ENDBRANCH  30  31
ENDBRANCH  29  30
ENDBRANCH  28  29
ENDBRANCH  27  28
ENDBRANCH  26  27
ENDBRANCH  25  26
ENDBRANCH  24  25
ENDBRANCH  23  24
ENDBRANCH  22  23
ENDBRANCH  21  22
ENDBRANCH  20  21
ENDBRANCH  19  20
ENDBRANCH  18  19
ENDBRANCH  17  18
ENDBRANCH  16  17
ENDBRANCH  15  16
ENDBRANCH  13  15
ENDBRANCH  10  13
ENDBRANCH   5   7
ENDBRANCH   4   5
ENDBRANCH   3   4
ENDBRANCH   2   3
TORSDOF 33
ENDMDL
MODEL      166
REMARK 921   NORMALIZED FREE ENERGY PREDICTED BY IDOCK:   -2.88 KCAL/MOL
REMARK 922        TOTAL FREE ENERGY PREDICTED BY IDOCK:  -11.24 KCAL/MOL
REMARK 923 INTER-LIGAND FREE ENERGY PREDICTED BY IDOCK:   -8.59 KCAL/MOL
REMARK 924 INTRA-LIGAND FREE ENERGY PREDICTED BY IDOCK:   -2.65 KCAL/MOL
REMARK 927      BINDING AFFINITY PREDICTED BY RF-SCORE:    0.00 PKD
ROOT
HETATM    1  C   UNL     1      -5.740   4.317  72.620  1.00  0.00    -0.011 C  
HETATM    2  C   UNL     1      -6.063   3.281  71.561  1.00  0.00    -0.014 C  
ENDROOT
BRANCH   2   3
HETATM    3  C   UNL     1      -6.825   3.882  70.377  1.00  0.00    -0.033 C  
BRANCH   3   4
HETATM    4  C   UNL     1      -8.224   3.278  70.313  1.00  0.00    -0.044 C  
BRANCH   4   5
HETATM    5  N   UNL     1      -8.969   3.511  71.544  1.00  0.00    -0.098 NA 
HETATM    6  H   UNL     1      -8.754   2.993  72.396  1.00  0.00     0.000 HD 
BRANCH   5   7
HETATM    7  C   UNL     1      -9.993   4.472  71.519  1.00  0.00    -0.189 A  
HETATM    8  C   UNL     1     -10.392   5.133  70.349  1.00  0.00    -0.326 A  
HETATM    9  C   UNL     1     -11.360   6.137  70.373  1.00  0.00    -0.399 A  
HETATM   10  C   UNL     1     -11.936   6.536  71.580  1.00  0.00    -0.387 A  
HETATM   11  C   UNL     1     -10.564   4.893  72.728  1.00  0.00    -0.273 A  
HETATM   12  C   UNL     1     -11.532   5.911  72.765  1.00  0.00    -0.274 A  
BRANCH  10  13
HETATM   13  C   UNL     1     -12.934   7.635  71.527  1.00  0.00    -0.341 C  
HETATM   14  O   UNL     1     -14.105   7.461  71.222  1.00  0.00    -0.396 OA 
BRANCH  13  15
HETATM   15  O   UNL     1     -12.369   8.827  71.825  1.00  0.00    -0.309 OA 
BRANCH  15  16
HETATM   16  C   UNL     1     -11.100   9.065  71.188  1.00  0.00    -0.301 C  
BRANCH  16  17
HETATM   17  C   UNL     1     -11.226  10.097  70.068  1.00  0.00    -0.299 C  
BRANCH  17  18
HETATM   18  O   UNL     1     -12.471  10.789  70.202  1.00  0.00    -0.323 OA 
BRANCH  18  19
HETATM   19  C   UNL     1     -12.276  12.200  70.257  1.00  0.00    -0.264 C  
BRANCH  19  20
HETATM   20  C   UNL     1     -11.812  12.703  68.897  1.00  0.00    -0.302 C  
BRANCH  20  21
HETATM   21  O   UNL     1     -12.257  14.047  68.722  1.00  0.00    -0.337 OA 
BRANCH  21  22
HETATM   22  C   UNL     1     -11.814  14.585  67.478  1.00  0.00    -0.374 C  
BRANCH  22  23
HETATM   23  C   UNL     1     -12.525  13.863  66.340  1.00  0.00    -0.370 C  
BRANCH  23  24
HETATM   24  O   UNL     1     -11.561  13.447  65.376  1.00  0.00    -0.304 OA 
BRANCH  24  25
HETATM   25  C   UNL     1     -11.546  12.027  65.240  1.00  0.00    -0.279 C  
BRANCH  25  26
HETATM   26  C   UNL     1     -11.762  11.666  63.777  1.00  0.00    -0.303 C  
BRANCH  26  27
HETATM   27  O   UNL     1     -10.720  12.246  62.997  1.00  0.00    -0.266 OA 
BRANCH  27  28
HETATM   28  C   UNL     1      -9.481  11.574  63.210  1.00  0.00    -0.284 C  
BRANCH  28  29
HETATM   29  C   UNL     1      -9.468  10.288  62.397  1.00  0.00    -0.217 C  
BRANCH  29  30
HETATM   30  O   UNL     1      -9.158   9.199  63.262  1.00  0.00    -0.086 OA 
BRANCH  30  31
HETATM   31  C   UNL     1      -8.148   9.558  64.201  1.00  0.00    -0.147 C  
BRANCH  31  32
HETATM   32  C   UNL     1      -7.169   8.403  64.341  1.00  0.00    -0.087 C  
BRANCH  32  33
HETATM   33  O   UNL     1      -7.053   8.061  65.719  1.00  0.00    -0.062 OA 
BRANCH  33  34
HETATM   34  C   UNL     1      -8.326   7.755  66.281  1.00  0.00    -0.131 C  
BRANCH  34  35
HETATM   35  C   UNL     1      -8.577   8.678  67.464  1.00  0.00    -0.135 C  
BRANCH  35  36
HETATM   36  O   UNL     1      -7.369   9.364  67.782  1.00  0.00    -0.082 OA 
BRANCH  36  37
HETATM   37  C   UNL     1      -7.630  10.699  68.206  1.00  0.00    -0.097 C  
BRANCH  37  38
HETATM   38  C   UNL     1      -6.960  10.931  69.553  1.00  0.00    -0.131 C  
BRANCH  38  39
HETATM   39  O   UNL     1      -6.349   9.719  69.985  1.00  0.00    -0.050 OA 
BRANCH  39  40
HETATM   40  C   UNL     1      -6.846   9.315  71.260  1.00  0.00    -0.025 C  
BRANCH  40  41
HETATM   41  C   UNL     1      -6.708   7.804  71.392  1.00  0.00    -0.045 C  
BRANCH  41  42
HETATM   42  O   UNL     1      -7.941   7.255  71.853  1.00  0.00    -0.091 OA 
HETATM   43  C   UNL     1      -8.032   7.308  73.270  1.00  0.00    -0.105 C  
ENDBRANCH  41  42
ENDBRANCH  40  41
ENDBRANCH  39  40
ENDBRANCH  38  39
ENDBRANCH  37  38
ENDBRANCH  36  37
ENDBRANCH  35  36
ENDBRANCH  34  35
ENDBRANCH  33  34
ENDBRANCH  32  33
ENDBRANCH  31  32
ENDBRANCH  30  31
ENDBRANCH  29  30
ENDBRANCH  28  29
ENDBRANCH  27  28
ENDBRANCH  26  27
ENDBRANCH  25  26
ENDBRANCH  24  25
ENDBRANCH  23  24
ENDBRANCH  22  23
ENDBRANCH  21  22
ENDBRANCH  20  21
ENDBRANCH  19  20
ENDBRANCH  18  19
ENDBRANCH  17  18
ENDBRANCH  16  17
ENDBRANCH  15  16
ENDBRANCH  13  15
ENDBRANCH  10  13
ENDBRANCH   5   7
ENDBRANCH   4   5
ENDBRANCH   3   4
ENDBRANCH   2   3
TORSDOF 33
ENDMDL
MODEL      167
REMARK 921   NORMALIZED FREE ENERGY PREDICTED BY IDOCK:   -2.87 KCAL/MOL
REMARK 922        TOTAL FREE ENERGY PREDICTED BY IDOCK:  -11.21 KCAL/MOL
REMARK 923 INTER-LIGAND FREE ENERGY PREDICTED BY IDOCK:   -8.05 KCAL/MOL
REMARK 924 INTRA-LIGAND FREE ENERGY PREDICTED BY IDOCK:   -3.16 KCAL/MOL
REMARK 927      BINDING AFFINITY PREDICTED BY RF-SCORE:    0.00 PKD
ROOT
HETATM    1  C   UNL     1      -8.251   3.525  65.895  1.00  0.00    -0.097 C  
HETATM    2  C   UNL     1      -9.264   3.811  64.803  1.00  0.00    -0.146 C  
ENDROOT
BRANCH   2   3
HETATM    3  C   UNL     1      -9.076   5.202  64.191  1.00  0.00     0.133 C  
BRANCH   3   4
HETATM    4  C   UNL     1      -8.017   5.966  64.978  1.00  0.00    -0.123 C  
BRANCH   4   5
HETATM    5  N   UNL     1      -7.537   7.132  64.246  1.00  0.00    -0.105 NA 
HETATM    6  H   UNL     1      -6.650   7.109  63.742  1.00  0.00     0.000 HD 
BRANCH   5   7
HETATM    7  C   UNL     1      -8.336   8.286  64.256  1.00  0.00    -0.060 A  
HETATM    8  C   UNL     1      -8.532   9.092  63.127  1.00  0.00    -0.185 A  
HETATM    9  C   UNL     1      -9.270  10.273  63.191  1.00  0.00    -0.311 A  
HETATM   10  C   UNL     1      -9.809  10.705  64.405  1.00  0.00    -0.395 A  
HETATM   11  C   UNL     1      -8.866   8.738  65.474  1.00  0.00    -0.229 A  
HETATM   12  C   UNL     1      -9.602   9.933  65.553  1.00  0.00    -0.341 A  
BRANCH  10  13
HETATM   13  C   UNL     1     -10.553  11.991  64.399  1.00  0.00    -0.318 C  
HETATM   14  O   UNL     1     -10.359  12.872  63.574  1.00  0.00    -0.304 OA 
BRANCH  13  15
HETATM   15  O   UNL     1     -11.429  12.055  65.427  1.00  0.00    -0.340 OA 
BRANCH  15  16
HETATM   16  C   UNL     1     -11.296  13.225  66.256  1.00  0.00    -0.309 C  
BRANCH  16  17
HETATM   17  C   UNL     1     -10.250  13.015  67.350  1.00  0.00    -0.231 C  
BRANCH  17  18
HETATM   18  O   UNL     1     -10.744  13.546  68.584  1.00  0.00    -0.245 OA 
BRANCH  18  19
HETATM   19  C   UNL     1     -12.071  13.097  68.846  1.00  0.00    -0.194 C  
BRANCH  19  20
HETATM   20  C   UNL     1     -12.032  11.958  69.857  1.00  0.00    -0.325 C  
BRANCH  20  21
HETATM   21  O   UNL     1     -12.309  12.480  71.155  1.00  0.00    -0.309 OA 
BRANCH  21  22
HETATM   22  C   UNL     1     -13.023  11.539  71.953  1.00  0.00    -0.348 C  
BRANCH  22  23
HETATM   23  C   UNL     1     -13.144  10.227  71.189  1.00  0.00    -0.390 C  
BRANCH  23  24
HETATM   24  O   UNL     1     -12.895   9.142  72.081  1.00  0.00    -0.371 OA 
BRANCH  24  25
HETATM   25  C   UNL     1     -11.530   8.733  72.026  1.00  0.00    -0.371 C  
BRANCH  25  26
HETATM   26  C   UNL     1     -11.287   7.986  70.723  1.00  0.00    -0.272 C  
BRANCH  26  27
HETATM   27  O   UNL     1      -9.883   7.858  70.516  1.00  0.00    -0.185 OA 
BRANCH  27  28
HETATM   28  C   UNL     1      -9.203   9.071  70.831  1.00  0.00    -0.259 C  
BRANCH  28  29
HETATM   29  C   UNL     1      -8.873   9.803  69.539  1.00  0.00    -0.193 C  
BRANCH  29  30
HETATM   30  O   UNL     1      -8.100   8.943  68.706  1.00  0.00    -0.110 OA 
BRANCH  30  31
HETATM   31  C   UNL     1      -6.742   8.896  69.135  1.00  0.00    -0.051 C  
BRANCH  31  32
HETATM   32  C   UNL     1      -6.249   7.459  69.058  1.00  0.00    -0.035 C  
BRANCH  32  33
HETATM   33  O   UNL     1      -7.367   6.582  69.153  1.00  0.00    -0.088 OA 
BRANCH  33  34
HETATM   34  C   UNL     1      -7.136   5.558  70.116  1.00  0.00    -0.066 C  
BRANCH  34  35
HETATM   35  C   UNL     1      -7.085   6.185  71.501  1.00  0.00    -0.078 C  
BRANCH  35  36
HETATM   36  O   UNL     1      -7.092   5.149  72.480  1.00  0.00    -0.080 OA 
BRANCH  36  37
HETATM   37  C   UNL     1      -8.032   5.425  73.516  1.00  0.00    -0.110 C  
BRANCH  37  38
HETATM   38  C   UNL     1      -9.432   5.101  73.013  1.00  0.00    -0.142 C  
BRANCH  38  39
HETATM   39  O   UNL     1      -9.498   3.719  72.675  1.00  0.00    -0.117 OA 
BRANCH  39  40
HETATM   40  C   UNL     1      -9.978   3.534  71.343  1.00  0.00    -0.081 C  
BRANCH  40  41
HETATM   41  C   UNL     1      -9.014   2.631  70.587  1.00  0.00    -0.096 C  
BRANCH  41  42
HETATM   42  O   UNL     1      -9.285   2.714  69.190  1.00  0.00    -0.123 OA 
HETATM   43  C   UNL     1      -9.745   1.471  68.677  1.00  0.00    -0.048 C  
ENDBRANCH  41  42
ENDBRANCH  40  41
ENDBRANCH  39  40
ENDBRANCH  38  39
ENDBRANCH  37  38
ENDBRANCH  36  37
ENDBRANCH  35  36
ENDBRANCH  34  35
ENDBRANCH  33  34
ENDBRANCH  32  33
ENDBRANCH  31  32
ENDBRANCH  30  31
ENDBRANCH  29  30
ENDBRANCH  28  29
ENDBRANCH  27  28
ENDBRANCH  26  27
ENDBRANCH  25  26
ENDBRANCH  24  25
ENDBRANCH  23  24
ENDBRANCH  22  23
ENDBRANCH  21  22
ENDBRANCH  20  21
ENDBRANCH  19  20
ENDBRANCH  18  19
ENDBRANCH  17  18
ENDBRANCH  16  17
ENDBRANCH  15  16
ENDBRANCH  13  15
ENDBRANCH  10  13
ENDBRANCH   5   7
ENDBRANCH   4   5
ENDBRANCH   3   4
ENDBRANCH   2   3
TORSDOF 33
ENDMDL
MODEL      168
REMARK 921   NORMALIZED FREE ENERGY PREDICTED BY IDOCK:   -2.86 KCAL/MOL
REMARK 922        TOTAL FREE ENERGY PREDICTED BY IDOCK:  -11.18 KCAL/MOL
REMARK 923 INTER-LIGAND FREE ENERGY PREDICTED BY IDOCK:   -9.02 KCAL/MOL
REMARK 924 INTRA-LIGAND FREE ENERGY PREDICTED BY IDOCK:   -2.16 KCAL/MOL
REMARK 927      BINDING AFFINITY PREDICTED BY RF-SCORE:    0.00 PKD
ROOT
HETATM    1  C   UNL     1      -5.647   4.369  73.676  1.00  0.00    -0.008 C  
HETATM    2  C   UNL     1      -5.841   3.216  72.710  1.00  0.00    -0.008 C  
ENDROOT
BRANCH   2   3
HETATM    3  C   UNL     1      -6.466   3.670  71.388  1.00  0.00    -0.018 C  
BRANCH   3   4
HETATM    4  C   UNL     1      -7.642   2.762  71.043  1.00  0.00    -0.036 C  
BRANCH   4   5
HETATM    5  N   UNL     1      -8.702   2.850  72.040  1.00  0.00    -0.072 NA 
HETATM    6  H   UNL     1      -8.743   2.199  72.824  1.00  0.00     0.000 HD 
BRANCH   5   7
HETATM    7  C   UNL     1      -9.664   3.861  71.886  1.00  0.00    -0.169 A  
HETATM    8  C   UNL     1      -9.850   4.564  70.687  1.00  0.00    -0.292 A  
HETATM    9  C   UNL     1     -10.762   5.614  70.591  1.00  0.00    -0.333 A  
HETATM   10  C   UNL     1     -11.496   6.019  71.708  1.00  0.00    -0.314 A  
HETATM   11  C   UNL     1     -10.393   4.287  73.006  1.00  0.00    -0.239 A  
HETATM   12  C   UNL     1     -11.306   5.351  72.923  1.00  0.00    -0.365 A  
BRANCH  10  13
HETATM   13  C   UNL     1     -12.422   7.167  71.534  1.00  0.00    -0.381 C  
HETATM   14  O   UNL     1     -13.382   7.144  70.776  1.00  0.00    -0.084 OA 
BRANCH  13  15
HETATM   15  O   UNL     1     -12.043   8.222  72.289  1.00  0.00    -0.341 OA 
BRANCH  15  16
HETATM   16  C   UNL     1     -10.928   8.966  71.764  1.00  0.00    -0.361 C  
BRANCH  16  17
HETATM   17  C   UNL     1     -11.379   9.963  70.696  1.00  0.00    -0.339 C  
BRANCH  17  18
HETATM   18  O   UNL     1     -12.660  10.491  71.055  1.00  0.00    -0.333 OA 
BRANCH  18  19
HETATM   19  C   UNL     1     -12.634  11.915  71.117  1.00  0.00    -0.288 C  
BRANCH  19  20
HETATM   20  C   UNL     1     -11.905  12.464  69.898  1.00  0.00    -0.305 C  
BRANCH  20  21
HETATM   21  O   UNL     1     -12.120  13.873  69.823  1.00  0.00    -0.313 OA 
BRANCH  21  22
HETATM   22  C   UNL     1     -11.394  14.454  68.743  1.00  0.00    -0.273 C  
BRANCH  22  23
HETATM   23  C   UNL     1     -12.116  14.152  67.436  1.00  0.00    -0.344 C  
BRANCH  23  24
HETATM   24  O   UNL     1     -11.191  13.582  66.512  1.00  0.00    -0.297 OA 
BRANCH  24  25
HETATM   25  C   UNL     1     -11.636  12.307  66.056  1.00  0.00    -0.393 C  
BRANCH  25  26
HETATM   26  C   UNL     1     -12.169  12.444  64.637  1.00  0.00    -0.425 C  
BRANCH  26  27
HETATM   27  O   UNL     1     -11.103  12.836  63.777  1.00  0.00    -0.410 OA 
BRANCH  27  28
HETATM   28  C   UNL     1      -9.938  12.047  64.007  1.00  0.00    -0.291 C  
BRANCH  28  29
HETATM   29  C   UNL     1      -9.791  11.040  62.877  1.00  0.00    -0.284 C  
BRANCH  29  30
HETATM   30  O   UNL     1      -9.264   9.826  63.407  1.00  0.00    -0.258 OA 
BRANCH  30  31
HETATM   31  C   UNL     1      -7.985   9.534  62.849  1.00  0.00    -0.132 C  
BRANCH  31  32
HETATM   32  C   UNL     1      -7.985   8.101  62.339  1.00  0.00    -0.156 C  
BRANCH  32  33
HETATM   33  O   UNL     1      -6.794   7.455  62.779  1.00  0.00    -0.066 OA 
BRANCH  33  34
HETATM   34  C   UNL     1      -6.814   7.249  64.189  1.00  0.00    -0.048 C  
BRANCH  34  35
HETATM   35  C   UNL     1      -7.072   5.776  64.469  1.00  0.00    -0.053 C  
BRANCH  35  36
HETATM   36  O   UNL     1      -8.442   5.605  64.826  1.00  0.00    -0.141 OA 
BRANCH  36  37
HETATM   37  C   UNL     1      -9.011   4.480  64.163  1.00  0.00    -0.144 C  
BRANCH  37  38
HETATM   38  C   UNL     1      -9.911   3.734  65.138  1.00  0.00    -0.161 C  
BRANCH  38  39
HETATM   39  O   UNL     1      -9.652   4.198  66.460  1.00  0.00    -0.179 OA 
BRANCH  39  40
HETATM   40  C   UNL     1      -8.796   3.299  67.165  1.00  0.00    -0.138 C  
BRANCH  40  41
HETATM   41  C   UNL     1      -7.569   4.058  67.652  1.00  0.00    -0.068 C  
BRANCH  41  42
HETATM   42  O   UNL     1      -7.978   5.298  68.226  1.00  0.00    -0.087 OA 
HETATM   43  C   UNL     1      -6.858   6.104  68.566  1.00  0.00    -0.074 C  
ENDBRANCH  41  42
ENDBRANCH  40  41
ENDBRANCH  39  40
ENDBRANCH  38  39
ENDBRANCH  37  38
ENDBRANCH  36  37
ENDBRANCH  35  36
ENDBRANCH  34  35
ENDBRANCH  33  34
ENDBRANCH  32  33
ENDBRANCH  31  32
ENDBRANCH  30  31
ENDBRANCH  29  30
ENDBRANCH  28  29
ENDBRANCH  27  28
ENDBRANCH  26  27
ENDBRANCH  25  26
ENDBRANCH  24  25
ENDBRANCH  23  24
ENDBRANCH  22  23
ENDBRANCH  21  22
ENDBRANCH  20  21
ENDBRANCH  19  20
ENDBRANCH  18  19
ENDBRANCH  17  18
ENDBRANCH  16  17
ENDBRANCH  15  16
ENDBRANCH  13  15
ENDBRANCH  10  13
ENDBRANCH   5   7
ENDBRANCH   4   5
ENDBRANCH   3   4
ENDBRANCH   2   3
TORSDOF 33
ENDMDL
MODEL      169
REMARK 921   NORMALIZED FREE ENERGY PREDICTED BY IDOCK:   -2.85 KCAL/MOL
REMARK 922        TOTAL FREE ENERGY PREDICTED BY IDOCK:  -11.14 KCAL/MOL
REMARK 923 INTER-LIGAND FREE ENERGY PREDICTED BY IDOCK:   -8.84 KCAL/MOL
REMARK 924 INTRA-LIGAND FREE ENERGY PREDICTED BY IDOCK:   -2.30 KCAL/MOL
REMARK 927      BINDING AFFINITY PREDICTED BY RF-SCORE:    0.00 PKD
ROOT
HETATM    1  C   UNL     1     -14.391   6.902  71.708  1.00  0.00    -0.385 C  
HETATM    2  C   UNL     1     -13.867   8.253  71.260  1.00  0.00    -0.218 C  
ENDROOT
BRANCH   2   3
HETATM    3  C   UNL     1     -13.242   9.042  72.414  1.00  0.00    -0.507 C  
BRANCH   3   4
HETATM    4  C   UNL     1     -12.579  10.302  71.868  1.00  0.00    -0.318 C  
BRANCH   4   5
HETATM    5  N   UNL     1     -12.340  10.207  70.433  1.00  0.00    -0.456 NA 
HETATM    6  H   UNL     1     -12.399   9.312  69.947  1.00  0.00     0.000 HD 
BRANCH   5   7
HETATM    7  C   UNL     1     -12.025  11.389  69.742  1.00  0.00    -0.353 A  
HETATM    8  C   UNL     1     -12.138  12.663  70.314  1.00  0.00    -0.372 A  
HETATM    9  C   UNL     1     -11.890  13.819  69.575  1.00  0.00    -0.394 A  
HETATM   10  C   UNL     1     -11.553  13.737  68.223  1.00  0.00    -0.373 A  
HETATM   11  C   UNL     1     -11.704  11.317  68.378  1.00  0.00    -0.365 A  
HETATM   12  C   UNL     1     -11.463  12.476  67.622  1.00  0.00    -0.392 A  
BRANCH  10  13
HETATM   13  C   UNL     1     -11.338  15.014  67.496  1.00  0.00    -0.333 C  
HETATM   14  O   UNL     1     -11.286  16.101  68.055  1.00  0.00    -0.348 OA 
BRANCH  13  15
HETATM   15  O   UNL     1     -11.243  14.811  66.163  1.00  0.00    -0.333 OA 
BRANCH  15  16
HETATM   16  C   UNL     1     -10.438  15.778  65.464  1.00  0.00    -0.403 C  
BRANCH  16  17
HETATM   17  C   UNL     1     -11.272  16.576  64.462  1.00  0.00    -0.024 C  
BRANCH  17  18
HETATM   18  O   UNL     1     -11.345  17.940  64.890  1.00  0.00    -0.455 OA 
BRANCH  18  19
HETATM   19  C   UNL     1     -10.121  18.363  65.485  1.00  0.00     0.421 C  
BRANCH  19  20
HETATM   20  C   UNL     1     -10.406  19.439  66.524  1.00  0.00    -0.469 C  
BRANCH  20  21
HETATM   21  O   UNL     1      -9.245  19.622  67.333  1.00  0.00    -0.305 OA 
BRANCH  21  22
HETATM   22  C   UNL     1      -8.359  18.509  67.233  1.00  0.00    -0.253 C  
BRANCH  22  23
HETATM   23  C   UNL     1      -8.385  17.732  68.543  1.00  0.00    -0.297 C  
BRANCH  23  24
HETATM   24  O   UNL     1      -7.048  17.423  68.930  1.00  0.00    -0.235 OA 
BRANCH  24  25
HETATM   25  C   UNL     1      -6.942  16.079  69.394  1.00  0.00    -0.216 C  
BRANCH  25  26
HETATM   26  C   UNL     1      -5.761  15.407  68.708  1.00  0.00    -0.092 C  
BRANCH  26  27
HETATM   27  O   UNL     1      -6.242  14.339  67.897  1.00  0.00    -0.139 OA 
BRANCH  27  28
HETATM   28  C   UNL     1      -6.499  13.174  68.677  1.00  0.00    -0.087 C  
BRANCH  28  29
HETATM   29  C   UNL     1      -7.928  12.716  68.428  1.00  0.00    -0.134 C  
BRANCH  29  30
HETATM   30  O   UNL     1      -7.900  11.425  67.826  1.00  0.00    -0.109 OA 
BRANCH  30  31
HETATM   31  C   UNL     1      -7.166  10.501  68.624  1.00  0.00    -0.087 C  
BRANCH  31  32
HETATM   32  C   UNL     1      -6.326   9.619  67.713  1.00  0.00    -0.053 C  
BRANCH  32  33
HETATM   33  O   UNL     1      -5.518  10.448  66.885  1.00  0.00    -0.040 OA 
BRANCH  33  34
HETATM   34  C   UNL     1      -5.849  10.278  65.509  1.00  0.00    -0.102 C  
BRANCH  34  35
HETATM   35  C   UNL     1      -6.694   9.021  65.357  1.00  0.00    -0.072 C  
BRANCH  35  36
HETATM   36  O   UNL     1      -6.273   8.319  64.190  1.00  0.00    -0.065 OA 
BRANCH  36  37
HETATM   37  C   UNL     1      -5.187   7.443  64.479  1.00  0.00    -0.029 C  
BRANCH  37  38
HETATM   38  C   UNL     1      -5.651   6.391  65.477  1.00  0.00    -0.018 C  
BRANCH  38  39
HETATM   39  O   UNL     1      -6.979   5.992  65.151  1.00  0.00    -0.056 OA 
BRANCH  39  40
HETATM   40  C   UNL     1      -7.529   5.150  66.164  1.00  0.00    -0.086 C  
BRANCH  40  41
HETATM   41  C   UNL     1      -8.819   5.772  66.682  1.00  0.00    -0.121 C  
BRANCH  41  42
HETATM   42  O   UNL     1      -9.726   4.736  67.056  1.00  0.00    -0.158 OA 
HETATM   43  C   UNL     1     -10.205   4.033  65.918  1.00  0.00    -0.011 C  
ENDBRANCH  41  42
ENDBRANCH  40  41
ENDBRANCH  39  40
ENDBRANCH  38  39
ENDBRANCH  37  38
ENDBRANCH  36  37
ENDBRANCH  35  36
ENDBRANCH  34  35
ENDBRANCH  33  34
ENDBRANCH  32  33
ENDBRANCH  31  32
ENDBRANCH  30  31
ENDBRANCH  29  30
ENDBRANCH  28  29
ENDBRANCH  27  28
ENDBRANCH  26  27
ENDBRANCH  25  26
ENDBRANCH  24  25
ENDBRANCH  23  24
ENDBRANCH  22  23
ENDBRANCH  21  22
ENDBRANCH  20  21
ENDBRANCH  19  20
ENDBRANCH  18  19
ENDBRANCH  17  18
ENDBRANCH  16  17
ENDBRANCH  15  16
ENDBRANCH  13  15
ENDBRANCH  10  13
ENDBRANCH   5   7
ENDBRANCH   4   5
ENDBRANCH   3   4
ENDBRANCH   2   3
TORSDOF 33
ENDMDL
MODEL      170
REMARK 921   NORMALIZED FREE ENERGY PREDICTED BY IDOCK:   -2.84 KCAL/MOL
REMARK 922        TOTAL FREE ENERGY PREDICTED BY IDOCK:  -11.13 KCAL/MOL
REMARK 923 INTER-LIGAND FREE ENERGY PREDICTED BY IDOCK:  -10.13 KCAL/MOL
REMARK 924 INTRA-LIGAND FREE ENERGY PREDICTED BY IDOCK:   -1.01 KCAL/MOL
REMARK 927      BINDING AFFINITY PREDICTED BY RF-SCORE:    0.00 PKD
ROOT
HETATM    1  C   UNL     1     -12.557  16.404  73.766  1.00  0.00    -0.552 C  
HETATM    2  C   UNL     1     -12.782  14.904  73.802  1.00  0.00    -0.530 C  
ENDROOT
BRANCH   2   3
HETATM    3  C   UNL     1     -13.662  14.424  72.645  1.00  0.00    -0.546 C  
BRANCH   3   4
HETATM    4  C   UNL     1     -13.279  12.996  72.271  1.00  0.00    -0.435 C  
BRANCH   4   5
HETATM    5  N   UNL     1     -12.738  12.919  70.919  1.00  0.00    -0.259 NA 
HETATM    6  H   UNL     1     -12.786  12.054  70.381  1.00  0.00     0.000 HD 
BRANCH   5   7
HETATM    7  C   UNL     1     -12.150  14.076  70.382  1.00  0.00    -0.356 A  
HETATM    8  C   UNL     1     -12.623  14.708  69.224  1.00  0.00     0.093 A  
HETATM    9  C   UNL     1     -11.969  15.810  68.675  1.00  0.00    -0.165 A  
HETATM   10  C   UNL     1     -10.795  16.297  69.253  1.00  0.00    -0.318 A  
HETATM   11  C   UNL     1     -10.960  14.561  70.945  1.00  0.00     0.327 A  
HETATM   12  C   UNL     1     -10.287  15.665  70.394  1.00  0.00    -0.106 A  
BRANCH  10  13
HETATM   13  C   UNL     1     -10.139  17.454  68.591  1.00  0.00    -0.355 C  
HETATM   14  O   UNL     1      -9.155  18.017  69.048  1.00  0.00    -0.176 OA 
BRANCH  13  15
HETATM   15  O   UNL     1     -10.788  17.803  67.457  1.00  0.00    -0.344 OA 
BRANCH  15  16
HETATM   16  C   UNL     1     -11.021  19.216  67.310  1.00  0.00    -0.319 C  
BRANCH  16  17
HETATM   17  C   UNL     1     -10.059  20.030  68.174  1.00  0.00    -0.413 C  
BRANCH  17  18
HETATM   18  O   UNL     1      -9.091  20.666  67.333  1.00  0.00    -0.358 OA 
BRANCH  18  19
HETATM   19  C   UNL     1      -8.884  19.927  66.132  1.00  0.00    -0.306 C  
BRANCH  19  20
HETATM   20  C   UNL     1      -7.524  19.245  66.182  1.00  0.00    -0.278 C  
BRANCH  20  21
HETATM   21  O   UNL     1      -7.687  17.859  65.882  1.00  0.00    -0.507 OA 
BRANCH  21  22
HETATM   22  C   UNL     1      -6.849  17.047  66.701  1.00  0.00    -0.244 C  
BRANCH  22  23
HETATM   23  C   UNL     1      -7.599  15.776  67.077  1.00  0.00    -0.222 C  
BRANCH  23  24
HETATM   24  O   UNL     1      -8.843  15.744  66.380  1.00  0.00    -0.282 OA 
BRANCH  24  25
HETATM   25  C   UNL     1      -9.446  14.454  66.461  1.00  0.00    -0.289 C  
BRANCH  25  26
HETATM   26  C   UNL     1      -8.761  13.652  67.557  1.00  0.00    -0.198 C  
BRANCH  26  27
HETATM   27  O   UNL     1      -9.733  12.849  68.222  1.00  0.00    -0.219 OA 
BRANCH  27  28
HETATM   28  C   UNL     1     -10.837  12.564  67.367  1.00  0.00    -0.240 C  
BRANCH  28  29
HETATM   29  C   UNL     1     -11.010  11.056  67.267  1.00  0.00    -0.297 C  
BRANCH  29  30
HETATM   30  O   UNL     1     -10.432  10.606  66.044  1.00  0.00    -0.239 OA 
BRANCH  30  31
HETATM   31  C   UNL     1      -9.763   9.360  66.220  1.00  0.00    -0.264 C  
BRANCH  31  32
HETATM   32  C   UNL     1     -10.528   8.527  67.237  1.00  0.00    -0.296 C  
BRANCH  32  33
HETATM   33  O   UNL     1      -9.705   7.446  67.662  1.00  0.00    -0.137 OA 
BRANCH  33  34
HETATM   34  C   UNL     1      -8.452   7.916  68.152  1.00  0.00    -0.124 C  
BRANCH  34  35
HETATM   35  C   UNL     1      -7.979   6.992  69.264  1.00  0.00    -0.119 C  
BRANCH  35  36
HETATM   36  O   UNL     1      -8.928   5.942  69.430  1.00  0.00    -0.120 OA 
BRANCH  36  37
HETATM   37  C   UNL     1      -8.758   5.285  70.683  1.00  0.00    -0.126 C  
BRANCH  37  38
HETATM   38  C   UNL     1     -10.074   4.635  71.084  1.00  0.00    -0.173 C  
BRANCH  38  39
HETATM   39  O   UNL     1     -10.477   5.142  72.353  1.00  0.00    -0.203 OA 
BRANCH  39  40
HETATM   40  C   UNL     1      -9.423   5.876  72.975  1.00  0.00    -0.150 C  
BRANCH  40  41
HETATM   41  C   UNL     1      -9.104   5.243  74.322  1.00  0.00    -0.117 C  
BRANCH  41  42
HETATM   42  O   UNL     1      -8.096   4.249  74.151  1.00  0.00    -0.090 OA 
HETATM   43  C   UNL     1      -6.835   4.836  73.858  1.00  0.00    -0.074 C  
ENDBRANCH  41  42
ENDBRANCH  40  41
ENDBRANCH  39  40
ENDBRANCH  38  39
ENDBRANCH  37  38
ENDBRANCH  36  37
ENDBRANCH  35  36
ENDBRANCH  34  35
ENDBRANCH  33  34
ENDBRANCH  32  33
ENDBRANCH  31  32
ENDBRANCH  30  31
ENDBRANCH  29  30
ENDBRANCH  28  29
ENDBRANCH  27  28
ENDBRANCH  26  27
ENDBRANCH  25  26
ENDBRANCH  24  25
ENDBRANCH  23  24
ENDBRANCH  22  23
ENDBRANCH  21  22
ENDBRANCH  20  21
ENDBRANCH  19  20
ENDBRANCH  18  19
ENDBRANCH  17  18
ENDBRANCH  16  17
ENDBRANCH  15  16
ENDBRANCH  13  15
ENDBRANCH  10  13
ENDBRANCH   5   7
ENDBRANCH   4   5
ENDBRANCH   3   4
ENDBRANCH   2   3
TORSDOF 33
ENDMDL
MODEL      171
REMARK 921   NORMALIZED FREE ENERGY PREDICTED BY IDOCK:   -2.83 KCAL/MOL
REMARK 922        TOTAL FREE ENERGY PREDICTED BY IDOCK:  -11.08 KCAL/MOL
REMARK 923 INTER-LIGAND FREE ENERGY PREDICTED BY IDOCK:   -9.04 KCAL/MOL
REMARK 924 INTRA-LIGAND FREE ENERGY PREDICTED BY IDOCK:   -2.04 KCAL/MOL
REMARK 927      BINDING AFFINITY PREDICTED BY RF-SCORE:    0.00 PKD
ROOT
HETATM    1  C   UNL     1      -8.416   5.616  62.567  1.00  0.00    -0.068 C  
HETATM    2  C   UNL     1      -7.607   5.993  63.794  1.00  0.00    -0.087 C  
ENDROOT
BRANCH   2   3
HETATM    3  C   UNL     1      -7.872   5.052  64.972  1.00  0.00    -0.090 C  
BRANCH   3   4
HETATM    4  C   UNL     1      -8.590   5.815  66.081  1.00  0.00    -0.135 C  
BRANCH   4   5
HETATM    5  N   UNL     1      -7.750   5.964  67.264  1.00  0.00    -0.100 NA 
HETATM    6  H   UNL     1      -6.965   6.615  67.273  1.00  0.00     0.000 HD 
BRANCH   5   7
HETATM    7  C   UNL     1      -8.060   5.184  68.389  1.00  0.00    -0.086 A  
HETATM    8  C   UNL     1      -9.315   4.594  68.590  1.00  0.00    -0.193 A  
HETATM    9  C   UNL     1      -9.612   3.888  69.756  1.00  0.00    -0.271 A  
HETATM   10  C   UNL     1      -8.667   3.779  70.778  1.00  0.00    -0.121 A  
HETATM   11  C   UNL     1      -7.123   5.084  69.429  1.00  0.00    -0.056 A  
HETATM   12  C   UNL     1      -7.416   4.385  70.612  1.00  0.00    -0.052 A  
BRANCH  10  13
HETATM   13  C   UNL     1      -9.070   3.041  72.002  1.00  0.00    -0.092 C  
HETATM   14  O   UNL     1      -9.569   1.925  71.976  1.00  0.00    -0.092 OA 
BRANCH  13  15
HETATM   15  O   UNL     1      -8.840   3.774  73.115  1.00  0.00    -0.093 OA 
BRANCH  15  16
HETATM   16  C   UNL     1      -9.668   4.944  73.244  1.00  0.00    -0.137 C  
BRANCH  16  17
HETATM   17  C   UNL     1     -11.117   4.569  73.555  1.00  0.00    -0.314 C  
BRANCH  17  18
HETATM   18  O   UNL     1     -11.995   5.407  72.797  1.00  0.00    -0.232 OA 
BRANCH  18  19
HETATM   19  C   UNL     1     -11.263   6.321  71.983  1.00  0.00    -0.281 C  
BRANCH  19  20
HETATM   20  C   UNL     1     -11.972   7.669  71.968  1.00  0.00    -0.302 C  
BRANCH  20  21
HETATM   21  O   UNL     1     -13.290   7.495  71.450  1.00  0.00    -0.351 OA 
BRANCH  21  22
HETATM   22  C   UNL     1     -14.039   8.706  71.517  1.00  0.00    -0.343 C  
BRANCH  22  23
HETATM   23  C   UNL     1     -13.301   9.702  72.402  1.00  0.00    -0.338 C  
BRANCH  23  24
HETATM   24  O   UNL     1     -13.073  10.901  71.665  1.00  0.00    -0.430 OA 
BRANCH  24  25
HETATM   25  C   UNL     1     -12.971  10.638  70.268  1.00  0.00    -0.068 C  
BRANCH  25  26
HETATM   26  C   UNL     1     -11.946  11.582  69.657  1.00  0.00    -0.339 C  
BRANCH  26  27
HETATM   27  O   UNL     1     -12.158  11.650  68.249  1.00  0.00    -0.552 OA 
BRANCH  27  28
HETATM   28  C   UNL     1     -11.229  10.827  67.548  1.00  0.00    -0.274 C  
BRANCH  28  29
HETATM   29  C   UNL     1     -10.673  11.605  66.365  1.00  0.00    -0.272 C  
BRANCH  29  30
HETATM   30  O   UNL     1      -9.254  11.481  66.357  1.00  0.00    -0.196 OA 
BRANCH  30  31
HETATM   31  C   UNL     1      -8.758  11.158  67.654  1.00  0.00    -0.129 C  
BRANCH  31  32
HETATM   32  C   UNL     1      -8.037  12.370  68.223  1.00  0.00    -0.166 C  
BRANCH  32  33
HETATM   33  O   UNL     1      -6.649  12.266  67.919  1.00  0.00    -0.069 OA 
BRANCH  33  34
HETATM   34  C   UNL     1      -6.061  13.553  67.758  1.00  0.00    -0.143 C  
BRANCH  34  35
HETATM   35  C   UNL     1      -6.591  14.477  68.844  1.00  0.00    -0.095 C  
BRANCH  35  36
HETATM   36  O   UNL     1      -6.368  15.829  68.452  1.00  0.00    -0.103 OA 
BRANCH  36  37
HETATM   37  C   UNL     1      -7.579  16.449  68.026  1.00  0.00    -0.152 C  
BRANCH  37  38
HETATM   38  C   UNL     1      -7.585  17.897  68.495  1.00  0.00    -0.289 C  
BRANCH  38  39
HETATM   39  O   UNL     1      -8.874  18.458  68.261  1.00  0.00    -0.290 OA 
BRANCH  39  40
HETATM   40  C   UNL     1      -9.068  18.746  66.876  1.00  0.00    -0.300 C  
BRANCH  40  41
HETATM   41  C   UNL     1     -10.368  18.103  66.412  1.00  0.00    -0.394 C  
BRANCH  41  42
HETATM   42  O   UNL     1     -10.091  17.188  65.354  1.00  0.00    -0.571 OA 
HETATM   43  C   UNL     1     -10.610  15.896  65.640  1.00  0.00    -0.378 C  
ENDBRANCH  41  42
ENDBRANCH  40  41
ENDBRANCH  39  40
ENDBRANCH  38  39
ENDBRANCH  37  38
ENDBRANCH  36  37
ENDBRANCH  35  36
ENDBRANCH  34  35
ENDBRANCH  33  34
ENDBRANCH  32  33
ENDBRANCH  31  32
ENDBRANCH  30  31
ENDBRANCH  29  30
ENDBRANCH  28  29
ENDBRANCH  27  28
ENDBRANCH  26  27
ENDBRANCH  25  26
ENDBRANCH  24  25
ENDBRANCH  23  24
ENDBRANCH  22  23
ENDBRANCH  21  22
ENDBRANCH  20  21
ENDBRANCH  19  20
ENDBRANCH  18  19
ENDBRANCH  17  18
ENDBRANCH  16  17
ENDBRANCH  15  16
ENDBRANCH  13  15
ENDBRANCH  10  13
ENDBRANCH   5   7
ENDBRANCH   4   5
ENDBRANCH   3   4
ENDBRANCH   2   3
TORSDOF 33
ENDMDL
MODEL      172
REMARK 921   NORMALIZED FREE ENERGY PREDICTED BY IDOCK:   -2.82 KCAL/MOL
REMARK 922        TOTAL FREE ENERGY PREDICTED BY IDOCK:  -11.07 KCAL/MOL
REMARK 923 INTER-LIGAND FREE ENERGY PREDICTED BY IDOCK:   -8.69 KCAL/MOL
REMARK 924 INTRA-LIGAND FREE ENERGY PREDICTED BY IDOCK:   -2.38 KCAL/MOL
REMARK 927      BINDING AFFINITY PREDICTED BY RF-SCORE:    0.00 PKD
ROOT
HETATM    1  C   UNL     1     -13.815   7.130  71.445  1.00  0.00    -0.368 C  
HETATM    2  C   UNL     1     -13.567   8.600  71.165  1.00  0.00    -0.073 C  
ENDROOT
BRANCH   2   3
HETATM    3  C   UNL     1     -13.514   9.431  72.449  1.00  0.00    -0.506 C  
BRANCH   3   4
HETATM    4  C   UNL     1     -13.213  10.885  72.102  1.00  0.00    -0.228 C  
BRANCH   4   5
HETATM    5  N   UNL     1     -12.645  11.014  70.765  1.00  0.00    -0.366 NA 
HETATM    6  H   UNL     1     -12.617  10.219  70.126  1.00  0.00     0.000 HD 
BRANCH   5   7
HETATM    7  C   UNL     1     -12.139  12.268  70.386  1.00  0.00    -0.300 A  
HETATM    8  C   UNL     1     -12.380  13.442  71.113  1.00  0.00    -0.348 A  
HETATM    9  C   UNL     1     -11.927  14.683  70.668  1.00  0.00    -0.380 A  
HETATM   10  C   UNL     1     -11.242  14.793  69.456  1.00  0.00    -0.305 A  
HETATM   11  C   UNL     1     -11.467  12.391  69.162  1.00  0.00    -0.358 A  
HETATM   12  C   UNL     1     -11.015  13.638  68.698  1.00  0.00    -0.290 A  
BRANCH  10  13
HETATM   13  C   UNL     1     -10.821  16.153  69.033  1.00  0.00    -0.299 C  
HETATM   14  O   UNL     1     -10.377  16.987  69.809  1.00  0.00    -0.150 OA 
BRANCH  13  15
HETATM   15  O   UNL     1     -11.024  16.340  67.709  1.00  0.00    -0.330 OA 
BRANCH  15  16
HETATM   16  C   UNL     1     -10.034  17.161  67.061  1.00  0.00    -0.287 C  
BRANCH  16  17
HETATM   17  C   UNL     1     -10.489  18.618  66.977  1.00  0.00    -0.407 C  
BRANCH  17  18
HETATM   18  O   UNL     1      -9.590  19.437  67.731  1.00  0.00    -0.312 OA 
BRANCH  18  19
HETATM   19  C   UNL     1      -8.239  19.014  67.563  1.00  0.00    -0.276 C  
BRANCH  19  20
HETATM   20  C   UNL     1      -7.536  19.008  68.913  1.00  0.00    -0.329 C  
BRANCH  20  21
HETATM   21  O   UNL     1      -6.443  18.092  68.864  1.00  0.00    -0.211 OA 
BRANCH  21  22
HETATM   22  C   UNL     1      -6.727  16.988  68.008  1.00  0.00    -0.149 C  
BRANCH  22  23
HETATM   23  C   UNL     1      -7.090  15.777  68.859  1.00  0.00    -0.139 C  
BRANCH  23  24
HETATM   24  O   UNL     1      -6.087  14.777  68.700  1.00  0.00    -0.082 OA 
BRANCH  24  25
HETATM   25  C   UNL     1      -6.602  13.478  68.987  1.00  0.00    -0.110 C  
BRANCH  25  26
HETATM   26  C   UNL     1      -6.333  12.563  67.801  1.00  0.00    -0.121 C  
BRANCH  26  27
HETATM   27  O   UNL     1      -7.423  11.656  67.659  1.00  0.00    -0.103 OA 
BRANCH  27  28
HETATM   28  C   UNL     1      -7.201  10.463  68.408  1.00  0.00    -0.080 C  
BRANCH  28  29
HETATM   29  C   UNL     1      -8.438  10.165  69.241  1.00  0.00    -0.163 C  
BRANCH  29  30
HETATM   30  O   UNL     1      -8.884   8.843  68.949  1.00  0.00    -0.135 OA 
BRANCH  30  31
HETATM   31  C   UNL     1     -10.134   8.571  69.575  1.00  0.00    -0.200 C  
BRANCH  31  32
HETATM   32  C   UNL     1     -10.253   7.073  69.812  1.00  0.00    -0.201 C  
BRANCH  32  33
HETATM   33  O   UNL     1      -8.969   6.555  70.144  1.00  0.00    -0.152 OA 
BRANCH  33  34
HETATM   34  C   UNL     1      -8.619   5.467  69.293  1.00  0.00    -0.104 C  
BRANCH  34  35
HETATM   35  C   UNL     1      -9.735   4.433  69.330  1.00  0.00    -0.197 C  
BRANCH  35  36
HETATM   36  O   UNL     1      -9.622   3.589  68.188  1.00  0.00    -0.174 OA 
BRANCH  36  37
HETATM   37  C   UNL     1      -8.433   2.804  68.241  1.00  0.00    -0.077 C  
BRANCH  37  38
HETATM   38  C   UNL     1      -7.811   2.752  66.853  1.00  0.00    -0.075 C  
BRANCH  38  39
HETATM   39  O   UNL     1      -6.473   3.237  66.923  1.00  0.00    -0.035 OA 
BRANCH  39  40
HETATM   40  C   UNL     1      -6.106   3.915  65.722  1.00  0.00    -0.027 C  
BRANCH  40  41
HETATM   41  C   UNL     1      -7.296   3.927  64.773  1.00  0.00    -0.068 C  
BRANCH  41  42
HETATM   42  O   UNL     1      -7.341   5.176  64.087  1.00  0.00    -0.053 OA 
HETATM   43  C   UNL     1      -8.249   6.075  64.708  1.00  0.00    -0.123 C  
ENDBRANCH  41  42
ENDBRANCH  40  41
ENDBRANCH  39  40
ENDBRANCH  38  39
ENDBRANCH  37  38
ENDBRANCH  36  37
ENDBRANCH  35  36
ENDBRANCH  34  35
ENDBRANCH  33  34
ENDBRANCH  32  33
ENDBRANCH  31  32
ENDBRANCH  30  31
ENDBRANCH  29  30
ENDBRANCH  28  29
ENDBRANCH  27  28
ENDBRANCH  26  27
ENDBRANCH  25  26
ENDBRANCH  24  25
ENDBRANCH  23  24
ENDBRANCH  22  23
ENDBRANCH  21  22
ENDBRANCH  20  21
ENDBRANCH  19  20
ENDBRANCH  18  19
ENDBRANCH  17  18
ENDBRANCH  16  17
ENDBRANCH  15  16
ENDBRANCH  13  15
ENDBRANCH  10  13
ENDBRANCH   5   7
ENDBRANCH   4   5
ENDBRANCH   3   4
ENDBRANCH   2   3
TORSDOF 33
ENDMDL
MODEL      173
REMARK 921   NORMALIZED FREE ENERGY PREDICTED BY IDOCK:   -2.81 KCAL/MOL
REMARK 922        TOTAL FREE ENERGY PREDICTED BY IDOCK:  -11.03 KCAL/MOL
REMARK 923 INTER-LIGAND FREE ENERGY PREDICTED BY IDOCK:   -8.03 KCAL/MOL
REMARK 924 INTRA-LIGAND FREE ENERGY PREDICTED BY IDOCK:   -3.00 KCAL/MOL
REMARK 927      BINDING AFFINITY PREDICTED BY RF-SCORE:    0.00 PKD
ROOT
HETATM    1  C   UNL     1     -12.093  15.041  73.584  1.00  0.00    -0.539 C  
HETATM    2  C   UNL     1     -12.992  13.975  72.988  1.00  0.00    -0.336 C  
ENDROOT
BRANCH   2   3
HETATM    3  C   UNL     1     -13.950  14.547  71.940  1.00  0.00    -0.569 C  
BRANCH   3   4
HETATM    4  C   UNL     1     -13.296  15.740  71.251  1.00  0.00    -0.214 C  
BRANCH   4   5
HETATM    5  N   UNL     1     -13.028  15.469  69.843  1.00  0.00    -0.580 NA 
HETATM    6  H   UNL     1     -13.788  15.397  69.166  1.00  0.00     0.000 HD 
BRANCH   5   7
HETATM    7  C   UNL     1     -11.689  15.311  69.450  1.00  0.00    -0.341 A  
HETATM    8  C   UNL     1     -10.728  16.322  69.584  1.00  0.00    -0.338 A  
HETATM    9  C   UNL     1      -9.426  16.159  69.114  1.00  0.00    -0.251 A  
HETATM   10  C   UNL     1      -9.052  14.983  68.460  1.00  0.00    -0.188 A  
HETATM   11  C   UNL     1     -11.309  14.142  68.776  1.00  0.00    -0.308 A  
HETATM   12  C   UNL     1     -10.003  13.971  68.288  1.00  0.00    -0.236 A  
BRANCH  10  13
HETATM   13  C   UNL     1      -7.657  14.898  67.958  1.00  0.00    -0.122 C  
HETATM   14  O   UNL     1      -7.127  15.784  67.302  1.00  0.00    -0.185 OA 
BRANCH  13  15
HETATM   15  O   UNL     1      -7.085  13.720  68.294  1.00  0.00    -0.087 OA 
BRANCH  15  16
HETATM   16  C   UNL     1      -6.363  13.737  69.540  1.00  0.00    -0.118 C  
BRANCH  16  17
HETATM   17  C   UNL     1      -5.386  12.565  69.632  1.00  0.00    -0.079 C  
BRANCH  17  18
HETATM   18  O   UNL     1      -5.984  11.405  69.045  1.00  0.00    -0.047 OA 
BRANCH  18  19
HETATM   19  C   UNL     1      -5.450  10.207  69.605  1.00  0.00    -0.038 C  
BRANCH  19  20
HETATM   20  C   UNL     1      -5.410  10.330  71.122  1.00  0.00    -0.086 C  
BRANCH  20  21
HETATM   21  O   UNL     1      -6.437   9.513  71.682  1.00  0.00    -0.286 OA 
BRANCH  21  22
HETATM   22  C   UNL     1      -5.894   8.486  72.507  1.00  0.00    -0.067 C  
BRANCH  22  23
HETATM   23  C   UNL     1      -7.034   7.675  73.111  1.00  0.00    -0.073 C  
BRANCH  23  24
HETATM   24  O   UNL     1      -8.223   7.910  72.360  1.00  0.00    -0.111 OA 
BRANCH  24  25
HETATM   25  C   UNL     1      -9.323   8.214  73.215  1.00  0.00    -0.238 C  
BRANCH  25  26
HETATM   26  C   UNL     1     -10.331   7.076  73.151  1.00  0.00    -0.281 C  
BRANCH  26  27
HETATM   27  O   UNL     1     -10.241   6.447  71.876  1.00  0.00    -0.194 OA 
BRANCH  27  28
HETATM   28  C   UNL     1     -11.367   6.765  71.063  1.00  0.00    -0.309 C  
BRANCH  28  29
HETATM   29  C   UNL     1     -10.885   7.117  69.664  1.00  0.00    -0.234 C  
BRANCH  29  30
HETATM   30  O   UNL     1     -10.067   6.057  69.177  1.00  0.00    -0.158 OA 
BRANCH  30  31
HETATM   31  C   UNL     1     -10.501   5.619  67.893  1.00  0.00    -0.211 C  
BRANCH  31  32
HETATM   32  C   UNL     1     -10.900   6.832  67.066  1.00  0.00    -0.383 C  
BRANCH  32  33
HETATM   33  O   UNL     1      -9.782   7.249  66.289  1.00  0.00    -0.120 OA 
BRANCH  33  34
HETATM   34  C   UNL     1      -9.604   8.661  66.363  1.00  0.00    -0.247 C  
BRANCH  34  35
HETATM   35  C   UNL     1      -8.116   8.967  66.450  1.00  0.00    -0.110 C  
BRANCH  35  36
HETATM   36  O   UNL     1      -7.565   8.276  67.568  1.00  0.00    -0.095 OA 
BRANCH  36  37
HETATM   37  C   UNL     1      -6.458   7.466  67.180  1.00  0.00    -0.060 C  
BRANCH  37  38
HETATM   38  C   UNL     1      -6.484   6.173  67.983  1.00  0.00    -0.049 C  
BRANCH  38  39
HETATM   39  O   UNL     1      -6.289   6.476  69.362  1.00  0.00    -0.032 OA 
BRANCH  39  40
HETATM   40  C   UNL     1      -5.804   5.340  70.076  1.00  0.00    -0.017 C  
BRANCH  40  41
HETATM   41  C   UNL     1      -6.436   4.081  69.498  1.00  0.00    -0.033 C  
BRANCH  41  42
HETATM   42  O   UNL     1      -7.165   3.406  70.521  1.00  0.00    -0.037 OA 
HETATM   43  C   UNL     1      -6.836   3.910  71.809  1.00  0.00    -0.026 C  
ENDBRANCH  41  42
ENDBRANCH  40  41
ENDBRANCH  39  40
ENDBRANCH  38  39
ENDBRANCH  37  38
ENDBRANCH  36  37
ENDBRANCH  35  36
ENDBRANCH  34  35
ENDBRANCH  33  34
ENDBRANCH  32  33
ENDBRANCH  31  32
ENDBRANCH  30  31
ENDBRANCH  29  30
ENDBRANCH  28  29
ENDBRANCH  27  28
ENDBRANCH  26  27
ENDBRANCH  25  26
ENDBRANCH  24  25
ENDBRANCH  23  24
ENDBRANCH  22  23
ENDBRANCH  21  22
ENDBRANCH  20  21
ENDBRANCH  19  20
ENDBRANCH  18  19
ENDBRANCH  17  18
ENDBRANCH  16  17
ENDBRANCH  15  16
ENDBRANCH  13  15
ENDBRANCH  10  13
ENDBRANCH   5   7
ENDBRANCH   4   5
ENDBRANCH   3   4
ENDBRANCH   2   3
TORSDOF 33
ENDMDL
MODEL      174
REMARK 921   NORMALIZED FREE ENERGY PREDICTED BY IDOCK:   -2.81 KCAL/MOL
REMARK 922        TOTAL FREE ENERGY PREDICTED BY IDOCK:  -11.02 KCAL/MOL
REMARK 923 INTER-LIGAND FREE ENERGY PREDICTED BY IDOCK:   -8.87 KCAL/MOL
REMARK 924 INTRA-LIGAND FREE ENERGY PREDICTED BY IDOCK:   -2.15 KCAL/MOL
REMARK 927      BINDING AFFINITY PREDICTED BY RF-SCORE:    0.00 PKD
ROOT
HETATM    1  C   UNL     1      -9.719   2.887  63.764  1.00  0.00    -0.133 C  
HETATM    2  C   UNL     1      -8.824   1.725  64.151  1.00  0.00    -0.092 C  
ENDROOT
BRANCH   2   3
HETATM    3  C   UNL     1      -7.451   2.192  64.640  1.00  0.00    -0.063 C  
BRANCH   3   4
HETATM    4  C   UNL     1      -7.587   3.551  65.320  1.00  0.00    -0.078 C  
BRANCH   4   5
HETATM    5  N   UNL     1      -6.784   4.570  64.654  1.00  0.00    -0.044 NA 
HETATM    6  H   UNL     1      -6.100   4.318  63.940  1.00  0.00     0.000 HD 
BRANCH   5   7
HETATM    7  C   UNL     1      -6.984   5.909  65.028  1.00  0.00    -0.059 A  
HETATM    8  C   UNL     1      -7.791   6.289  66.108  1.00  0.00    -0.105 A  
HETATM    9  C   UNL     1      -8.029   7.631  66.405  1.00  0.00    -0.107 A  
HETATM   10  C   UNL     1      -7.490   8.639  65.604  1.00  0.00    -0.085 A  
HETATM   11  C   UNL     1      -6.461   6.929  64.219  1.00  0.00    -0.036 A  
HETATM   12  C   UNL     1      -6.704   8.283  64.502  1.00  0.00    -0.068 A  
BRANCH  10  13
HETATM   13  C   UNL     1      -7.816  10.042  65.965  1.00  0.00    -0.119 C  
HETATM   14  O   UNL     1      -6.982  10.935  66.002  1.00  0.00    -0.127 OA 
BRANCH  13  15
HETATM   15  O   UNL     1      -9.127  10.179  66.269  1.00  0.00    -0.149 OA 
BRANCH  15  16
HETATM   16  C   UNL     1      -9.899  10.895  65.287  1.00  0.00    -0.265 C  
BRANCH  16  17
HETATM   17  C   UNL     1     -11.292  11.235  65.816  1.00  0.00     0.092 C  
BRANCH  17  18
HETATM   18  O   UNL     1     -11.256  12.516  66.453  1.00  0.00    -0.277 OA 
BRANCH  18  19
HETATM   19  C   UNL     1     -10.279  13.364  65.853  1.00  0.00    -0.299 C  
BRANCH  19  20
HETATM   20  C   UNL     1      -9.415  13.991  66.939  1.00  0.00    -0.265 C  
BRANCH  20  21
HETATM   21  O   UNL     1      -9.270  15.385  66.670  1.00  0.00    -0.234 OA 
BRANCH  21  22
HETATM   22  C   UNL     1     -10.515  16.070  66.782  1.00  0.00    -0.308 C  
BRANCH  22  23
HETATM   23  C   UNL     1     -10.761  16.423  68.243  1.00  0.00    -0.337 C  
BRANCH  23  24
HETATM   24  O   UNL     1     -11.721  15.520  68.787  1.00  0.00    -0.348 OA 
BRANCH  24  25
HETATM   25  C   UNL     1     -11.287  15.002  70.043  1.00  0.00    -0.273 C  
BRANCH  25  26
HETATM   26  C   UNL     1     -11.839  15.877  71.159  1.00  0.00    -0.438 C  
BRANCH  26  27
HETATM   27  O   UNL     1     -11.984  15.090  72.338  1.00  0.00    -0.362 OA 
BRANCH  27  28
HETATM   28  C   UNL     1     -13.348  15.017  72.745  1.00  0.00    -0.481 C  
BRANCH  28  29
HETATM   29  C   UNL     1     -13.957  13.731  72.209  1.00  0.00    -0.573 C  
BRANCH  29  30
HETATM   30  O   UNL     1     -13.044  12.660  72.432  1.00  0.00    -0.365 OA 
BRANCH  30  31
HETATM   31  C   UNL     1     -12.761  11.965  71.220  1.00  0.00    -0.298 C  
BRANCH  31  32
HETATM   32  C   UNL     1     -13.350  10.565  71.304  1.00  0.00    -0.200 C  
BRANCH  32  33
HETATM   33  O   UNL     1     -12.790   9.895  72.429  1.00  0.00    -0.318 OA 
BRANCH  33  34
HETATM   34  C   UNL     1     -12.546   8.522  72.140  1.00  0.00    -0.377 C  
BRANCH  34  35
HETATM   35  C   UNL     1     -11.726   8.425  70.862  1.00  0.00    -0.246 C  
BRANCH  35  36
HETATM   36  O   UNL     1     -11.198   7.106  70.748  1.00  0.00    -0.259 OA 
BRANCH  36  37
HETATM   37  C   UNL     1     -11.529   6.524  69.490  1.00  0.00    -0.319 C  
BRANCH  37  38
HETATM   38  C   UNL     1     -10.390   5.615  69.051  1.00  0.00    -0.243 C  
BRANCH  38  39
HETATM   39  O   UNL     1     -10.163   4.631  70.056  1.00  0.00    -0.234 OA 
BRANCH  39  40
HETATM   40  C   UNL     1      -8.936   3.938  69.834  1.00  0.00    -0.098 C  
BRANCH  40  41
HETATM   41  C   UNL     1      -8.308   3.594  71.178  1.00  0.00    -0.067 C  
BRANCH  41  42
HETATM   42  O   UNL     1      -9.146   4.073  72.227  1.00  0.00    -0.111 OA 
HETATM   43  C   UNL     1      -8.422   4.893  73.134  1.00  0.00    -0.104 C  
ENDBRANCH  41  42
ENDBRANCH  40  41
ENDBRANCH  39  40
ENDBRANCH  38  39
ENDBRANCH  37  38
ENDBRANCH  36  37
ENDBRANCH  35  36
ENDBRANCH  34  35
ENDBRANCH  33  34
ENDBRANCH  32  33
ENDBRANCH  31  32
ENDBRANCH  30  31
ENDBRANCH  29  30
ENDBRANCH  28  29
ENDBRANCH  27  28
ENDBRANCH  26  27
ENDBRANCH  25  26
ENDBRANCH  24  25
ENDBRANCH  23  24
ENDBRANCH  22  23
ENDBRANCH  21  22
ENDBRANCH  20  21
ENDBRANCH  19  20
ENDBRANCH  18  19
ENDBRANCH  17  18
ENDBRANCH  16  17
ENDBRANCH  15  16
ENDBRANCH  13  15
ENDBRANCH  10  13
ENDBRANCH   5   7
ENDBRANCH   4   5
ENDBRANCH   3   4
ENDBRANCH   2   3
TORSDOF 33
ENDMDL
MODEL      175
REMARK 921   NORMALIZED FREE ENERGY PREDICTED BY IDOCK:   -2.76 KCAL/MOL
REMARK 922        TOTAL FREE ENERGY PREDICTED BY IDOCK:  -10.87 KCAL/MOL
REMARK 923 INTER-LIGAND FREE ENERGY PREDICTED BY IDOCK:   -7.95 KCAL/MOL
REMARK 924 INTRA-LIGAND FREE ENERGY PREDICTED BY IDOCK:   -2.93 KCAL/MOL
REMARK 927      BINDING AFFINITY PREDICTED BY RF-SCORE:    0.00 PKD
ROOT
HETATM    1  C   UNL     1     -10.133   3.891  64.513  1.00  0.00    -0.224 C  
HETATM    2  C   UNL     1      -8.876   4.044  65.349  1.00  0.00    -0.123 C  
ENDROOT
BRANCH   2   3
HETATM    3  C   UNL     1      -9.017   3.396  66.729  1.00  0.00    -0.166 C  
BRANCH   3   4
HETATM    4  C   UNL     1      -7.718   2.687  67.093  1.00  0.00    -0.070 C  
BRANCH   4   5
HETATM    5  N   UNL     1      -6.566   3.574  66.969  1.00  0.00    -0.037 NA 
HETATM    6  H   UNL     1      -5.781   3.336  66.363  1.00  0.00     0.000 HD 
BRANCH   5   7
HETATM    7  C   UNL     1      -6.575   4.766  67.712  1.00  0.00    -0.047 A  
HETATM    8  C   UNL     1      -6.479   6.034  67.125  1.00  0.00    -0.047 A  
HETATM    9  C   UNL     1      -6.413   7.193  67.897  1.00  0.00    -0.048 A  
HETATM   10  C   UNL     1      -6.407   7.115  69.291  1.00  0.00    -0.035 A  
HETATM   11  C   UNL     1      -6.550   4.697  69.113  1.00  0.00    -0.044 A  
HETATM   12  C   UNL     1      -6.473   5.857  69.901  1.00  0.00    -0.038 A  
BRANCH  10  13
HETATM   13  C   UNL     1      -6.301   8.392  70.044  1.00  0.00    -0.035 C  
HETATM   14  O   UNL     1      -5.740   8.486  71.126  1.00  0.00    -0.033 OA 
BRANCH  13  15
HETATM   15  O   UNL     1      -6.924   9.399  69.391  1.00  0.00    -0.047 OA 
BRANCH  15  16
HETATM   16  C   UNL     1      -6.316  10.693  69.565  1.00  0.00    -0.070 C  
BRANCH  16  17
HETATM   17  C   UNL     1      -6.701  11.644  68.433  1.00  0.00    -0.064 C  
BRANCH  17  18
HETATM   18  O   UNL     1      -7.978  11.263  67.910  1.00  0.00    -0.111 OA 
BRANCH  18  19
HETATM   19  C   UNL     1      -7.902  10.979  66.515  1.00  0.00    -0.155 C  
BRANCH  19  20
HETATM   20  C   UNL     1      -8.588   9.650  66.229  1.00  0.00    -0.127 C  
BRANCH  20  21
HETATM   21  O   UNL     1      -9.520   9.373  67.273  1.00  0.00    -0.129 OA 
BRANCH  21  22
HETATM   22  C   UNL     1     -10.429   8.341  66.900  1.00  0.00    -0.295 C  
BRANCH  22  23
HETATM   23  C   UNL     1     -10.015   7.041  67.578  1.00  0.00    -0.156 C  
BRANCH  23  24
HETATM   24  O   UNL     1     -11.183   6.292  67.906  1.00  0.00    -0.323 OA 
BRANCH  24  25
HETATM   25  C   UNL     1     -11.305   6.118  69.316  1.00  0.00    -0.291 C  
BRANCH  25  26
HETATM   26  C   UNL     1      -9.973   6.447  69.975  1.00  0.00    -0.169 C  
BRANCH  26  27
HETATM   27  O   UNL     1      -9.987   5.964  71.316  1.00  0.00    -0.179 OA 
BRANCH  27  28
HETATM   28  C   UNL     1      -9.714   7.010  72.244  1.00  0.00    -0.153 C  
BRANCH  28  29
HETATM   29  C   UNL     1     -10.974   7.305  73.044  1.00  0.00    -0.344 C  
BRANCH  29  30
HETATM   30  O   UNL     1     -11.574   8.494  72.538  1.00  0.00    -0.372 OA 
BRANCH  30  31
HETATM   31  C   UNL     1     -12.841   8.220  71.946  1.00  0.00    -0.344 C  
BRANCH  31  32
HETATM   32  C   UNL     1     -13.733   9.443  72.097  1.00  0.00    -0.420 C  
BRANCH  32  33
HETATM   33  O   UNL     1     -12.919  10.573  72.395  1.00  0.00    -0.252 OA 
BRANCH  33  34
HETATM   34  C   UNL     1     -13.008  11.555  71.366  1.00  0.00    -0.348 C  
BRANCH  34  35
HETATM   35  C   UNL     1     -13.302  12.907  71.998  1.00  0.00    -0.482 C  
BRANCH  35  36
HETATM   36  O   UNL     1     -12.256  13.814  71.658  1.00  0.00    -0.213 OA 
BRANCH  36  37
HETATM   37  C   UNL     1     -12.171  13.997  70.247  1.00  0.00    -0.361 C  
BRANCH  37  38
HETATM   38  C   UNL     1     -11.478  15.322  69.960  1.00  0.00    -0.292 C  
BRANCH  38  39
HETATM   39  O   UNL     1     -11.980  15.856  68.738  1.00  0.00    -0.368 OA 
BRANCH  39  40
HETATM   40  C   UNL     1     -10.933  16.038  67.786  1.00  0.00    -0.307 C  
BRANCH  40  41
HETATM   41  C   UNL     1     -11.009  17.453  67.228  1.00  0.00    -0.011 C  
BRANCH  41  42
HETATM   42  O   UNL     1      -9.750  18.099  67.404  1.00  0.00    -0.284 OA 
HETATM   43  C   UNL     1      -9.600  18.586  68.731  1.00  0.00    -0.333 C  
ENDBRANCH  41  42
ENDBRANCH  40  41
ENDBRANCH  39  40
ENDBRANCH  38  39
ENDBRANCH  37  38
ENDBRANCH  36  37
ENDBRANCH  35  36
ENDBRANCH  34  35
ENDBRANCH  33  34
ENDBRANCH  32  33
ENDBRANCH  31  32
ENDBRANCH  30  31
ENDBRANCH  29  30
ENDBRANCH  28  29
ENDBRANCH  27  28
ENDBRANCH  26  27
ENDBRANCH  25  26
ENDBRANCH  24  25
ENDBRANCH  23  24
ENDBRANCH  22  23
ENDBRANCH  21  22
ENDBRANCH  20  21
ENDBRANCH  19  20
ENDBRANCH  18  19
ENDBRANCH  17  18
ENDBRANCH  16  17
ENDBRANCH  15  16
ENDBRANCH  13  15
ENDBRANCH  10  13
ENDBRANCH   5   7
ENDBRANCH   4   5
ENDBRANCH   3   4
ENDBRANCH   2   3
TORSDOF 33
ENDMDL
MODEL      176
REMARK 921   NORMALIZED FREE ENERGY PREDICTED BY IDOCK:   -2.73 KCAL/MOL
REMARK 922        TOTAL FREE ENERGY PREDICTED BY IDOCK:  -10.81 KCAL/MOL
REMARK 923 INTER-LIGAND FREE ENERGY PREDICTED BY IDOCK:   -8.75 KCAL/MOL
REMARK 924 INTRA-LIGAND FREE ENERGY PREDICTED BY IDOCK:   -2.07 KCAL/MOL
REMARK 927      BINDING AFFINITY PREDICTED BY RF-SCORE:    0.00 PKD
ROOT
HETATM    1  C   UNL     1      -5.711  19.025  70.181  1.00  0.00    -0.267 C  
HETATM    2  C   UNL     1      -5.845  17.561  69.808  1.00  0.00    -0.244 C  
ENDROOT
BRANCH   2   3
HETATM    3  C   UNL     1      -6.142  17.369  68.319  1.00  0.00    -0.161 C  
BRANCH   3   4
HETATM    4  C   UNL     1      -7.417  18.121  67.953  1.00  0.00    -0.227 C  
BRANCH   4   5
HETATM    5  N   UNL     1      -8.583  17.568  68.632  1.00  0.00    -0.279 NA 
HETATM    6  H   UNL     1      -8.814  17.838  69.588  1.00  0.00     0.000 HD 
BRANCH   5   7
HETATM    7  C   UNL     1      -9.377  16.650  67.925  1.00  0.00    -0.221 A  
HETATM    8  C   UNL     1     -10.308  15.807  68.547  1.00  0.00    -0.229 A  
HETATM    9  C   UNL     1     -11.026  14.853  67.825  1.00  0.00    -0.294 A  
HETATM   10  C   UNL     1     -10.807  14.690  66.456  1.00  0.00    -0.315 A  
HETATM   11  C   UNL     1      -9.152  16.466  66.553  1.00  0.00    -0.308 A  
HETATM   12  C   UNL     1      -9.861  15.501  65.818  1.00  0.00    -0.392 A  
BRANCH  10  13
HETATM   13  C   UNL     1     -11.585  13.631  65.764  1.00  0.00    -0.333 C  
HETATM   14  O   UNL     1     -12.302  12.835  66.353  1.00  0.00    -0.500 OA 
BRANCH  13  15
HETATM   15  O   UNL     1     -11.367  13.654  64.429  1.00  0.00    -0.369 OA 
BRANCH  15  16
HETATM   16  C   UNL     1     -10.332  12.763  63.975  1.00  0.00    -0.368 C  
BRANCH  16  17
HETATM   17  C   UNL     1     -10.891  11.376  63.660  1.00  0.00    -0.384 C  
BRANCH  17  18
HETATM   18  O   UNL     1      -9.850  10.404  63.803  1.00  0.00    -0.310 OA 
BRANCH  18  19
HETATM   19  C   UNL     1      -8.981  10.406  62.673  1.00  0.00    -0.264 C  
BRANCH  19  20
HETATM   20  C   UNL     1      -7.698   9.662  63.017  1.00  0.00    -0.125 C  
BRANCH  20  21
HETATM   21  O   UNL     1      -8.026   8.333  63.422  1.00  0.00    -0.150 OA 
BRANCH  21  22
HETATM   22  C   UNL     1      -7.651   8.094  64.776  1.00  0.00    -0.101 C  
BRANCH  22  23
HETATM   23  C   UNL     1      -6.461   8.978  65.128  1.00  0.00    -0.071 C  
BRANCH  23  24
HETATM   24  O   UNL     1      -6.719   9.637  66.366  1.00  0.00    -0.073 OA 
BRANCH  24  25
HETATM   25  C   UNL     1      -5.819   9.200  67.381  1.00  0.00    -0.046 C  
BRANCH  25  26
HETATM   26  C   UNL     1      -6.214   9.838  68.705  1.00  0.00    -0.042 C  
BRANCH  26  27
HETATM   27  O   UNL     1      -6.372   8.815  69.685  1.00  0.00    -0.038 OA 
BRANCH  27  28
HETATM   28  C   UNL     1      -7.591   8.975  70.406  1.00  0.00    -0.100 C  
BRANCH  28  29
HETATM   29  C   UNL     1      -8.202  10.323  70.053  1.00  0.00     0.072 C  
BRANCH  29  30
HETATM   30  O   UNL     1      -9.620  10.188  70.008  1.00  0.00    -0.200 OA 
BRANCH  30  31
HETATM   31  C   UNL     1     -10.092  10.163  68.663  1.00  0.00    -0.172 C  
BRANCH  31  32
HETATM   32  C   UNL     1     -10.706   8.800  68.380  1.00  0.00    -0.062 C  
BRANCH  32  33
HETATM   33  O   UNL     1     -10.086   8.245  67.224  1.00  0.00    -0.198 OA 
BRANCH  33  34
HETATM   34  C   UNL     1     -10.522   6.908  67.000  1.00  0.00    -0.304 C  
BRANCH  34  35
HETATM   35  C   UNL     1     -10.794   6.246  68.343  1.00  0.00    -0.319 C  
BRANCH  35  36
HETATM   36  O   UNL     1      -9.870   5.177  68.529  1.00  0.00    -0.141 OA 
BRANCH  36  37
HETATM   37  C   UNL     1      -8.640   5.648  69.073  1.00  0.00    -0.105 C  
BRANCH  37  38
HETATM   38  C   UNL     1      -8.532   5.192  70.521  1.00  0.00    -0.111 C  
BRANCH  38  39
HETATM   39  O   UNL     1      -9.702   4.456  70.867  1.00  0.00    -0.170 OA 
BRANCH  39  40
HETATM   40  C   UNL     1     -10.085   4.701  72.220  1.00  0.00    -0.189 C  
BRANCH  40  41
HETATM   41  C   UNL     1      -9.056   5.614  72.871  1.00  0.00    -0.125 C  
BRANCH  41  42
HETATM   42  O   UNL     1      -9.487   6.969  72.758  1.00  0.00    -0.143 OA 
HETATM   43  C   UNL     1     -10.709   7.182  73.452  1.00  0.00    -0.368 C  
ENDBRANCH  41  42
ENDBRANCH  40  41
ENDBRANCH  39  40
ENDBRANCH  38  39
ENDBRANCH  37  38
ENDBRANCH  36  37
ENDBRANCH  35  36
ENDBRANCH  34  35
ENDBRANCH  33  34
ENDBRANCH  32  33
ENDBRANCH  31  32
ENDBRANCH  30  31
ENDBRANCH  29  30
ENDBRANCH  28  29
ENDBRANCH  27  28
ENDBRANCH  26  27
ENDBRANCH  25  26
ENDBRANCH  24  25
ENDBRANCH  23  24
ENDBRANCH  22  23
ENDBRANCH  21  22
ENDBRANCH  20  21
ENDBRANCH  19  20
ENDBRANCH  18  19
ENDBRANCH  17  18
ENDBRANCH  16  17
ENDBRANCH  15  16
ENDBRANCH  13  15
ENDBRANCH  10  13
ENDBRANCH   5   7
ENDBRANCH   4   5
ENDBRANCH   3   4
ENDBRANCH   2   3
TORSDOF 33
ENDMDL
MODEL      177
REMARK 921   NORMALIZED FREE ENERGY PREDICTED BY IDOCK:   -2.73 KCAL/MOL
REMARK 922        TOTAL FREE ENERGY PREDICTED BY IDOCK:  -10.79 KCAL/MOL
REMARK 923 INTER-LIGAND FREE ENERGY PREDICTED BY IDOCK:   -8.18 KCAL/MOL
REMARK 924 INTRA-LIGAND FREE ENERGY PREDICTED BY IDOCK:   -2.61 KCAL/MOL
REMARK 927      BINDING AFFINITY PREDICTED BY RF-SCORE:    0.00 PKD
ROOT
HETATM    1  C   UNL     1      -9.944   5.629  68.113  1.00  0.00    -0.186 C  
HETATM    2  C   UNL     1      -9.857   6.245  66.730  1.00  0.00    -0.208 C  
ENDROOT
BRANCH   2   3
HETATM    3  C   UNL     1      -8.442   6.727  66.400  1.00  0.00    -0.126 C  
BRANCH   3   4
HETATM    4  C   UNL     1      -8.208   8.093  67.036  1.00  0.00    -0.115 C  
BRANCH   4   5
HETATM    5  N   UNL     1      -7.039   8.088  67.909  1.00  0.00    -0.084 NA 
HETATM    6  H   UNL     1      -6.094   8.081  67.524  1.00  0.00     0.000 HD 
BRANCH   5   7
HETATM    7  C   UNL     1      -7.258   8.096  69.296  1.00  0.00    -0.072 A  
HETATM    8  C   UNL     1      -6.700   7.147  70.164  1.00  0.00    -0.051 A  
HETATM    9  C   UNL     1      -6.999   7.139  71.526  1.00  0.00    -0.064 A  
HETATM   10  C   UNL     1      -7.898   8.064  72.059  1.00  0.00    -0.131 A  
HETATM   11  C   UNL     1      -8.174   9.010  69.838  1.00  0.00    -0.124 A  
HETATM   12  C   UNL     1      -8.491   9.003  71.206  1.00  0.00    -0.196 A  
BRANCH  10  13
HETATM   13  C   UNL     1      -8.192   7.969  73.512  1.00  0.00    -0.214 C  
HETATM   14  O   UNL     1      -7.885   8.839  74.314  1.00  0.00    -0.402 OA 
BRANCH  13  15
HETATM   15  O   UNL     1      -8.801   6.801  73.814  1.00  0.00    -0.130 OA 
BRANCH  15  16
HETATM   16  C   UNL     1     -10.240   6.857  73.814  1.00  0.00    -0.363 C  
BRANCH  16  17
HETATM   17  C   UNL     1     -10.843   5.652  73.091  1.00  0.00    -0.281 C  
BRANCH  17  18
HETATM   18  O   UNL     1     -10.762   5.862  71.677  1.00  0.00    -0.236 OA 
BRANCH  18  19
HETATM   19  C   UNL     1     -11.384   7.088  71.299  1.00  0.00    -0.274 C  
BRANCH  19  20
HETATM   20  C   UNL     1     -12.877   6.861  71.104  1.00  0.00    -0.226 C  
BRANCH  20  21
HETATM   21  O   UNL     1     -13.594   7.652  72.050  1.00  0.00    -0.263 OA 
BRANCH  21  22
HETATM   22  C   UNL     1     -14.197   8.786  71.431  1.00  0.00    -0.223 C  
BRANCH  22  23
HETATM   23  C   UNL     1     -13.733  10.050  72.144  1.00  0.00    -0.150 C  
BRANCH  23  24
HETATM   24  O   UNL     1     -12.461  10.436  71.628  1.00  0.00    -0.391 OA 
BRANCH  24  25
HETATM   25  C   UNL     1     -12.558  11.635  70.861  1.00  0.00    -0.313 C  
BRANCH  25  26
HETATM   26  C   UNL     1     -13.224  12.712  71.705  1.00  0.00    -0.298 C  
BRANCH  26  27
HETATM   27  O   UNL     1     -12.537  13.945  71.508  1.00  0.00    -0.341 OA 
BRANCH  27  28
HETATM   28  C   UNL     1     -12.318  14.199  70.122  1.00  0.00    -0.351 C  
BRANCH  28  29
HETATM   29  C   UNL     1     -10.829  14.099  69.830  1.00  0.00     0.053 C  
BRANCH  29  30
HETATM   30  O   UNL     1     -10.627  13.154  68.783  1.00  0.00    -0.248 OA 
BRANCH  30  31
HETATM   31  C   UNL     1      -9.591  13.577  67.900  1.00  0.00    -0.218 C  
BRANCH  31  32
HETATM   32  C   UNL     1      -8.510  12.508  67.856  1.00  0.00    -0.171 C  
BRANCH  32  33
HETATM   33  O   UNL     1      -7.236  13.142  67.797  1.00  0.00    -0.115 OA 
BRANCH  33  34
HETATM   34  C   UNL     1      -7.364  14.521  67.465  1.00  0.00    -0.189 C  
BRANCH  34  35
HETATM   35  C   UNL     1      -6.166  15.276  68.022  1.00  0.00    -0.144 C  
BRANCH  35  36
HETATM   36  O   UNL     1      -6.349  15.466  69.423  1.00  0.00    -0.118 OA 
BRANCH  36  37
HETATM   37  C   UNL     1      -5.414  16.408  69.942  1.00  0.00    -0.166 C  
BRANCH  37  38
HETATM   38  C   UNL     1      -5.768  17.794  69.423  1.00  0.00    -0.221 C  
BRANCH  38  39
HETATM   39  O   UNL     1      -7.134  18.069  69.722  1.00  0.00     0.113 OA 
BRANCH  39  40
HETATM   40  C   UNL     1      -7.626  19.153  68.935  1.00  0.00    -0.336 C  
BRANCH  40  41
HETATM   41  C   UNL     1      -6.790  19.270  67.669  1.00  0.00    -0.215 C  
BRANCH  41  42
HETATM   42  O   UNL     1      -7.629  19.095  66.529  1.00  0.00    -0.231 OA 
HETATM   43  C   UNL     1      -6.876  18.720  65.384  1.00  0.00    -0.162 C  
ENDBRANCH  41  42
ENDBRANCH  40  41
ENDBRANCH  39  40
ENDBRANCH  38  39
ENDBRANCH  37  38
ENDBRANCH  36  37
ENDBRANCH  35  36
ENDBRANCH  34  35
ENDBRANCH  33  34
ENDBRANCH  32  33
ENDBRANCH  31  32
ENDBRANCH  30  31
ENDBRANCH  29  30
ENDBRANCH  28  29
ENDBRANCH  27  28
ENDBRANCH  26  27
ENDBRANCH  25  26
ENDBRANCH  24  25
ENDBRANCH  23  24
ENDBRANCH  22  23
ENDBRANCH  21  22
ENDBRANCH  20  21
ENDBRANCH  19  20
ENDBRANCH  18  19
ENDBRANCH  17  18
ENDBRANCH  16  17
ENDBRANCH  15  16
ENDBRANCH  13  15
ENDBRANCH  10  13
ENDBRANCH   5   7
ENDBRANCH   4   5
ENDBRANCH   3   4
ENDBRANCH   2   3
TORSDOF 33
ENDMDL
MODEL      178
REMARK 921   NORMALIZED FREE ENERGY PREDICTED BY IDOCK:   -2.68 KCAL/MOL
REMARK 922        TOTAL FREE ENERGY PREDICTED BY IDOCK:  -10.66 KCAL/MOL
REMARK 923 INTER-LIGAND FREE ENERGY PREDICTED BY IDOCK:   -8.60 KCAL/MOL
REMARK 924 INTRA-LIGAND FREE ENERGY PREDICTED BY IDOCK:   -2.06 KCAL/MOL
REMARK 927      BINDING AFFINITY PREDICTED BY RF-SCORE:    0.00 PKD
ROOT
HETATM    1  C   UNL     1      -9.872   2.792  71.613  1.00  0.00    -0.211 C  
HETATM    2  C   UNL     1      -9.483   4.257  71.645  1.00  0.00    -0.211 C  
ENDROOT
BRANCH   2   3
HETATM    3  C   UNL     1      -8.845   4.715  70.331  1.00  0.00    -0.137 C  
BRANCH   3   4
HETATM    4  C   UNL     1      -9.019   3.628  69.276  1.00  0.00    -0.116 C  
BRANCH   4   5
HETATM    5  N   UNL     1      -9.953   4.034  68.232  1.00  0.00     0.023 NA 
HETATM    6  H   UNL     1     -10.902   3.661  68.200  1.00  0.00     0.000 HD 
BRANCH   5   7
HETATM    7  C   UNL     1      -9.503   4.955  67.272  1.00  0.00    -0.142 A  
HETATM    8  C   UNL     1      -8.545   4.640  66.299  1.00  0.00    -0.113 A  
HETATM    9  C   UNL     1      -8.064   5.601  65.410  1.00  0.00    -0.126 A  
HETATM   10  C   UNL     1      -8.505   6.923  65.490  1.00  0.00    -0.122 A  
HETATM   11  C   UNL     1      -9.926   6.290  67.356  1.00  0.00    -0.168 A  
HETATM   12  C   UNL     1      -9.440   7.268  66.473  1.00  0.00    -0.218 A  
BRANCH  10  13
HETATM   13  C   UNL     1      -7.921   7.894  64.530  1.00  0.00    -0.140 C  
HETATM   14  O   UNL     1      -6.846   7.720  63.973  1.00  0.00    -0.059 OA 
BRANCH  13  15
HETATM   15  O   UNL     1      -8.712   8.982  64.389  1.00  0.00    -0.186 OA 
BRANCH  15  16
HETATM   16  C   UNL     1      -8.025  10.242  64.503  1.00  0.00    -0.133 C  
BRANCH  16  17
HETATM   17  C   UNL     1      -7.706  10.571  65.961  1.00  0.00    -0.147 C  
BRANCH  17  18
HETATM   18  O   UNL     1      -6.308  10.853  66.085  1.00  0.00    -0.126 OA 
BRANCH  18  19
HETATM   19  C   UNL     1      -6.004  11.414  67.360  1.00  0.00    -0.073 C  
BRANCH  19  20
HETATM   20  C   UNL     1      -7.119  11.079  68.342  1.00  0.00    -0.074 C  
BRANCH  20  21
HETATM   21  O   UNL     1      -7.810  12.279  68.687  1.00  0.00    -0.123 OA 
BRANCH  21  22
HETATM   22  C   UNL     1      -6.903  13.357  68.908  1.00  0.00    -0.111 C  
BRANCH  22  23
HETATM   23  C   UNL     1      -7.688  14.660  68.992  1.00  0.00    -0.134 C  
BRANCH  23  24
HETATM   24  O   UNL     1      -6.849  15.676  69.539  1.00  0.00    -0.170 OA 
BRANCH  24  25
HETATM   25  C   UNL     1      -5.565  15.674  68.918  1.00  0.00    -0.103 C  
BRANCH  25  26
HETATM   26  C   UNL     1      -5.551  16.709  67.803  1.00  0.00    -0.133 C  
BRANCH  26  27
HETATM   27  O   UNL     1      -6.191  17.896  68.262  1.00  0.00    -0.172 OA 
BRANCH  27  28
HETATM   28  C   UNL     1      -7.034  18.450  67.255  1.00  0.00    -0.199 C  
BRANCH  28  29
HETATM   29  C   UNL     1      -7.249  17.413  66.163  1.00  0.00    -0.292 C  
BRANCH  29  30
HETATM   30  O   UNL     1      -8.645  17.296  65.906  1.00  0.00    -0.528 OA 
BRANCH  30  31
HETATM   31  C   UNL     1      -9.252  16.350  66.783  1.00  0.00    -0.237 C  
BRANCH  31  32
HETATM   32  C   UNL     1     -10.642  16.842  67.157  1.00  0.00    -0.256 C  
BRANCH  32  33
HETATM   33  O   UNL     1     -10.743  16.906  68.576  1.00  0.00    -0.340 OA 
BRANCH  33  34
HETATM   34  C   UNL     1     -11.468  15.792  69.089  1.00  0.00    -0.380 C  
BRANCH  34  35
HETATM   35  C   UNL     1     -11.170  15.652  70.575  1.00  0.00    -0.362 C  
BRANCH  35  36
HETATM   36  O   UNL     1     -12.376  15.845  71.310  1.00  0.00    -0.423 OA 
BRANCH  36  37
HETATM   37  C   UNL     1     -12.451  14.956  72.421  1.00  0.00    -0.343 C  
BRANCH  37  38
HETATM   38  C   UNL     1     -13.827  14.306  72.442  1.00  0.00    -0.518 C  
BRANCH  38  39
HETATM   39  O   UNL     1     -13.818  13.166  71.588  1.00  0.00    -0.151 OA 
BRANCH  39  40
HETATM   40  C   UNL     1     -12.586  12.452  71.691  1.00  0.00    -0.085 C  
BRANCH  40  41
HETATM   41  C   UNL     1     -12.866  10.959  71.583  1.00  0.00    -0.449 C  
BRANCH  41  42
HETATM   42  O   UNL     1     -12.976  10.597  70.208  1.00  0.00    -0.268 OA 
HETATM   43  C   UNL     1     -11.934  11.176  69.436  1.00  0.00    -0.349 C  
ENDBRANCH  41  42
ENDBRANCH  40  41
ENDBRANCH  39  40
ENDBRANCH  38  39
ENDBRANCH  37  38
ENDBRANCH  36  37
ENDBRANCH  35  36
ENDBRANCH  34  35
ENDBRANCH  33  34
ENDBRANCH  32  33
ENDBRANCH  31  32
ENDBRANCH  30  31
ENDBRANCH  29  30
ENDBRANCH  28  29
ENDBRANCH  27  28
ENDBRANCH  26  27
ENDBRANCH  25  26
ENDBRANCH  24  25
ENDBRANCH  23  24
ENDBRANCH  22  23
ENDBRANCH  21  22
ENDBRANCH  20  21
ENDBRANCH  19  20
ENDBRANCH  18  19
ENDBRANCH  17  18
ENDBRANCH  16  17
ENDBRANCH  15  16
ENDBRANCH  13  15
ENDBRANCH  10  13
ENDBRANCH   5   7
ENDBRANCH   4   5
ENDBRANCH   3   4
ENDBRANCH   2   3
TORSDOF 33
ENDMDL
MODEL      179
REMARK 921   NORMALIZED FREE ENERGY PREDICTED BY IDOCK:   -2.68 KCAL/MOL
REMARK 922        TOTAL FREE ENERGY PREDICTED BY IDOCK:  -10.64 KCAL/MOL
REMARK 923 INTER-LIGAND FREE ENERGY PREDICTED BY IDOCK:   -8.97 KCAL/MOL
REMARK 924 INTRA-LIGAND FREE ENERGY PREDICTED BY IDOCK:   -1.67 KCAL/MOL
REMARK 927      BINDING AFFINITY PREDICTED BY RF-SCORE:    0.00 PKD
ROOT
HETATM    1  C   UNL     1      -5.738   4.318  72.622  1.00  0.00    -0.011 C  
HETATM    2  C   UNL     1      -6.077   3.292  71.557  1.00  0.00    -0.014 C  
ENDROOT
BRANCH   2   3
HETATM    3  C   UNL     1      -6.844   3.908  70.384  1.00  0.00    -0.033 C  
BRANCH   3   4
HETATM    4  C   UNL     1      -8.250   3.321  70.331  1.00  0.00    -0.051 C  
BRANCH   4   5
HETATM    5  N   UNL     1      -8.976   3.546  71.576  1.00  0.00    -0.098 NA 
HETATM    6  H   UNL     1      -8.760   3.009  72.416  1.00  0.00     0.000 HD 
BRANCH   5   7
HETATM    7  C   UNL     1      -9.981   4.527  71.579  1.00  0.00    -0.189 A  
HETATM    8  C   UNL     1     -10.383   5.215  70.427  1.00  0.00    -0.326 A  
HETATM    9  C   UNL     1     -11.330   6.236  70.479  1.00  0.00    -0.428 A  
HETATM   10  C   UNL     1     -11.884   6.626  71.700  1.00  0.00    -0.383 A  
HETATM   11  C   UNL     1     -10.529   4.938  72.803  1.00  0.00    -0.257 A  
HETATM   12  C   UNL     1     -11.477   5.973  72.869  1.00  0.00    -0.185 A  
BRANCH  10  13
HETATM   13  C   UNL     1     -12.861   7.745  71.678  1.00  0.00    -0.340 C  
HETATM   14  O   UNL     1     -14.039   7.598  71.385  1.00  0.00    -0.399 OA 
BRANCH  13  15
HETATM   15  O   UNL     1     -12.269   8.920  71.989  1.00  0.00    -0.338 OA 
BRANCH  15  16
HETATM   16  C   UNL     1     -11.000   9.142  71.346  1.00  0.00    -0.344 C  
BRANCH  16  17
HETATM   17  C   UNL     1     -11.117  10.180  70.230  1.00  0.00    -0.317 C  
BRANCH  17  18
HETATM   18  O   UNL     1     -12.349  10.894  70.377  1.00  0.00    -0.307 OA 
BRANCH  18  19
HETATM   19  C   UNL     1     -12.129  12.302  70.420  1.00  0.00    -0.300 C  
BRANCH  19  20
HETATM   20  C   UNL     1     -11.671  12.787  69.051  1.00  0.00    -0.323 C  
BRANCH  20  21
HETATM   21  O   UNL     1     -12.097  14.137  68.870  1.00  0.00    -0.345 OA 
BRANCH  21  22
HETATM   22  C   UNL     1     -11.660  14.656  67.616  1.00  0.00    -0.361 C  
BRANCH  22  23
HETATM   23  C   UNL     1     -12.396  13.937  66.493  1.00  0.00    -0.404 C  
BRANCH  23  24
HETATM   24  O   UNL     1     -11.449  13.487  65.527  1.00  0.00    -0.300 OA 
BRANCH  24  25
HETATM   25  C   UNL     1     -11.465  12.066  65.410  1.00  0.00    -0.305 C  
BRANCH  25  26
HETATM   26  C   UNL     1     -11.694  11.690  63.953  1.00  0.00    -0.273 C  
BRANCH  26  27
HETATM   27  O   UNL     1     -10.641  12.233  63.162  1.00  0.00    -0.364 OA 
BRANCH  27  28
HETATM   28  C   UNL     1      -9.416  11.539  63.388  1.00  0.00    -0.253 C  
BRANCH  28  29
HETATM   29  C   UNL     1      -9.428  10.243  62.591  1.00  0.00    -0.277 C  
BRANCH  29  30
HETATM   30  O   UNL     1      -9.145   9.158  63.471  1.00  0.00    -0.076 OA 
BRANCH  30  31
HETATM   31  C   UNL     1      -8.146   9.514  64.423  1.00  0.00    -0.141 C  
BRANCH  31  32
HETATM   32  C   UNL     1      -7.181   8.350  64.586  1.00  0.00    -0.082 C  
BRANCH  32  33
HETATM   33  O   UNL     1      -7.093   8.013  65.966  1.00  0.00    -0.061 OA 
BRANCH  33  34
HETATM   34  C   UNL     1      -8.377   7.702  66.501  1.00  0.00    -0.129 C  
BRANCH  34  35
HETATM   35  C   UNL     1      -8.471   6.199  66.717  1.00  0.00    -0.111 C  
BRANCH  35  36
HETATM   36  O   UNL     1      -7.351   5.571  66.098  1.00  0.00    -0.075 OA 
BRANCH  36  37
HETATM   37  C   UNL     1      -6.894   4.460  66.864  1.00  0.00    -0.052 C  
BRANCH  37  38
HETATM   38  C   UNL     1      -6.816   3.236  65.963  1.00  0.00    -0.052 C  
BRANCH  38  39
HETATM   39  O   UNL     1      -7.291   3.580  64.665  1.00  0.00    -0.068 OA 
BRANCH  39  40
HETATM   40  C   UNL     1      -8.370   2.734  64.269  1.00  0.00    -0.083 C  
BRANCH  40  41
HETATM   41  C   UNL     1      -9.242   3.476  63.265  1.00  0.00    -0.097 C  
BRANCH  41  42
HETATM   42  O   UNL     1     -10.611   3.350  63.644  1.00  0.00    -0.232 OA 
HETATM   43  C   UNL     1     -11.175   2.143  63.149  1.00  0.00    -0.189 C  
ENDBRANCH  41  42
ENDBRANCH  40  41
ENDBRANCH  39  40
ENDBRANCH  38  39
ENDBRANCH  37  38
ENDBRANCH  36  37
ENDBRANCH  35  36
ENDBRANCH  34  35
ENDBRANCH  33  34
ENDBRANCH  32  33
ENDBRANCH  31  32
ENDBRANCH  30  31
ENDBRANCH  29  30
ENDBRANCH  28  29
ENDBRANCH  27  28
ENDBRANCH  26  27
ENDBRANCH  25  26
ENDBRANCH  24  25
ENDBRANCH  23  24
ENDBRANCH  22  23
ENDBRANCH  21  22
ENDBRANCH  20  21
ENDBRANCH  19  20
ENDBRANCH  18  19
ENDBRANCH  17  18
ENDBRANCH  16  17
ENDBRANCH  15  16
ENDBRANCH  13  15
ENDBRANCH  10  13
ENDBRANCH   5   7
ENDBRANCH   4   5
ENDBRANCH   3   4
ENDBRANCH   2   3
TORSDOF 33
ENDMDL
MODEL      180
REMARK 921   NORMALIZED FREE ENERGY PREDICTED BY IDOCK:   -2.67 KCAL/MOL
REMARK 922        TOTAL FREE ENERGY PREDICTED BY IDOCK:  -10.61 KCAL/MOL
REMARK 923 INTER-LIGAND FREE ENERGY PREDICTED BY IDOCK:   -8.65 KCAL/MOL
REMARK 924 INTRA-LIGAND FREE ENERGY PREDICTED BY IDOCK:   -1.96 KCAL/MOL
REMARK 927      BINDING AFFINITY PREDICTED BY RF-SCORE:    0.00 PKD
ROOT
HETATM    1  C   UNL     1     -10.770   8.960  66.829  1.00  0.00    -0.098 C  
HETATM    2  C   UNL     1     -10.886  10.418  67.230  1.00  0.00    -0.324 C  
ENDROOT
BRANCH   2   3
HETATM    3  C   UNL     1     -11.648  10.596  68.546  1.00  0.00    -0.279 C  
BRANCH   3   4
HETATM    4  C   UNL     1     -10.685  10.436  69.717  1.00  0.00    -0.278 C  
BRANCH   4   5
HETATM    5  N   UNL     1     -10.549   9.040  70.117  1.00  0.00    -0.216 NA 
HETATM    6  H   UNL     1     -11.221   8.337  69.810  1.00  0.00     0.000 HD 
BRANCH   5   7
HETATM    7  C   UNL     1      -9.463   8.697  70.939  1.00  0.00    -0.194 A  
HETATM    8  C   UNL     1      -8.246   8.218  70.437  1.00  0.00    -0.114 A  
HETATM    9  C   UNL     1      -7.215   7.815  71.285  1.00  0.00    -0.062 A  
HETATM   10  C   UNL     1      -7.385   7.847  72.671  1.00  0.00    -0.114 A  
HETATM   11  C   UNL     1      -9.631   8.709  72.331  1.00  0.00    -0.305 A  
HETATM   12  C   UNL     1      -8.603   8.294  73.195  1.00  0.00    -0.278 A  
BRANCH  10  13
HETATM   13  C   UNL     1      -6.253   7.369  73.506  1.00  0.00    -0.060 C  
HETATM   14  O   UNL     1      -5.247   8.032  73.712  1.00  0.00    -0.048 OA 
BRANCH  13  15
HETATM   15  O   UNL     1      -6.477   6.117  73.966  1.00  0.00    -0.069 OA 
BRANCH  15  16
HETATM   16  C   UNL     1      -6.143   5.068  73.039  1.00  0.00    -0.030 C  
BRANCH  16  17
HETATM   17  C   UNL     1      -6.926   3.790  73.339  1.00  0.00    -0.050 C  
BRANCH  17  18
HETATM   18  O   UNL     1      -7.139   3.070  72.121  1.00  0.00    -0.035 OA 
BRANCH  18  19
HETATM   19  C   UNL     1      -8.449   3.296  71.607  1.00  0.00    -0.065 C  
BRANCH  19  20
HETATM   20  C   UNL     1      -9.287   4.020  72.653  1.00  0.00    -0.118 C  
BRANCH  20  21
HETATM   21  O   UNL     1      -9.661   5.299  72.144  1.00  0.00    -0.158 OA 
BRANCH  21  22
HETATM   22  C   UNL     1     -10.981   5.279  71.604  1.00  0.00    -0.050 C  
BRANCH  22  23
HETATM   23  C   UNL     1     -11.987   5.240  72.747  1.00  0.00     0.018 C  
BRANCH  23  24
HETATM   24  O   UNL     1     -13.079   6.104  72.437  1.00  0.00     0.059 OA 
BRANCH  24  25
HETATM   25  C   UNL     1     -12.760   6.968  71.348  1.00  0.00    -0.374 C  
BRANCH  25  26
HETATM   26  C   UNL     1     -13.846   8.027  71.220  1.00  0.00    -0.172 C  
BRANCH  26  27
HETATM   27  O   UNL     1     -13.925   8.761  72.439  1.00  0.00    -0.435 OA 
BRANCH  27  28
HETATM   28  C   UNL     1     -13.019   9.862  72.438  1.00  0.00    -0.177 C  
BRANCH  28  29
HETATM   29  C   UNL     1     -13.722  11.081  71.860  1.00  0.00     0.163 C  
BRANCH  29  30
HETATM   30  O   UNL     1     -12.952  12.242  72.160  1.00  0.00    -0.342 OA 
BRANCH  30  31
HETATM   31  C   UNL     1     -13.790  13.378  72.355  1.00  0.00    -0.564 C  
BRANCH  31  32
HETATM   32  C   UNL     1     -13.551  14.369  71.226  1.00  0.00    -0.323 C  
BRANCH  32  33
HETATM   33  O   UNL     1     -12.187  14.778  71.251  1.00  0.00    -0.297 OA 
BRANCH  33  34
HETATM   34  C   UNL     1     -11.592  14.660  69.962  1.00  0.00    -0.284 C  
BRANCH  34  35
HETATM   35  C   UNL     1     -10.966  15.994  69.584  1.00  0.00    -0.326 C  
BRANCH  35  36
HETATM   36  O   UNL     1     -11.281  16.285  68.224  1.00  0.00    -0.352 OA 
BRANCH  36  37
HETATM   37  C   UNL     1     -10.470  17.343  67.722  1.00  0.00    -0.376 C  
BRANCH  37  38
HETATM   38  C   UNL     1     -10.386  17.227  66.207  1.00  0.00    -0.322 C  
BRANCH  38  39
HETATM   39  O   UNL     1      -9.293  18.011  65.738  1.00  0.00    -0.489 OA 
BRANCH  39  40
HETATM   40  C   UNL     1      -8.951  19.033  66.673  1.00  0.00    -0.326 C  
BRANCH  40  41
HETATM   41  C   UNL     1      -7.543  19.530  66.375  1.00  0.00    -0.281 C  
BRANCH  41  42
HETATM   42  O   UNL     1      -6.771  18.464  65.826  1.00  0.00    -0.250 OA 
HETATM   43  C   UNL     1      -5.720  18.955  65.006  1.00  0.00    -0.250 C  
ENDBRANCH  41  42
ENDBRANCH  40  41
ENDBRANCH  39  40
ENDBRANCH  38  39
ENDBRANCH  37  38
ENDBRANCH  36  37
ENDBRANCH  35  36
ENDBRANCH  34  35
ENDBRANCH  33  34
ENDBRANCH  32  33
ENDBRANCH  31  32
ENDBRANCH  30  31
ENDBRANCH  29  30
ENDBRANCH  28  29
ENDBRANCH  27  28
ENDBRANCH  26  27
ENDBRANCH  25  26
ENDBRANCH  24  25
ENDBRANCH  23  24
ENDBRANCH  22  23
ENDBRANCH  21  22
ENDBRANCH  20  21
ENDBRANCH  19  20
ENDBRANCH  18  19
ENDBRANCH  17  18
ENDBRANCH  16  17
ENDBRANCH  15  16
ENDBRANCH  13  15
ENDBRANCH  10  13
ENDBRANCH   5   7
ENDBRANCH   4   5
ENDBRANCH   3   4
ENDBRANCH   2   3
TORSDOF 33
ENDMDL
MODEL      181
REMARK 921   NORMALIZED FREE ENERGY PREDICTED BY IDOCK:   -2.65 KCAL/MOL
REMARK 922        TOTAL FREE ENERGY PREDICTED BY IDOCK:  -10.57 KCAL/MOL
REMARK 923 INTER-LIGAND FREE ENERGY PREDICTED BY IDOCK:   -8.55 KCAL/MOL
REMARK 924 INTRA-LIGAND FREE ENERGY PREDICTED BY IDOCK:   -2.02 KCAL/MOL
REMARK 927      BINDING AFFINITY PREDICTED BY RF-SCORE:    0.00 PKD
ROOT
HETATM    1  C   UNL     1      -9.260   3.057  69.718  1.00  0.00    -0.219 C  
HETATM    2  C   UNL     1      -9.538   2.040  68.628  1.00  0.00    -0.127 C  
ENDROOT
BRANCH   2   3
HETATM    3  C   UNL     1      -8.250   1.469  68.029  1.00  0.00    -0.069 C  
BRANCH   3   4
HETATM    4  C   UNL     1      -8.186   1.809  66.543  1.00  0.00    -0.084 C  
BRANCH   4   5
HETATM    5  N   UNL     1      -7.168   2.815  66.263  1.00  0.00    -0.064 NA 
HETATM    6  H   UNL     1      -6.332   2.583  65.727  1.00  0.00     0.000 HD 
BRANCH   5   7
HETATM    7  C   UNL     1      -7.377   4.113  66.757  1.00  0.00    -0.073 A  
HETATM    8  C   UNL     1      -8.398   4.953  66.292  1.00  0.00    -0.111 A  
HETATM    9  C   UNL     1      -8.530   6.264  66.749  1.00  0.00    -0.111 A  
HETATM   10  C   UNL     1      -7.618   6.789  67.666  1.00  0.00    -0.106 A  
HETATM   11  C   UNL     1      -6.455   4.655  67.664  1.00  0.00    -0.045 A  
HETATM   12  C   UNL     1      -6.573   5.978  68.123  1.00  0.00    -0.055 A  
BRANCH  10  13
HETATM   13  C   UNL     1      -7.806   8.203  68.079  1.00  0.00    -0.122 C  
HETATM   14  O   UNL     1      -8.905   8.728  68.186  1.00  0.00    -0.140 OA 
BRANCH  13  15
HETATM   15  O   UNL     1      -6.618   8.817  68.283  1.00  0.00    -0.059 OA 
BRANCH  15  16
HETATM   16  C   UNL     1      -6.166   9.628  67.183  1.00  0.00    -0.064 C  
BRANCH  16  17
HETATM   17  C   UNL     1      -7.307   9.938  66.215  1.00  0.00    -0.102 C  
BRANCH  17  18
HETATM   18  O   UNL     1      -7.792  11.261  66.467  1.00  0.00    -0.153 OA 
BRANCH  18  19
HETATM   19  C   UNL     1      -6.817  12.051  67.143  1.00  0.00    -0.136 C  
BRANCH  19  20
HETATM   20  C   UNL     1      -7.511  12.984  68.126  1.00  0.00    -0.130 C  
BRANCH  20  21
HETATM   21  O   UNL     1      -8.444  12.232  68.901  1.00  0.00     0.051 OA 
BRANCH  21  22
HETATM   22  C   UNL     1      -9.786  12.631  68.632  1.00  0.00    -0.042 C  
BRANCH  22  23
HETATM   23  C   UNL     1     -10.713  11.443  68.852  1.00  0.00    -0.210 C  
BRANCH  23  24
HETATM   24  O   UNL     1     -11.855  11.580  68.009  1.00  0.00    -0.545 OA 
BRANCH  24  25
HETATM   25  C   UNL     1     -11.503  12.153  66.752  1.00  0.00    -0.356 C  
BRANCH  25  26
HETATM   26  C   UNL     1     -11.345  11.040  65.726  1.00  0.00     0.303 C  
BRANCH  26  27
HETATM   27  O   UNL     1     -12.103  11.368  64.565  1.00  0.00     0.099 OA 
BRANCH  27  28
HETATM   28  C   UNL     1     -11.371  12.231  63.698  1.00  0.00    -0.470 C  
BRANCH  28  29
HETATM   29  C   UNL     1     -12.207  13.470  63.411  1.00  0.00    -0.272 C  
BRANCH  29  30
HETATM   30  O   UNL     1     -12.279  14.261  64.593  1.00  0.00    -0.433 OA 
BRANCH  30  31
HETATM   31  C   UNL     1     -11.941  15.619  64.325  1.00  0.00    -0.115 C  
BRANCH  31  32
HETATM   32  C   UNL     1     -10.717  15.995  65.147  1.00  0.00    -0.409 C  
BRANCH  32  33
HETATM   33  O   UNL     1     -10.885  15.509  66.475  1.00  0.00    -0.313 OA 
BRANCH  33  34
HETATM   34  C   UNL     1      -9.900  16.053  67.349  1.00  0.00    -0.236 C  
BRANCH  34  35
HETATM   35  C   UNL     1     -10.355  17.430  67.808  1.00  0.00    -0.358 C  
BRANCH  35  36
HETATM   36  O   UNL     1     -10.587  17.397  69.214  1.00  0.00    -0.302 OA 
BRANCH  36  37
HETATM   37  C   UNL     1     -10.022  16.227  69.802  1.00  0.00    -0.052 C  
BRANCH  37  38
HETATM   38  C   UNL     1     -11.097  15.511  70.608  1.00  0.00    -0.352 C  
BRANCH  38  39
HETATM   39  O   UNL     1     -11.748  16.451  71.457  1.00  0.00    -0.448 OA 
BRANCH  39  40
HETATM   40  C   UNL     1     -12.338  15.806  72.585  1.00  0.00    -0.461 C  
BRANCH  40  41
HETATM   41  C   UNL     1     -13.796  15.496  72.274  1.00  0.00    -0.543 C  
BRANCH  41  42
HETATM   42  O   UNL     1     -14.115  14.191  72.754  1.00  0.00    -0.610 OA 
HETATM   43  C   UNL     1     -13.453  13.186  71.998  1.00  0.00    -0.507 C  
ENDBRANCH  41  42
ENDBRANCH  40  41
ENDBRANCH  39  40
ENDBRANCH  38  39
ENDBRANCH  37  38
ENDBRANCH  36  37
ENDBRANCH  35  36
ENDBRANCH  34  35
ENDBRANCH  33  34
ENDBRANCH  32  33
ENDBRANCH  31  32
ENDBRANCH  30  31
ENDBRANCH  29  30
ENDBRANCH  28  29
ENDBRANCH  27  28
ENDBRANCH  26  27
ENDBRANCH  25  26
ENDBRANCH  24  25
ENDBRANCH  23  24
ENDBRANCH  22  23
ENDBRANCH  21  22
ENDBRANCH  20  21
ENDBRANCH  19  20
ENDBRANCH  18  19
ENDBRANCH  17  18
ENDBRANCH  16  17
ENDBRANCH  15  16
ENDBRANCH  13  15
ENDBRANCH  10  13
ENDBRANCH   5   7
ENDBRANCH   4   5
ENDBRANCH   3   4
ENDBRANCH   2   3
TORSDOF 33
ENDMDL
MODEL      182
REMARK 921   NORMALIZED FREE ENERGY PREDICTED BY IDOCK:   -2.58 KCAL/MOL
REMARK 922        TOTAL FREE ENERGY PREDICTED BY IDOCK:  -10.37 KCAL/MOL
REMARK 923 INTER-LIGAND FREE ENERGY PREDICTED BY IDOCK:   -9.18 KCAL/MOL
REMARK 924 INTRA-LIGAND FREE ENERGY PREDICTED BY IDOCK:   -1.19 KCAL/MOL
REMARK 927      BINDING AFFINITY PREDICTED BY RF-SCORE:    0.00 PKD
ROOT
HETATM    1  C   UNL     1     -11.404  12.354  63.448  1.00  0.00    -0.507 C  
HETATM    2  C   UNL     1     -11.585  13.181  64.706  1.00  0.00    -0.368 C  
ENDROOT
BRANCH   2   3
HETATM    3  C   UNL     1     -10.456  14.198  64.896  1.00  0.00    -0.461 C  
BRANCH   3   4
HETATM    4  C   UNL     1     -11.052  15.572  65.183  1.00  0.00    -0.374 C  
BRANCH   4   5
HETATM    5  N   UNL     1     -10.278  16.297  66.183  1.00  0.00    -0.329 NA 
HETATM    6  H   UNL     1      -9.470  16.861  65.918  1.00  0.00     0.000 HD 
BRANCH   5   7
HETATM    7  C   UNL     1     -10.681  16.195  67.524  1.00  0.00    -0.304 A  
HETATM    8  C   UNL     1     -10.100  16.941  68.558  1.00  0.00    -0.297 A  
HETATM    9  C   UNL     1     -10.472  16.758  69.889  1.00  0.00    -0.048 A  
HETATM   10  C   UNL     1     -11.421  15.793  70.233  1.00  0.00    -0.369 A  
HETATM   11  C   UNL     1     -11.620  15.215  67.882  1.00  0.00    -0.326 A  
HETATM   12  C   UNL     1     -11.995  15.015  69.221  1.00  0.00    -0.322 A  
BRANCH  10  13
HETATM   13  C   UNL     1     -11.740  15.635  71.675  1.00  0.00    -0.446 C  
HETATM   14  O   UNL     1     -11.889  16.582  72.434  1.00  0.00    -0.532 OA 
BRANCH  13  15
HETATM   15  O   UNL     1     -11.808  14.330  72.023  1.00  0.00    -0.068 OA 
BRANCH  15  16
HETATM   16  C   UNL     1     -13.066  13.927  72.594  1.00  0.00    -0.429 C  
BRANCH  16  17
HETATM   17  C   UNL     1     -13.744  12.853  71.743  1.00  0.00    -0.034 C  
BRANCH  17  18
HETATM   18  O   UNL     1     -13.439  11.562  72.281  1.00  0.00    -0.368 OA 
BRANCH  18  19
HETATM   19  C   UNL     1     -13.104  10.637  71.249  1.00  0.00    -0.359 C  
BRANCH  19  20
HETATM   20  C   UNL     1     -11.970  11.204  70.406  1.00  0.00    -0.378 C  
BRANCH  20  21
HETATM   21  O   UNL     1     -10.898  10.263  70.376  1.00  0.00    -0.294 OA 
BRANCH  21  22
HETATM   22  C   UNL     1     -11.309   8.989  70.866  1.00  0.00    -0.293 C  
BRANCH  22  23
HETATM   23  C   UNL     1     -10.630   8.726  72.204  1.00  0.00    -0.316 C  
BRANCH  23  24
HETATM   24  O   UNL     1     -10.304   7.341  72.298  1.00  0.00    -0.201 OA 
BRANCH  24  25
HETATM   25  C   UNL     1     -10.783   6.780  73.518  1.00  0.00    -0.292 C  
BRANCH  25  26
HETATM   26  C   UNL     1     -10.794   5.263  73.397  1.00  0.00    -0.302 C  
BRANCH  26  27
HETATM   27  O   UNL     1     -10.121   4.888  72.198  1.00  0.00    -0.179 OA 
BRANCH  27  28
HETATM   28  C   UNL     1      -9.332   3.717  72.394  1.00  0.00    -0.119 C  
BRANCH  28  29
HETATM   29  C   UNL     1      -8.109   4.077  73.223  1.00  0.00    -0.089 C  
BRANCH  29  30
HETATM   30  O   UNL     1      -6.971   4.132  72.367  1.00  0.00    -0.047 OA 
BRANCH  30  31
HETATM   31  C   UNL     1      -6.666   5.476  72.002  1.00  0.00    -0.059 C  
BRANCH  31  32
HETATM   32  C   UNL     1      -6.831   5.629  70.497  1.00  0.00    -0.052 C  
BRANCH  32  33
HETATM   33  O   UNL     1      -8.108   5.125  70.119  1.00  0.00    -0.080 OA 
BRANCH  33  34
HETATM   34  C   UNL     1      -8.176   4.904  68.713  1.00  0.00    -0.083 C  
BRANCH  34  35
HETATM   35  C   UNL     1      -8.166   6.249  68.002  1.00  0.00    -0.115 C  
BRANCH  35  36
HETATM   36  O   UNL     1      -7.205   6.210  66.950  1.00  0.00    -0.071 OA 
BRANCH  36  37
HETATM   37  C   UNL     1      -7.530   7.137  65.918  1.00  0.00    -0.080 C  
BRANCH  37  38
HETATM   38  C   UNL     1      -8.734   6.617  65.146  1.00  0.00     0.120 C  
BRANCH  38  39
HETATM   39  O   UNL     1      -8.337   5.494  64.364  1.00  0.00    -0.134 OA 
BRANCH  39  40
HETATM   40  C   UNL     1      -9.470   4.810  63.829  1.00  0.00     0.166 C  
BRANCH  40  41
HETATM   41  C   UNL     1      -9.523   3.404  64.409  1.00  0.00    -0.146 C  
BRANCH  41  42
HETATM   42  O   UNL     1      -8.408   3.208  65.277  1.00  0.00    -0.093 OA 
HETATM   43  C   UNL     1      -8.445   1.924  65.885  1.00  0.00    -0.105 C  
ENDBRANCH  41  42
ENDBRANCH  40  41
ENDBRANCH  39  40
ENDBRANCH  38  39
ENDBRANCH  37  38
ENDBRANCH  36  37
ENDBRANCH  35  36
ENDBRANCH  34  35
ENDBRANCH  33  34
ENDBRANCH  32  33
ENDBRANCH  31  32
ENDBRANCH  30  31
ENDBRANCH  29  30
ENDBRANCH  28  29
ENDBRANCH  27  28
ENDBRANCH  26  27
ENDBRANCH  25  26
ENDBRANCH  24  25
ENDBRANCH  23  24
ENDBRANCH  22  23
ENDBRANCH  21  22
ENDBRANCH  20  21
ENDBRANCH  19  20
ENDBRANCH  18  19
ENDBRANCH  17  18
ENDBRANCH  16  17
ENDBRANCH  15  16
ENDBRANCH  13  15
ENDBRANCH  10  13
ENDBRANCH   5   7
ENDBRANCH   4   5
ENDBRANCH   3   4
ENDBRANCH   2   3
TORSDOF 33
ENDMDL
MODEL      183
REMARK 921   NORMALIZED FREE ENERGY PREDICTED BY IDOCK:   -2.56 KCAL/MOL
REMARK 922        TOTAL FREE ENERGY PREDICTED BY IDOCK:  -10.30 KCAL/MOL
REMARK 923 INTER-LIGAND FREE ENERGY PREDICTED BY IDOCK:   -9.37 KCAL/MOL
REMARK 924 INTRA-LIGAND FREE ENERGY PREDICTED BY IDOCK:   -0.93 KCAL/MOL
REMARK 927      BINDING AFFINITY PREDICTED BY RF-SCORE:    0.00 PKD
ROOT
HETATM    1  C   UNL     1     -11.164  12.161  63.142  1.00  0.00    -0.258 C  
HETATM    2  C   UNL     1     -11.484  12.780  64.489  1.00  0.00    -0.389 C  
ENDROOT
BRANCH   2   3
HETATM    3  C   UNL     1     -10.454  13.834  64.901  1.00  0.00    -0.437 C  
BRANCH   3   4
HETATM    4  C   UNL     1     -11.020  15.227  64.643  1.00  0.00    -0.304 C  
BRANCH   4   5
HETATM    5  N   UNL     1     -10.431  16.221  65.533  1.00  0.00    -0.482 NA 
HETATM    6  H   UNL     1      -9.820  16.954  65.174  1.00  0.00     0.000 HD 
BRANCH   5   7
HETATM    7  C   UNL     1     -10.735  16.136  66.902  1.00  0.00    -0.247 A  
HETATM    8  C   UNL     1     -10.211  17.016  67.858  1.00  0.00    -0.317 A  
HETATM    9  C   UNL     1     -10.473  16.857  69.218  1.00  0.00    -0.319 A  
HETATM   10  C   UNL     1     -11.246  15.785  69.670  1.00  0.00    -0.319 A  
HETATM   11  C   UNL     1     -11.495  15.053  67.367  1.00  0.00    -0.326 A  
HETATM   12  C   UNL     1     -11.757  14.877  68.736  1.00  0.00    -0.353 A  
BRANCH  10  13
HETATM   13  C   UNL     1     -11.452  15.665  71.136  1.00  0.00    -0.411 C  
HETATM   14  O   UNL     1     -11.439  16.624  71.894  1.00  0.00    -0.279 OA 
BRANCH  13  15
HETATM   15  O   UNL     1     -11.620  14.375  71.503  1.00  0.00    -0.160 OA 
BRANCH  15  16
HETATM   16  C   UNL     1     -12.581  14.171  72.556  1.00  0.00    -0.185 C  
BRANCH  16  17
HETATM   17  C   UNL     1     -13.602  13.099  72.177  1.00  0.00    -0.544 C  
BRANCH  17  18
HETATM   18  O   UNL     1     -13.148  11.827  72.652  1.00  0.00     0.114 OA 
BRANCH  18  19
HETATM   19  C   UNL     1     -13.030  10.888  71.586  1.00  0.00    -0.464 C  
BRANCH  19  20
HETATM   20  C   UNL     1     -12.427  11.575  70.368  1.00  0.00    -0.240 C  
BRANCH  20  21
HETATM   21  O   UNL     1     -11.272  10.850  69.948  1.00  0.00    -0.272 OA 
BRANCH  21  22
HETATM   22  C   UNL     1     -11.010   9.746  70.811  1.00  0.00    -0.336 C  
BRANCH  22  23
HETATM   23  C   UNL     1      -9.527   9.401  70.743  1.00  0.00    -0.241 C  
BRANCH  23  24
HETATM   24  O   UNL     1      -9.355   8.019  71.048  1.00  0.00    -0.146 OA 
BRANCH  24  25
HETATM   25  C   UNL     1      -8.745   7.844  72.325  1.00  0.00    -0.147 C  
BRANCH  25  26
HETATM   26  C   UNL     1      -9.832   7.672  73.375  1.00  0.00    -0.303 C  
BRANCH  26  27
HETATM   27  O   UNL     1     -10.937   6.987  72.792  1.00  0.00    -0.260 OA 
BRANCH  27  28
HETATM   28  C   UNL     1     -11.285   5.830  73.549  1.00  0.00     0.046 C  
BRANCH  28  29
HETATM   29  C   UNL     1     -10.013   5.177  74.068  1.00  0.00    -0.187 C  
BRANCH  29  30
HETATM   30  O   UNL     1     -10.142   3.762  73.954  1.00  0.00    -0.115 OA 
BRANCH  30  31
HETATM   31  C   UNL     1      -9.043   3.201  73.242  1.00  0.00    -0.089 C  
BRANCH  31  32
HETATM   32  C   UNL     1      -8.785   4.032  71.995  1.00  0.00    -0.105 C  
BRANCH  32  33
HETATM   33  O   UNL     1      -9.743   3.681  71.001  1.00  0.00    -0.178 OA 
BRANCH  33  34
HETATM   34  C   UNL     1      -9.888   4.722  70.039  1.00  0.00    -0.227 C  
BRANCH  34  35
HETATM   35  C   UNL     1      -9.125   4.339  68.779  1.00  0.00    -0.128 C  
BRANCH  35  36
HETATM   36  O   UNL     1     -10.034   4.296  67.682  1.00  0.00    -0.132 OA 
BRANCH  36  37
HETATM   37  C   UNL     1      -9.468   4.893  66.519  1.00  0.00    -0.152 C  
BRANCH  37  38
HETATM   38  C   UNL     1      -9.728   3.990  65.321  1.00  0.00    -0.197 C  
BRANCH  38  39
HETATM   39  O   UNL     1      -8.483   3.635  64.725  1.00  0.00    -0.099 OA 
BRANCH  39  40
HETATM   40  C   UNL     1      -8.373   4.165  63.405  1.00  0.00    -0.096 C  
BRANCH  40  41
HETATM   41  C   UNL     1      -6.940   4.621  63.170  1.00  0.00    -0.039 C  
BRANCH  41  42
HETATM   42  O   UNL     1      -6.943   5.966  62.695  1.00  0.00    -0.038 OA 
HETATM   43  C   UNL     1      -8.236   6.547  62.798  1.00  0.00    -0.008 C  
ENDBRANCH  41  42
ENDBRANCH  40  41
ENDBRANCH  39  40
ENDBRANCH  38  39
ENDBRANCH  37  38
ENDBRANCH  36  37
ENDBRANCH  35  36
ENDBRANCH  34  35
ENDBRANCH  33  34
ENDBRANCH  32  33
ENDBRANCH  31  32
ENDBRANCH  30  31
ENDBRANCH  29  30
ENDBRANCH  28  29
ENDBRANCH  27  28
ENDBRANCH  26  27
ENDBRANCH  25  26
ENDBRANCH  24  25
ENDBRANCH  23  24
ENDBRANCH  22  23
ENDBRANCH  21  22
ENDBRANCH  20  21
ENDBRANCH  19  20
ENDBRANCH  18  19
ENDBRANCH  17  18
ENDBRANCH  16  17
ENDBRANCH  15  16
ENDBRANCH  13  15
ENDBRANCH  10  13
ENDBRANCH   5   7
ENDBRANCH   4   5
ENDBRANCH   3   4
ENDBRANCH   2   3
TORSDOF 33
ENDMDL
MODEL      184
REMARK 921   NORMALIZED FREE ENERGY PREDICTED BY IDOCK:   -2.50 KCAL/MOL
REMARK 922        TOTAL FREE ENERGY PREDICTED BY IDOCK:  -10.14 KCAL/MOL
REMARK 923 INTER-LIGAND FREE ENERGY PREDICTED BY IDOCK:   -7.53 KCAL/MOL
REMARK 924 INTRA-LIGAND FREE ENERGY PREDICTED BY IDOCK:   -2.61 KCAL/MOL
REMARK 927      BINDING AFFINITY PREDICTED BY RF-SCORE:    0.00 PKD
ROOT
HETATM    1  C   UNL     1     -10.628   7.464  73.229  1.00  0.00    -0.442 C  
HETATM    2  C   UNL     1     -10.186   7.912  71.849  1.00  0.00    -0.258 C  
ENDROOT
BRANCH   2   3
HETATM    3  C   UNL     1     -11.372   8.139  70.908  1.00  0.00    -0.286 C  
BRANCH   3   4
HETATM    4  C   UNL     1     -11.986   6.796  70.529  1.00  0.00    -0.328 C  
BRANCH   4   5
HETATM    5  N   UNL     1     -11.831   6.515  69.106  1.00  0.00    -0.448 NA 
HETATM    6  H   UNL     1     -12.451   6.937  68.415  1.00  0.00     0.000 HD 
BRANCH   5   7
HETATM    7  C   UNL     1     -10.799   5.644  68.719  1.00  0.00    -0.140 A  
HETATM    8  C   UNL     1     -10.033   4.910  69.635  1.00  0.00    -0.302 A  
HETATM    9  C   UNL     1      -8.966   4.113  69.221  1.00  0.00    -0.164 A  
HETATM   10  C   UNL     1      -8.610   4.052  67.873  1.00  0.00    -0.109 A  
HETATM   11  C   UNL     1     -10.422   5.590  67.369  1.00  0.00    -0.284 A  
HETATM   12  C   UNL     1      -9.342   4.798  66.943  1.00  0.00    -0.141 A  
BRANCH  10  13
HETATM   13  C   UNL     1      -7.441   3.207  67.516  1.00  0.00    -0.062 C  
HETATM   14  O   UNL     1      -6.908   3.234  66.416  1.00  0.00    -0.050 OA 
BRANCH  13  15
HETATM   15  O   UNL     1      -7.082   2.406  68.544  1.00  0.00    -0.043 OA 
BRANCH  15  16
HETATM   16  C   UNL     1      -5.768   2.660  69.072  1.00  0.00    -0.022 C  
BRANCH  16  17
HETATM   17  C   UNL     1      -5.774   2.661  70.601  1.00  0.00    -0.017 C  
BRANCH  17  18
HETATM   18  O   UNL     1      -5.413   3.963  71.073  1.00  0.00    -0.007 OA 
BRANCH  18  19
HETATM   19  C   UNL     1      -6.516   4.609  71.705  1.00  0.00    -0.023 C  
BRANCH  19  20
HETATM   20  C   UNL     1      -6.588   6.059  71.246  1.00  0.00    -0.050 C  
BRANCH  20  21
HETATM   21  O   UNL     1      -5.749   6.227  70.105  1.00  0.00    -0.013 OA 
BRANCH  21  22
HETATM   22  C   UNL     1      -6.455   6.833  69.024  1.00  0.00    -0.036 C  
BRANCH  22  23
HETATM   23  C   UNL     1      -7.547   7.735  69.585  1.00  0.00    -0.092 C  
BRANCH  23  24
HETATM   24  O   UNL     1      -8.488   8.025  68.553  1.00  0.00    -0.126 OA 
BRANCH  24  25
HETATM   25  C   UNL     1      -8.664   9.432  68.396  1.00  0.00    -0.124 C  
BRANCH  25  26
HETATM   26  C   UNL     1      -8.206   9.838  67.003  1.00  0.00    -0.117 C  
BRANCH  26  27
HETATM   27  O   UNL     1      -8.777  11.102  66.677  1.00  0.00    -0.154 OA 
BRANCH  27  28
HETATM   28  C   UNL     1      -8.800  11.965  67.811  1.00  0.00    -0.166 C  
BRANCH  28  29
HETATM   29  C   UNL     1      -7.596  12.893  67.752  1.00  0.00    -0.141 C  
BRANCH  29  30
HETATM   30  O   UNL     1      -7.526  13.634  68.967  1.00  0.00    -0.080 OA 
BRANCH  30  31
HETATM   31  C   UNL     1      -7.547  15.037  68.715  1.00  0.00    -0.137 C  
BRANCH  31  32
HETATM   32  C   UNL     1      -6.133  15.584  68.845  1.00  0.00    -0.099 C  
BRANCH  32  33
HETATM   33  O   UNL     1      -6.068  16.851  68.198  1.00  0.00    -0.125 OA 
BRANCH  33  34
HETATM   34  C   UNL     1      -6.666  17.866  68.998  1.00  0.00    -0.248 C  
BRANCH  34  35
HETATM   35  C   UNL     1      -5.880  19.158  68.826  1.00  0.00    -0.215 C  
BRANCH  35  36
HETATM   36  O   UNL     1      -6.293  19.794  67.618  1.00  0.00    -0.197 OA 
BRANCH  36  37
HETATM   37  C   UNL     1      -7.648  20.226  67.700  1.00  0.00    -0.304 C  
BRANCH  37  38
HETATM   38  C   UNL     1      -8.434  19.613  66.550  1.00  0.00    -0.345 C  
BRANCH  38  39
HETATM   39  O   UNL     1      -9.816  19.584  66.892  1.00  0.00    -0.326 OA 
BRANCH  39  40
HETATM   40  C   UNL     1      -9.998  19.555  68.307  1.00  0.00    -0.433 C  
BRANCH  40  41
HETATM   41  C   UNL     1     -10.294  18.126  68.741  1.00  0.00    -0.253 C  
BRANCH  41  42
HETATM   42  O   UNL     1     -10.987  17.448  67.695  1.00  0.00    -0.294 OA 
HETATM   43  C   UNL     1     -10.944  16.039  67.874  1.00  0.00    -0.327 C  
ENDBRANCH  41  42
ENDBRANCH  40  41
ENDBRANCH  39  40
ENDBRANCH  38  39
ENDBRANCH  37  38
ENDBRANCH  36  37
ENDBRANCH  35  36
ENDBRANCH  34  35
ENDBRANCH  33  34
ENDBRANCH  32  33
ENDBRANCH  31  32
ENDBRANCH  30  31
ENDBRANCH  29  30
ENDBRANCH  28  29
ENDBRANCH  27  28
ENDBRANCH  26  27
ENDBRANCH  25  26
ENDBRANCH  24  25
ENDBRANCH  23  24
ENDBRANCH  22  23
ENDBRANCH  21  22
ENDBRANCH  20  21
ENDBRANCH  19  20
ENDBRANCH  18  19
ENDBRANCH  17  18
ENDBRANCH  16  17
ENDBRANCH  15  16
ENDBRANCH  13  15
ENDBRANCH  10  13
ENDBRANCH   5   7
ENDBRANCH   4   5
ENDBRANCH   3   4
ENDBRANCH   2   3
TORSDOF 33
ENDMDL
MODEL      185
REMARK 921   NORMALIZED FREE ENERGY PREDICTED BY IDOCK:   -2.49 KCAL/MOL
REMARK 922        TOTAL FREE ENERGY PREDICTED BY IDOCK:  -10.10 KCAL/MOL
REMARK 923 INTER-LIGAND FREE ENERGY PREDICTED BY IDOCK:   -6.30 KCAL/MOL
REMARK 924 INTRA-LIGAND FREE ENERGY PREDICTED BY IDOCK:   -3.80 KCAL/MOL
REMARK 927      BINDING AFFINITY PREDICTED BY RF-SCORE:    0.00 PKD
ROOT
HETATM    1  C   UNL     1      -8.821   6.481  62.750  1.00  0.00     0.577 C  
HETATM    2  C   UNL     1      -7.719   5.474  63.019  1.00  0.00    -0.078 C  
ENDROOT
BRANCH   2   3
HETATM    3  C   UNL     1      -6.366   6.149  63.259  1.00  0.00    -0.025 C  
BRANCH   3   4
HETATM    4  C   UNL     1      -6.226   7.353  62.334  1.00  0.00    -0.062 C  
BRANCH   4   5
HETATM    5  N   UNL     1      -5.526   8.455  62.984  1.00  0.00    -0.067 NA 
HETATM    6  H   UNL     1      -4.581   8.716  62.705  1.00  0.00     0.000 HD 
BRANCH   5   7
HETATM    7  C   UNL     1      -6.198   9.144  64.007  1.00  0.00    -0.083 A  
HETATM    8  C   UNL     1      -7.516   9.602  63.883  1.00  0.00    -0.123 A  
HETATM    9  C   UNL     1      -8.127  10.350  64.889  1.00  0.00    -0.130 A  
HETATM   10  C   UNL     1      -7.420  10.694  66.043  1.00  0.00    -0.137 A  
HETATM   11  C   UNL     1      -5.491   9.510  65.162  1.00  0.00    -0.046 A  
HETATM   12  C   UNL     1      -6.092  10.273  66.177  1.00  0.00    -0.087 A  
BRANCH  10  13
HETATM   13  C   UNL     1      -8.128  11.521  67.054  1.00  0.00    -0.161 C  
HETATM   14  O   UNL     1      -7.634  11.834  68.127  1.00  0.00    -0.102 OA 
BRANCH  13  15
HETATM   15  O   UNL     1      -9.375  11.842  66.639  1.00  0.00    -0.194 OA 
BRANCH  15  16
HETATM   16  C   UNL     1     -10.128  12.644  67.568  1.00  0.00    -0.212 C  
BRANCH  16  17
HETATM   17  C   UNL     1     -11.623  12.600  67.254  1.00  0.00    -0.364 C  
BRANCH  17  18
HETATM   18  O   UNL     1     -12.204  11.451  67.880  1.00  0.00    -0.592 OA 
BRANCH  18  19
HETATM   19  C   UNL     1     -11.807  11.350  69.246  1.00  0.00    -0.349 C  
BRANCH  19  20
HETATM   20  C   UNL     1     -12.800  10.476  70.000  1.00  0.00     0.023 C  
BRANCH  20  21
HETATM   21  O   UNL     1     -12.407  10.403  71.370  1.00  0.00    -0.368 OA 
BRANCH  21  22
HETATM   22  C   UNL     1     -13.422   9.804  72.172  1.00  0.00    -0.399 C  
BRANCH  22  23
HETATM   23  C   UNL     1     -13.338   8.289  72.033  1.00  0.00    -0.313 C  
BRANCH  23  24
HETATM   24  O   UNL     1     -11.968   7.893  72.056  1.00  0.00    -0.292 OA 
BRANCH  24  25
HETATM   25  C   UNL     1     -11.713   6.860  71.107  1.00  0.00    -0.336 C  
BRANCH  25  26
HETATM   26  C   UNL     1     -11.145   5.648  71.831  1.00  0.00    -0.214 C  
BRANCH  26  27
HETATM   27  O   UNL     1      -9.831   5.391  71.346  1.00  0.00    -0.156 OA 
BRANCH  27  28
HETATM   28  C   UNL     1      -9.865   4.622  70.146  1.00  0.00    -0.236 C  
BRANCH  28  29
HETATM   29  C   UNL     1      -8.450   4.190  69.793  1.00  0.00    -0.060 C  
BRANCH  29  30
HETATM   30  O   UNL     1      -8.497   3.350  68.643  1.00  0.00    -0.074 OA 
BRANCH  30  31
HETATM   31  C   UNL     1      -7.518   3.736  67.683  1.00  0.00    -0.067 C  
BRANCH  31  32
HETATM   32  C   UNL     1      -8.171   4.633  66.643  1.00  0.00    -0.106 C  
BRANCH  32  33
HETATM   33  O   UNL     1      -9.312   3.967  66.111  1.00  0.00    -0.149 OA 
BRANCH  33  34
HETATM   34  C   UNL     1     -10.380   4.882  65.882  1.00  0.00    -0.236 C  
BRANCH  34  35
HETATM   35  C   UNL     1     -10.006   6.234  66.472  1.00  0.00    -0.115 C  
BRANCH  35  36
HETATM   36  O   UNL     1     -11.185   6.864  66.968  1.00  0.00    -0.369 OA 
BRANCH  36  37
HETATM   37  C   UNL     1     -10.872   8.068  67.665  1.00  0.00    -0.038 C  
BRANCH  37  38
HETATM   38  C   UNL     1      -9.555   7.882  68.406  1.00  0.00    -0.150 C  
BRANCH  38  39
HETATM   39  O   UNL     1      -9.177   9.120  69.002  1.00  0.00    -0.141 OA 
BRANCH  39  40
HETATM   40  C   UNL     1      -8.427   8.910  70.198  1.00  0.00    -0.146 C  
BRANCH  40  41
HETATM   41  C   UNL     1      -6.967   9.253  69.937  1.00  0.00    -0.061 C  
BRANCH  41  42
HETATM   42  O   UNL     1      -6.140   8.512  70.831  1.00  0.00    -0.032 OA 
HETATM   43  C   UNL     1      -6.159   7.124  70.524  1.00  0.00    -0.027 C  
ENDBRANCH  41  42
ENDBRANCH  40  41
ENDBRANCH  39  40
ENDBRANCH  38  39
ENDBRANCH  37  38
ENDBRANCH  36  37
ENDBRANCH  35  36
ENDBRANCH  34  35
ENDBRANCH  33  34
ENDBRANCH  32  33
ENDBRANCH  31  32
ENDBRANCH  30  31
ENDBRANCH  29  30
ENDBRANCH  28  29
ENDBRANCH  27  28
ENDBRANCH  26  27
ENDBRANCH  25  26
ENDBRANCH  24  25
ENDBRANCH  23  24
ENDBRANCH  22  23
ENDBRANCH  21  22
ENDBRANCH  20  21
ENDBRANCH  19  20
ENDBRANCH  18  19
ENDBRANCH  17  18
ENDBRANCH  16  17
ENDBRANCH  15  16
ENDBRANCH  13  15
ENDBRANCH  10  13
ENDBRANCH   5   7
ENDBRANCH   4   5
ENDBRANCH   3   4
ENDBRANCH   2   3
TORSDOF 33
ENDMDL
MODEL      186
REMARK 921   NORMALIZED FREE ENERGY PREDICTED BY IDOCK:   -2.48 KCAL/MOL
REMARK 922        TOTAL FREE ENERGY PREDICTED BY IDOCK:  -10.07 KCAL/MOL
REMARK 923 INTER-LIGAND FREE ENERGY PREDICTED BY IDOCK:   -8.50 KCAL/MOL
REMARK 924 INTRA-LIGAND FREE ENERGY PREDICTED BY IDOCK:   -1.57 KCAL/MOL
REMARK 927      BINDING AFFINITY PREDICTED BY RF-SCORE:    0.00 PKD
ROOT
HETATM    1  C   UNL     1      -9.572   6.782  65.932  1.00  0.00     0.198 C  
HETATM    2  C   UNL     1     -10.315   5.667  66.643  1.00  0.00    -0.311 C  
ENDROOT
BRANCH   2   3
HETATM    3  C   UNL     1     -10.175   4.326  65.918  1.00  0.00    -0.197 C  
BRANCH   3   4
HETATM    4  C   UNL     1      -8.955   3.583  66.451  1.00  0.00    -0.145 C  
BRANCH   4   5
HETATM    5  N   UNL     1      -9.335   2.420  67.244  1.00  0.00    -0.359 NA 
HETATM    6  H   UNL     1      -9.526   1.520  66.802  1.00  0.00     0.000 HD 
BRANCH   5   7
HETATM    7  C   UNL     1      -9.430   2.579  68.636  1.00  0.00    -0.129 A  
HETATM    8  C   UNL     1      -9.581   1.502  69.521  1.00  0.00    -0.077 A  
HETATM    9  C   UNL     1      -9.749   1.701  70.891  1.00  0.00    -0.146 A  
HETATM   10  C   UNL     1      -9.805   2.993  71.417  1.00  0.00    -0.173 A  
HETATM   11  C   UNL     1      -9.506   3.873  69.172  1.00  0.00    -0.246 A  
HETATM   12  C   UNL     1      -9.686   4.085  70.549  1.00  0.00    -0.258 A  
BRANCH  10  13
HETATM   13  C   UNL     1     -10.020   3.123  72.881  1.00  0.00    -0.138 C  
HETATM   14  O   UNL     1      -9.703   2.257  73.683  1.00  0.00    -0.088 OA 
BRANCH  13  15
HETATM   15  O   UNL     1     -10.629   4.291  73.186  1.00  0.00    -0.171 OA 
BRANCH  15  16
HETATM   16  C   UNL     1     -10.231   4.865  74.445  1.00  0.00    -0.265 C  
BRANCH  16  17
HETATM   17  C   UNL     1      -8.989   5.742  74.287  1.00  0.00    -0.123 C  
BRANCH  17  18
HETATM   18  O   UNL     1      -8.889   6.178  72.928  1.00  0.00    -0.127 OA 
BRANCH  18  19
HETATM   19  C   UNL     1     -10.044   6.915  72.533  1.00  0.00    -0.172 C  
BRANCH  19  20
HETATM   20  C   UNL     1      -9.780   8.404  72.705  1.00  0.00    -0.228 C  
BRANCH  20  21
HETATM   21  O   UNL     1     -10.918   9.134  72.249  1.00  0.00    -0.205 OA 
BRANCH  21  22
HETATM   22  C   UNL     1     -11.127   8.951  70.851  1.00  0.00    -0.271 C  
BRANCH  22  23
HETATM   23  C   UNL     1     -10.042   9.694  70.082  1.00  0.00    -0.262 C  
BRANCH  23  24
HETATM   24  O   UNL     1     -10.645  10.442  69.028  1.00  0.00    -0.194 OA 
BRANCH  24  25
HETATM   25  C   UNL     1     -10.044  10.139  67.771  1.00  0.00    -0.180 C  
BRANCH  25  26
HETATM   26  C   UNL     1      -8.712  10.868  67.668  1.00  0.00    -0.127 C  
BRANCH  26  27
HETATM   27  O   UNL     1      -7.657   9.910  67.674  1.00  0.00    -0.090 OA 
BRANCH  27  28
HETATM   28  C   UNL     1      -6.434  10.487  67.220  1.00  0.00    -0.071 C  
BRANCH  28  29
HETATM   29  C   UNL     1      -5.830   9.590  66.150  1.00  0.00    -0.057 C  
BRANCH  29  30
HETATM   30  O   UNL     1      -6.088  10.162  64.870  1.00  0.00    -0.107 OA 
BRANCH  30  31
HETATM   31  C   UNL     1      -6.902   9.302  64.077  1.00  0.00    -0.092 C  
BRANCH  31  32
HETATM   32  C   UNL     1      -7.441  10.087  62.891  1.00  0.00    -0.136 C  
BRANCH  32  33
HETATM   33  O   UNL     1      -8.792   9.701  62.659  1.00  0.00    -0.214 OA 
BRANCH  33  34
HETATM   34  C   UNL     1      -9.656  10.223  63.665  1.00  0.00    -0.277 C  
BRANCH  34  35
HETATM   35  C   UNL     1     -10.004  11.663  63.319  1.00  0.00    -0.419 C  
BRANCH  35  36
HETATM   36  O   UNL     1     -11.416  11.771  63.155  1.00  0.00    -0.290 OA 
BRANCH  36  37
HETATM   37  C   UNL     1     -11.888  13.047  63.581  1.00  0.00    -0.516 C  
BRANCH  37  38
HETATM   38  C   UNL     1     -13.005  12.848  64.596  1.00  0.00    -0.124 C  
BRANCH  38  39
HETATM   39  O   UNL     1     -12.804  13.737  65.691  1.00  0.00    -0.521 OA 
BRANCH  39  40
HETATM   40  C   UNL     1     -11.699  13.326  66.494  1.00  0.00    -0.377 C  
BRANCH  40  41
HETATM   41  C   UNL     1     -11.935  13.770  67.931  1.00  0.00    -0.356 C  
BRANCH  41  42
HETATM   42  O   UNL     1     -10.680  14.011  68.564  1.00  0.00    -0.242 OA 
HETATM   43  C   UNL     1      -9.737  14.556  67.652  1.00  0.00    -0.215 C  
ENDBRANCH  41  42
ENDBRANCH  40  41
ENDBRANCH  39  40
ENDBRANCH  38  39
ENDBRANCH  37  38
ENDBRANCH  36  37
ENDBRANCH  35  36
ENDBRANCH  34  35
ENDBRANCH  33  34
ENDBRANCH  32  33
ENDBRANCH  31  32
ENDBRANCH  30  31
ENDBRANCH  29  30
ENDBRANCH  28  29
ENDBRANCH  27  28
ENDBRANCH  26  27
ENDBRANCH  25  26
ENDBRANCH  24  25
ENDBRANCH  23  24
ENDBRANCH  22  23
ENDBRANCH  21  22
ENDBRANCH  20  21
ENDBRANCH  19  20
ENDBRANCH  18  19
ENDBRANCH  17  18
ENDBRANCH  16  17
ENDBRANCH  15  16
ENDBRANCH  13  15
ENDBRANCH  10  13
ENDBRANCH   5   7
ENDBRANCH   4   5
ENDBRANCH   3   4
ENDBRANCH   2   3
TORSDOF 33
ENDMDL
MODEL      187
REMARK 921   NORMALIZED FREE ENERGY PREDICTED BY IDOCK:   -2.45 KCAL/MOL
REMARK 922        TOTAL FREE ENERGY PREDICTED BY IDOCK:   -9.97 KCAL/MOL
REMARK 923 INTER-LIGAND FREE ENERGY PREDICTED BY IDOCK:   -8.29 KCAL/MOL
REMARK 924 INTRA-LIGAND FREE ENERGY PREDICTED BY IDOCK:   -1.68 KCAL/MOL
REMARK 927      BINDING AFFINITY PREDICTED BY RF-SCORE:    0.00 PKD
ROOT
HETATM    1  C   UNL     1      -5.995  18.819  66.133  1.00  0.00    -0.198 C  
HETATM    2  C   UNL     1      -7.447  19.150  65.844  1.00  0.00    -0.263 C  
ENDROOT
BRANCH   2   3
HETATM    3  C   UNL     1      -7.995  20.221  66.790  1.00  0.00    -0.330 C  
BRANCH   3   4
HETATM    4  C   UNL     1      -8.898  19.567  67.831  1.00  0.00    -0.323 C  
BRANCH   4   5
HETATM    5  N   UNL     1      -8.318  18.333  68.349  1.00  0.00    -0.302 NA 
HETATM    6  H   UNL     1      -7.312  18.243  68.490  1.00  0.00     0.000 HD 
BRANCH   5   7
HETATM    7  C   UNL     1      -9.191  17.275  68.649  1.00  0.00    -0.266 A  
HETATM    8  C   UNL     1      -8.756  16.048  69.168  1.00  0.00    -0.248 A  
HETATM    9  C   UNL     1      -9.640  14.991  69.382  1.00  0.00    -0.145 A  
HETATM   10  C   UNL     1     -10.990  15.119  69.049  1.00  0.00    -0.245 A  
HETATM   11  C   UNL     1     -10.545  17.387  68.301  1.00  0.00    -0.366 A  
HETATM   12  C   UNL     1     -11.442  16.325  68.502  1.00  0.00    -0.272 A  
BRANCH  10  13
HETATM   13  C   UNL     1     -11.861  13.938  69.275  1.00  0.00    -0.348 C  
HETATM   14  O   UNL     1     -11.949  13.368  70.353  1.00  0.00    -0.331 OA 
BRANCH  13  15
HETATM   15  O   UNL     1     -12.501  13.575  68.141  1.00  0.00    -0.062 OA 
BRANCH  15  16
HETATM   16  C   UNL     1     -11.637  13.125  67.082  1.00  0.00    -0.361 C  
BRANCH  16  17
HETATM   17  C   UNL     1     -12.329  13.217  65.722  1.00  0.00    -0.435 C  
BRANCH  17  18
HETATM   18  O   UNL     1     -12.379  11.915  65.129  1.00  0.00    -0.333 OA 
BRANCH  18  19
HETATM   19  C   UNL     1     -12.083  11.968  63.736  1.00  0.00    -0.499 C  
BRANCH  19  20
HETATM   20  C   UNL     1     -10.632  12.384  63.539  1.00  0.00    -0.413 C  
BRANCH  20  21
HETATM   21  O   UNL     1      -9.793  11.521  64.307  1.00  0.00    -0.240 OA 
BRANCH  21  22
HETATM   22  C   UNL     1      -9.535  10.299  63.619  1.00  0.00    -0.299 C  
BRANCH  22  23
HETATM   23  C   UNL     1      -8.031  10.067  63.561  1.00  0.00    -0.157 C  
BRANCH  23  24
HETATM   24  O   UNL     1      -7.724   9.270  62.419  1.00  0.00    -0.113 OA 
BRANCH  24  25
HETATM   25  C   UNL     1      -6.507   8.550  62.604  1.00  0.00    -0.091 C  
BRANCH  25  26
HETATM   26  C   UNL     1      -6.684   7.557  63.743  1.00  0.00    -0.053 C  
BRANCH  26  27
HETATM   27  O   UNL     1      -5.539   7.613  64.589  1.00  0.00    -0.033 OA 
BRANCH  27  28
HETATM   28  C   UNL     1      -5.739   6.852  65.779  1.00  0.00    -0.031 C  
BRANCH  28  29
HETATM   29  C   UNL     1      -6.091   7.797  66.918  1.00  0.00    -0.052 C  
BRANCH  29  30
HETATM   30  O   UNL     1      -7.316   8.456  66.609  1.00  0.00    -0.080 OA 
BRANCH  30  31
HETATM   31  C   UNL     1      -7.918   8.999  67.781  1.00  0.00    -0.101 C  
BRANCH  31  32
HETATM   32  C   UNL     1      -8.682  10.259  67.406  1.00  0.00    -0.128 C  
BRANCH  32  33
HETATM   33  O   UNL     1     -10.078  10.007  67.530  1.00  0.00    -0.177 OA 
BRANCH  33  34
HETATM   34  C   UNL     1     -10.555  10.378  68.820  1.00  0.00    -0.208 C  
BRANCH  34  35
HETATM   35  C   UNL     1     -11.276   9.191  69.441  1.00  0.00     0.085 C  
BRANCH  35  36
HETATM   36  O   UNL     1     -10.467   8.650  70.482  1.00  0.00    -0.195 OA 
BRANCH  36  37
HETATM   37  C   UNL     1     -10.056   7.319  70.178  1.00  0.00    -0.189 C  
BRANCH  37  38
HETATM   38  C   UNL     1      -8.556   7.200  70.408  1.00  0.00    -0.142 C  
BRANCH  38  39
HETATM   39  O   UNL     1      -8.326   6.515  71.636  1.00  0.00    -0.119 OA 
BRANCH  39  40
HETATM   40  C   UNL     1      -6.936   6.258  71.832  1.00  0.00    -0.077 C  
BRANCH  40  41
HETATM   41  C   UNL     1      -6.170   7.571  71.744  1.00  0.00    -0.039 C  
BRANCH  41  42
HETATM   42  O   UNL     1      -5.172   7.605  72.762  1.00  0.00    -0.037 OA 
HETATM   43  C   UNL     1      -5.160   8.858  73.432  1.00  0.00    -0.073 C  
ENDBRANCH  41  42
ENDBRANCH  40  41
ENDBRANCH  39  40
ENDBRANCH  38  39
ENDBRANCH  37  38
ENDBRANCH  36  37
ENDBRANCH  35  36
ENDBRANCH  34  35
ENDBRANCH  33  34
ENDBRANCH  32  33
ENDBRANCH  31  32
ENDBRANCH  30  31
ENDBRANCH  29  30
ENDBRANCH  28  29
ENDBRANCH  27  28
ENDBRANCH  26  27
ENDBRANCH  25  26
ENDBRANCH  24  25
ENDBRANCH  23  24
ENDBRANCH  22  23
ENDBRANCH  21  22
ENDBRANCH  20  21
ENDBRANCH  19  20
ENDBRANCH  18  19
ENDBRANCH  17  18
ENDBRANCH  16  17
ENDBRANCH  15  16
ENDBRANCH  13  15
ENDBRANCH  10  13
ENDBRANCH   5   7
ENDBRANCH   4   5
ENDBRANCH   3   4
ENDBRANCH   2   3
TORSDOF 33
ENDMDL
MODEL      188
REMARK 921   NORMALIZED FREE ENERGY PREDICTED BY IDOCK:   -2.44 KCAL/MOL
REMARK 922        TOTAL FREE ENERGY PREDICTED BY IDOCK:   -9.95 KCAL/MOL
REMARK 923 INTER-LIGAND FREE ENERGY PREDICTED BY IDOCK:   -8.69 KCAL/MOL
REMARK 924 INTRA-LIGAND FREE ENERGY PREDICTED BY IDOCK:   -1.26 KCAL/MOL
REMARK 927      BINDING AFFINITY PREDICTED BY RF-SCORE:    0.00 PKD
ROOT
HETATM    1  C   UNL     1     -14.410  15.229  72.023  1.00  0.00    -0.689 C  
HETATM    2  C   UNL     1     -13.320  15.018  73.056  1.00  0.00    -0.568 C  
ENDROOT
BRANCH   2   3
HETATM    3  C   UNL     1     -12.128  14.242  72.487  1.00  0.00     0.054 C  
BRANCH   3   4
HETATM    4  C   UNL     1     -12.564  13.481  71.240  1.00  0.00    -0.341 C  
BRANCH   4   5
HETATM    5  N   UNL     1     -13.458  12.376  71.568  1.00  0.00    -0.048 NA 
HETATM    6  H   UNL     1     -14.409  12.547  71.897  1.00  0.00     0.000 HD 
BRANCH   5   7
HETATM    7  C   UNL     1     -12.968  11.069  71.415  1.00  0.00    -0.414 A  
HETATM    8  C   UNL     1     -13.359  10.004  72.236  1.00  0.00    -0.387 A  
HETATM    9  C   UNL     1     -12.795   8.735  72.105  1.00  0.00    -0.456 A  
HETATM   10  C   UNL     1     -11.790   8.501  71.164  1.00  0.00    -0.322 A  
HETATM   11  C   UNL     1     -11.945  10.829  70.485  1.00  0.00    -0.456 A  
HETATM   12  C   UNL     1     -11.362   9.558  70.352  1.00  0.00    -0.318 A  
BRANCH  10  13
HETATM   13  C   UNL     1     -11.215   7.133  71.109  1.00  0.00    -0.262 C  
HETATM   14  O   UNL     1     -11.607   6.214  71.814  1.00  0.00    -0.297 OA 
BRANCH  13  15
HETATM   15  O   UNL     1     -10.204   7.061  70.214  1.00  0.00    -0.190 OA 
BRANCH  15  16
HETATM   16  C   UNL     1      -9.080   6.270  70.641  1.00  0.00    -0.151 C  
BRANCH  16  17
HETATM   17  C   UNL     1      -8.682   6.602  72.079  1.00  0.00    -0.127 C  
BRANCH  17  18
HETATM   18  O   UNL     1      -8.270   5.402  72.743  1.00  0.00    -0.109 OA 
BRANCH  18  19
HETATM   19  C   UNL     1      -8.964   4.265  72.234  1.00  0.00    -0.116 C  
BRANCH  19  20
HETATM   20  C   UNL     1      -7.992   3.101  72.087  1.00  0.00    -0.059 C  
BRANCH  20  21
HETATM   21  O   UNL     1      -7.791   2.838  70.699  1.00  0.00    -0.042 OA 
BRANCH  21  22
HETATM   22  C   UNL     1      -6.525   2.224  70.465  1.00  0.00    -0.024 C  
BRANCH  22  23
HETATM   23  C   UNL     1      -6.217   2.269  68.973  1.00  0.00    -0.025 C  
BRANCH  23  24
HETATM   24  O   UNL     1      -7.090   3.206  68.345  1.00  0.00    -0.049 OA 
BRANCH  24  25
HETATM   25  C   UNL     1      -6.588   4.536  68.459  1.00  0.00    -0.046 C  
BRANCH  25  26
HETATM   26  C   UNL     1      -6.272   5.069  67.068  1.00  0.00    -0.032 C  
BRANCH  26  27
HETATM   27  O   UNL     1      -5.491   6.254  67.192  1.00  0.00    -0.008 OA 
BRANCH  27  28
HETATM   28  C   UNL     1      -5.524   7.022  65.991  1.00  0.00    -0.026 C  
BRANCH  28  29
HETATM   29  C   UNL     1      -6.958   7.447  65.716  1.00  0.00    -0.061 C  
BRANCH  29  30
HETATM   30  O   UNL     1      -7.466   8.126  66.861  1.00  0.00    -0.088 OA 
BRANCH  30  31
HETATM   31  C   UNL     1      -7.324   9.537  66.728  1.00  0.00    -0.090 C  
BRANCH  31  32
HETATM   32  C   UNL     1      -8.072   9.995  65.485  1.00  0.00    -0.137 C  
BRANCH  32  33
HETATM   33  O   UNL     1      -9.324  10.549  65.877  1.00  0.00    -0.168 OA 
BRANCH  33  34
HETATM   34  C   UNL     1      -9.342  10.839  67.272  1.00  0.00    -0.151 C  
BRANCH  34  35
HETATM   35  C   UNL     1     -10.062  12.161  67.492  1.00  0.00    -0.196 C  
BRANCH  35  36
HETATM   36  O   UNL     1      -9.192  13.229  67.124  1.00  0.00    -0.218 OA 
BRANCH  36  37
HETATM   37  C   UNL     1      -9.434  14.388  67.917  1.00  0.00    -0.214 C  
BRANCH  37  38
HETATM   38  C   UNL     1      -8.516  15.508  67.449  1.00  0.00    -0.180 C  
BRANCH  38  39
HETATM   39  O   UNL     1      -8.863  16.711  68.130  1.00  0.00    -0.196 OA 
BRANCH  39  40
HETATM   40  C   UNL     1      -9.111  17.773  67.210  1.00  0.00    -0.246 C  
BRANCH  40  41
HETATM   41  C   UNL     1     -10.417  18.460  67.583  1.00  0.00    -0.419 C  
BRANCH  41  42
HETATM   42  O   UNL     1     -10.471  19.743  66.962  1.00  0.00    -0.433 OA 
HETATM   43  C   UNL     1      -9.307  20.507  67.252  1.00  0.00    -0.389 C  
ENDBRANCH  41  42
ENDBRANCH  40  41
ENDBRANCH  39  40
ENDBRANCH  38  39
ENDBRANCH  37  38
ENDBRANCH  36  37
ENDBRANCH  35  36
ENDBRANCH  34  35
ENDBRANCH  33  34
ENDBRANCH  32  33
ENDBRANCH  31  32
ENDBRANCH  30  31
ENDBRANCH  29  30
ENDBRANCH  28  29
ENDBRANCH  27  28
ENDBRANCH  26  27
ENDBRANCH  25  26
ENDBRANCH  24  25
ENDBRANCH  23  24
ENDBRANCH  22  23
ENDBRANCH  21  22
ENDBRANCH  20  21
ENDBRANCH  19  20
ENDBRANCH  18  19
ENDBRANCH  17  18
ENDBRANCH  16  17
ENDBRANCH  15  16
ENDBRANCH  13  15
ENDBRANCH  10  13
ENDBRANCH   5   7
ENDBRANCH   4   5
ENDBRANCH   3   4
ENDBRANCH   2   3
TORSDOF 33
ENDMDL
MODEL      189
REMARK 921   NORMALIZED FREE ENERGY PREDICTED BY IDOCK:   -2.43 KCAL/MOL
REMARK 922        TOTAL FREE ENERGY PREDICTED BY IDOCK:   -9.93 KCAL/MOL
REMARK 923 INTER-LIGAND FREE ENERGY PREDICTED BY IDOCK:   -7.43 KCAL/MOL
REMARK 924 INTRA-LIGAND FREE ENERGY PREDICTED BY IDOCK:   -2.49 KCAL/MOL
REMARK 927      BINDING AFFINITY PREDICTED BY RF-SCORE:    0.00 PKD
ROOT
HETATM    1  C   UNL     1     -10.184   3.342  63.551  1.00  0.00    -0.208 C  
HETATM    2  C   UNL     1      -9.554   1.994  63.847  1.00  0.00    -0.129 C  
ENDROOT
BRANCH   2   3
HETATM    3  C   UNL     1      -8.039   2.095  64.039  1.00  0.00    -0.080 C  
BRANCH   3   4
HETATM    4  C   UNL     1      -7.673   3.509  64.475  1.00  0.00    -0.077 C  
BRANCH   4   5
HETATM    5  N   UNL     1      -6.769   4.149  63.527  1.00  0.00    -0.041 NA 
HETATM    6  H   UNL     1      -6.293   3.608  62.806  1.00  0.00     0.000 HD 
BRANCH   5   7
HETATM    7  C   UNL     1      -6.577   5.536  63.639  1.00  0.00    -0.033 A  
HETATM    8  C   UNL     1      -6.995   6.279  64.751  1.00  0.00    -0.051 A  
HETATM    9  C   UNL     1      -6.857   7.666  64.797  1.00  0.00    -0.051 A  
HETATM   10  C   UNL     1      -6.325   8.360  63.709  1.00  0.00    -0.072 A  
HETATM   11  C   UNL     1      -6.061   6.245  62.544  1.00  0.00    -0.030 A  
HETATM   12  C   UNL     1      -5.928   7.643  62.574  1.00  0.00    -0.063 A  
BRANCH  10  13
HETATM   13  C   UNL     1      -6.242   9.839  63.820  1.00  0.00    -0.116 C  
HETATM   14  O   UNL     1      -5.275  10.485  63.443  1.00  0.00    -0.133 OA 
BRANCH  13  15
HETATM   15  O   UNL     1      -7.347  10.350  64.409  1.00  0.00    -0.107 OA 
BRANCH  15  16
HETATM   16  C   UNL     1      -8.298  10.932  63.499  1.00  0.00     0.113 C  
BRANCH  16  17
HETATM   17  C   UNL     1      -9.652  10.228  63.584  1.00  0.00    -0.277 C  
BRANCH  17  18
HETATM   18  O   UNL     1     -10.428  10.823  64.630  1.00  0.00    -0.344 OA 
BRANCH  18  19
HETATM   19  C   UNL     1     -10.109  12.204  64.790  1.00  0.00    -0.251 C  
BRANCH  19  20
HETATM   20  C   UNL     1      -9.653  12.458  66.220  1.00  0.00    -0.241 C  
BRANCH  20  21
HETATM   21  O   UNL     1     -10.478  13.469  66.797  1.00  0.00    -0.269 OA 
BRANCH  21  22
HETATM   22  C   UNL     1     -11.788  12.980  67.071  1.00  0.00    -0.377 C  
BRANCH  22  23
HETATM   23  C   UNL     1     -11.927  12.733  68.568  1.00  0.00    -0.225 C  
BRANCH  23  24
HETATM   24  O   UNL     1     -11.567  11.383  68.854  1.00  0.00    -0.264 OA 
BRANCH  24  25
HETATM   25  C   UNL     1     -11.555  11.138  70.258  1.00  0.00    -0.296 C  
BRANCH  25  26
HETATM   26  C   UNL     1     -12.984  10.929  70.738  1.00  0.00    -0.222 C  
BRANCH  26  27
HETATM   27  O   UNL     1     -12.971  10.071  71.875  1.00  0.00    -0.408 OA 
BRANCH  27  28
HETATM   28  C   UNL     1     -13.746   8.897  71.644  1.00  0.00    -0.395 C  
BRANCH  28  29
HETATM   29  C   UNL     1     -12.832   7.682  71.694  1.00  0.00    -0.349 C  
BRANCH  29  30
HETATM   30  O   UNL     1     -11.564   8.080  72.206  1.00  0.00    -0.316 OA 
BRANCH  30  31
HETATM   31  C   UNL     1     -10.766   6.947  72.542  1.00  0.00    -0.232 C  
BRANCH  31  32
HETATM   32  C   UNL     1      -9.877   7.302  73.724  1.00  0.00    -0.311 C  
BRANCH  32  33
HETATM   33  O   UNL     1      -9.061   8.415  73.370  1.00  0.00    -0.216 OA 
BRANCH  33  34
HETATM   34  C   UNL     1      -7.687   8.044  73.306  1.00  0.00    -0.157 C  
BRANCH  34  35
HETATM   35  C   UNL     1      -7.336   7.698  71.867  1.00  0.00    -0.070 C  
BRANCH  35  36
HETATM   36  O   UNL     1      -6.342   8.607  71.401  1.00  0.00    -0.048 OA 
BRANCH  36  37
HETATM   37  C   UNL     1      -6.931   9.702  70.704  1.00  0.00    -0.110 C  
BRANCH  37  38
HETATM   38  C   UNL     1      -8.039   9.176  69.802  1.00  0.00    -0.111 C  
BRANCH  38  39
HETATM   39  O   UNL     1      -7.530   9.019  68.481  1.00  0.00    -0.083 OA 
BRANCH  39  40
HETATM   40  C   UNL     1      -8.555   9.208  67.506  1.00  0.00    -0.116 C  
BRANCH  40  41
HETATM   41  C   UNL     1      -9.738   8.312  67.848  1.00  0.00    -0.161 C  
BRANCH  41  42
HETATM   42  O   UNL     1     -10.233   7.706  66.656  1.00  0.00    -0.258 OA 
HETATM   43  C   UNL     1     -11.152   6.663  66.949  1.00  0.00    -0.249 C  
ENDBRANCH  41  42
ENDBRANCH  40  41
ENDBRANCH  39  40
ENDBRANCH  38  39
ENDBRANCH  37  38
ENDBRANCH  36  37
ENDBRANCH  35  36
ENDBRANCH  34  35
ENDBRANCH  33  34
ENDBRANCH  32  33
ENDBRANCH  31  32
ENDBRANCH  30  31
ENDBRANCH  29  30
ENDBRANCH  28  29
ENDBRANCH  27  28
ENDBRANCH  26  27
ENDBRANCH  25  26
ENDBRANCH  24  25
ENDBRANCH  23  24
ENDBRANCH  22  23
ENDBRANCH  21  22
ENDBRANCH  20  21
ENDBRANCH  19  20
ENDBRANCH  18  19
ENDBRANCH  17  18
ENDBRANCH  16  17
ENDBRANCH  15  16
ENDBRANCH  13  15
ENDBRANCH  10  13
ENDBRANCH   5   7
ENDBRANCH   4   5
ENDBRANCH   3   4
ENDBRANCH   2   3
TORSDOF 33
ENDMDL
MODEL      190
REMARK 921   NORMALIZED FREE ENERGY PREDICTED BY IDOCK:   -2.43 KCAL/MOL
REMARK 922        TOTAL FREE ENERGY PREDICTED BY IDOCK:   -9.90 KCAL/MOL
REMARK 923 INTER-LIGAND FREE ENERGY PREDICTED BY IDOCK:   -7.57 KCAL/MOL
REMARK 924 INTRA-LIGAND FREE ENERGY PREDICTED BY IDOCK:   -2.34 KCAL/MOL
REMARK 927      BINDING AFFINITY PREDICTED BY RF-SCORE:    0.00 PKD
ROOT
HETATM    1  C   UNL     1      -9.412  19.974  67.733  1.00  0.00    -0.486 C  
HETATM    2  C   UNL     1      -9.223  18.482  67.537  1.00  0.00    -0.288 C  
ENDROOT
BRANCH   2   3
HETATM    3  C   UNL     1      -8.390  18.164  66.293  1.00  0.00    -0.228 C  
BRANCH   3   4
HETATM    4  C   UNL     1      -7.151  17.372  66.698  1.00  0.00    -0.240 C  
BRANCH   4   5
HETATM    5  N   UNL     1      -7.356  16.654  67.950  1.00  0.00    -0.147 NA 
HETATM    6  H   UNL     1      -7.521  17.155  68.824  1.00  0.00     0.000 HD 
BRANCH   5   7
HETATM    7  C   UNL     1      -7.318  15.251  67.915  1.00  0.00    -0.141 A  
HETATM    8  C   UNL     1      -8.417  14.447  68.247  1.00  0.00    -0.165 A  
HETATM    9  C   UNL     1      -8.323  13.056  68.274  1.00  0.00    -0.158 A  
HETATM   10  C   UNL     1      -7.109  12.424  68.001  1.00  0.00    -0.099 A  
HETATM   11  C   UNL     1      -6.099  14.607  67.660  1.00  0.00    -0.078 A  
HETATM   12  C   UNL     1      -5.990  13.206  67.695  1.00  0.00    -0.136 A  
BRANCH  10  13
HETATM   13  C   UNL     1      -7.081  10.941  68.084  1.00  0.00    -0.077 C  
HETATM   14  O   UNL     1      -7.427  10.320  69.078  1.00  0.00    -0.081 OA 
BRANCH  13  15
HETATM   15  O   UNL     1      -6.601  10.395  66.943  1.00  0.00    -0.072 OA 
BRANCH  15  16
HETATM   16  C   UNL     1      -7.500  10.463  65.821  1.00  0.00    -0.147 C  
BRANCH  16  17
HETATM   17  C   UNL     1      -8.726   9.576  66.036  1.00  0.00    -0.147 C  
BRANCH  17  18
HETATM   18  O   UNL     1      -8.771   8.577  65.012  1.00  0.00    -0.169 OA 
BRANCH  18  19
HETATM   19  C   UNL     1      -7.735   7.613  65.183  1.00  0.00    -0.110 C  
BRANCH  19  20
HETATM   20  C   UNL     1      -8.268   6.228  64.843  1.00  0.00    -0.119 C  
BRANCH  20  21
HETATM   21  O   UNL     1      -8.894   5.675  66.000  1.00  0.00    -0.138 OA 
BRANCH  21  22
HETATM   22  C   UNL     1      -9.557   4.450  65.697  1.00  0.00    -0.187 C  
BRANCH  22  23
HETATM   23  C   UNL     1      -8.544   3.312  65.729  1.00  0.00    -0.116 C  
BRANCH  23  24
HETATM   24  O   UNL     1      -7.675   3.493  66.844  1.00  0.00    -0.079 OA 
BRANCH  24  25
HETATM   25  C   UNL     1      -7.921   2.517  67.855  1.00  0.00    -0.059 C  
BRANCH  25  26
HETATM   26  C   UNL     1      -8.312   3.225  69.144  1.00  0.00    -0.060 C  
BRANCH  26  27
HETATM   27  O   UNL     1      -9.479   2.605  69.678  1.00  0.00    -0.134 OA 
BRANCH  27  28
HETATM   28  C   UNL     1      -9.223   2.045  70.964  1.00  0.00    -0.111 C  
BRANCH  28  29
HETATM   29  C   UNL     1      -9.764   2.984  72.030  1.00  0.00    -0.160 C  
BRANCH  29  30
HETATM   30  O   UNL     1      -8.797   3.108  73.070  1.00  0.00    -0.083 OA 
BRANCH  30  31
HETATM   31  C   UNL     1      -7.740   3.984  72.688  1.00  0.00    -0.075 C  
BRANCH  31  32
HETATM   32  C   UNL     1      -8.317   5.364  72.412  1.00  0.00    -0.118 C  
BRANCH  32  33
HETATM   33  O   UNL     1      -8.675   5.971  73.650  1.00  0.00    -0.125 OA 
BRANCH  33  34
HETATM   34  C   UNL     1     -10.077   6.212  73.717  1.00  0.00    -0.238 C  
BRANCH  34  35
HETATM   35  C   UNL     1     -10.509   6.963  72.465  1.00  0.00    -0.214 C  
BRANCH  35  36
HETATM   36  O   UNL     1     -11.276   8.101  72.849  1.00  0.00    -0.381 OA 
BRANCH  36  37
HETATM   37  C   UNL     1     -12.448   8.227  72.047  1.00  0.00    -0.351 C  
BRANCH  37  38
HETATM   38  C   UNL     1     -12.672   9.698  71.726  1.00  0.00    -0.420 C  
BRANCH  38  39
HETATM   39  O   UNL     1     -11.414  10.319  71.479  1.00  0.00    -0.215 OA 
BRANCH  39  40
HETATM   40  C   UNL     1     -11.212  10.541  70.084  1.00  0.00    -0.315 C  
BRANCH  40  41
HETATM   41  C   UNL     1     -12.128  11.666  69.622  1.00  0.00    -0.280 C  
BRANCH  41  42
HETATM   42  O   UNL     1     -11.624  12.217  68.407  1.00  0.00    -0.281 OA 
HETATM   43  C   UNL     1     -11.980  13.586  68.273  1.00  0.00    -0.342 C  
ENDBRANCH  41  42
ENDBRANCH  40  41
ENDBRANCH  39  40
ENDBRANCH  38  39
ENDBRANCH  37  38
ENDBRANCH  36  37
ENDBRANCH  35  36
ENDBRANCH  34  35
ENDBRANCH  33  34
ENDBRANCH  32  33
ENDBRANCH  31  32
ENDBRANCH  30  31
ENDBRANCH  29  30
ENDBRANCH  28  29
ENDBRANCH  27  28
ENDBRANCH  26  27
ENDBRANCH  25  26
ENDBRANCH  24  25
ENDBRANCH  23  24
ENDBRANCH  22  23
ENDBRANCH  21  22
ENDBRANCH  20  21
ENDBRANCH  19  20
ENDBRANCH  18  19
ENDBRANCH  17  18
ENDBRANCH  16  17
ENDBRANCH  15  16
ENDBRANCH  13  15
ENDBRANCH  10  13
ENDBRANCH   5   7
ENDBRANCH   4   5
ENDBRANCH   3   4
ENDBRANCH   2   3
TORSDOF 33
ENDMDL
MODEL      191
REMARK 921   NORMALIZED FREE ENERGY PREDICTED BY IDOCK:   -2.42 KCAL/MOL
REMARK 922        TOTAL FREE ENERGY PREDICTED BY IDOCK:   -9.88 KCAL/MOL
REMARK 923 INTER-LIGAND FREE ENERGY PREDICTED BY IDOCK:   -7.45 KCAL/MOL
REMARK 924 INTRA-LIGAND FREE ENERGY PREDICTED BY IDOCK:   -2.43 KCAL/MOL
REMARK 927      BINDING AFFINITY PREDICTED BY RF-SCORE:    0.00 PKD
ROOT
HETATM    1  C   UNL     1      -8.860  19.717  68.271  1.00  0.00    -0.361 C  
HETATM    2  C   UNL     1      -8.745  18.235  67.968  1.00  0.00    -0.287 C  
ENDROOT
BRANCH   2   3
HETATM    3  C   UNL     1      -7.871  17.962  66.741  1.00  0.00    -0.259 C  
BRANCH   3   4
HETATM    4  C   UNL     1      -6.792  16.946  67.101  1.00  0.00    -0.186 C  
BRANCH   4   5
HETATM    5  N   UNL     1      -7.272  15.969  68.072  1.00  0.00    -0.125 NA 
HETATM    6  H   UNL     1      -7.775  16.262  68.909  1.00  0.00     0.000 HD 
BRANCH   5   7
HETATM    7  C   UNL     1      -7.020  14.612  67.814  1.00  0.00    -0.177 A  
HETATM    8  C   UNL     1      -8.022  13.632  67.825  1.00  0.00    -0.172 A  
HETATM    9  C   UNL     1      -7.724  12.282  67.641  1.00  0.00    -0.144 A  
HETATM   10  C   UNL     1      -6.403  11.865  67.472  1.00  0.00    -0.105 A  
HETATM   11  C   UNL     1      -5.694  14.181  67.662  1.00  0.00     0.012 A  
HETATM   12  C   UNL     1      -5.382  12.823  67.486  1.00  0.00    -0.083 A  
BRANCH  10  13
HETATM   13  C   UNL     1      -6.164  10.408  67.315  1.00  0.00    -0.058 C  
HETATM   14  O   UNL     1      -6.293   9.607  68.229  1.00  0.00    -0.055 OA 
BRANCH  13  15
HETATM   15  O   UNL     1      -5.765  10.108  66.058  1.00  0.00    -0.057 OA 
BRANCH  15  16
HETATM   16  C   UNL     1      -6.810  10.157  65.069  1.00  0.00    -0.132 C  
BRANCH  16  17
HETATM   17  C   UNL     1      -7.982   9.255  65.454  1.00  0.00    -0.108 C  
BRANCH  17  18
HETATM   18  O   UNL     1      -8.266   8.363  64.371  1.00  0.00    -0.160 OA 
BRANCH  18  19
HETATM   19  C   UNL     1      -7.357   7.265  64.353  1.00  0.00    -0.085 C  
BRANCH  19  20
HETATM   20  C   UNL     1      -8.075   6.020  63.848  1.00  0.00    -0.084 C  
BRANCH  20  21
HETATM   21  O   UNL     1      -8.916   5.517  64.885  1.00  0.00    -0.083 OA 
BRANCH  21  22
HETATM   22  C   UNL     1      -9.432   4.229  64.557  1.00  0.00    -0.156 C  
BRANCH  22  23
HETATM   23  C   UNL     1      -8.360   3.179  64.820  1.00  0.00    -0.090 C  
BRANCH  23  24
HETATM   24  O   UNL     1      -7.511   3.633  65.873  1.00  0.00    -0.075 OA 
BRANCH  24  25
HETATM   25  C   UNL     1      -7.885   3.056  67.122  1.00  0.00    -0.075 C  
BRANCH  25  26
HETATM   26  C   UNL     1      -8.347   4.162  68.061  1.00  0.00    -0.093 C  
BRANCH  26  27
HETATM   27  O   UNL     1      -9.551   3.752  68.703  1.00  0.00    -0.161 OA 
BRANCH  27  28
HETATM   28  C   UNL     1      -9.376   3.655  70.115  1.00  0.00    -0.173 C  
BRANCH  28  29
HETATM   29  C   UNL     1     -10.090   4.819  70.784  1.00  0.00    -0.216 C  
BRANCH  29  30
HETATM   30  O   UNL     1      -9.250   5.352  71.804  1.00  0.00    -0.141 OA 
BRANCH  30  31
HETATM   31  C   UNL     1      -7.992   5.760  71.274  1.00  0.00    -0.113 C  
BRANCH  31  32
HETATM   32  C   UNL     1      -8.194   7.009  70.429  1.00  0.00    -0.124 C  
BRANCH  32  33
HETATM   33  O   UNL     1      -8.088   8.155  71.268  1.00  0.00    -0.093 OA 
BRANCH  33  34
HETATM   34  C   UNL     1      -9.299   8.905  71.269  1.00  0.00    -0.266 C  
BRANCH  34  35
HETATM   35  C   UNL     1      -9.312   9.823  70.056  1.00  0.00    -0.235 C  
BRANCH  35  36
HETATM   36  O   UNL     1     -10.647  10.268  69.826  1.00  0.00    -0.242 OA 
BRANCH  36  37
HETATM   37  C   UNL     1     -11.136   9.802  68.571  1.00  0.00    -0.087 C  
BRANCH  37  38
HETATM   38  C   UNL     1     -10.888  10.869  67.515  1.00  0.00    -0.272 C  
BRANCH  38  39
HETATM   39  O   UNL     1     -12.021  11.730  67.446  1.00  0.00    -0.617 OA 
BRANCH  39  40
HETATM   40  C   UNL     1     -11.679  12.989  66.868  1.00  0.00    -0.383 C  
BRANCH  40  41
HETATM   41  C   UNL     1     -11.925  12.931  65.367  1.00  0.00    -0.426 C  
BRANCH  41  42
HETATM   42  O   UNL     1     -10.780  13.434  64.681  1.00  0.00    -0.365 OA 
HETATM   43  C   UNL     1     -10.723  14.853  64.742  1.00  0.00    -0.341 C  
ENDBRANCH  41  42
ENDBRANCH  40  41
ENDBRANCH  39  40
ENDBRANCH  38  39
ENDBRANCH  37  38
ENDBRANCH  36  37
ENDBRANCH  35  36
ENDBRANCH  34  35
ENDBRANCH  33  34
ENDBRANCH  32  33
ENDBRANCH  31  32
ENDBRANCH  30  31
ENDBRANCH  29  30
ENDBRANCH  28  29
ENDBRANCH  27  28
ENDBRANCH  26  27
ENDBRANCH  25  26
ENDBRANCH  24  25
ENDBRANCH  23  24
ENDBRANCH  22  23
ENDBRANCH  21  22
ENDBRANCH  20  21
ENDBRANCH  19  20
ENDBRANCH  18  19
ENDBRANCH  17  18
ENDBRANCH  16  17
ENDBRANCH  15  16
ENDBRANCH  13  15
ENDBRANCH  10  13
ENDBRANCH   5   7
ENDBRANCH   4   5
ENDBRANCH   3   4
ENDBRANCH   2   3
TORSDOF 33
ENDMDL
MODEL      192
REMARK 921   NORMALIZED FREE ENERGY PREDICTED BY IDOCK:   -2.28 KCAL/MOL
REMARK 922        TOTAL FREE ENERGY PREDICTED BY IDOCK:   -9.47 KCAL/MOL
REMARK 923 INTER-LIGAND FREE ENERGY PREDICTED BY IDOCK:   -7.02 KCAL/MOL
REMARK 924 INTRA-LIGAND FREE ENERGY PREDICTED BY IDOCK:   -2.44 KCAL/MOL
REMARK 927      BINDING AFFINITY PREDICTED BY RF-SCORE:    0.00 PKD
ROOT
HETATM    1  C   UNL     1      -8.685   5.574  62.336  1.00  0.00    -0.027 C  
HETATM    2  C   UNL     1      -7.786   6.345  63.283  1.00  0.00    -0.098 C  
ENDROOT
BRANCH   2   3
HETATM    3  C   UNL     1      -7.229   5.458  64.400  1.00  0.00    -0.055 C  
BRANCH   3   4
HETATM    4  C   UNL     1      -7.860   5.858  65.729  1.00  0.00    -0.103 C  
BRANCH   4   5
HETATM    5  N   UNL     1      -6.865   6.365  66.668  1.00  0.00    -0.064 NA 
HETATM    6  H   UNL     1      -6.229   7.118  66.406  1.00  0.00     0.000 HD 
BRANCH   5   7
HETATM    7  C   UNL     1      -6.813   5.782  67.945  1.00  0.00    -0.060 A  
HETATM    8  C   UNL     1      -7.734   4.823  68.386  1.00  0.00    -0.081 A  
HETATM    9  C   UNL     1      -7.699   4.321  69.687  1.00  0.00    -0.053 A  
HETATM   10  C   UNL     1      -6.755   4.792  70.602  1.00  0.00    -0.036 A  
HETATM   11  C   UNL     1      -5.880   6.262  68.876  1.00  0.00    -0.020 A  
HETATM   12  C   UNL     1      -5.842   5.771  70.192  1.00  0.00    -0.024 A  
BRANCH  10  13
HETATM   13  C   UNL     1      -6.803   4.233  71.977  1.00  0.00    -0.041 C  
HETATM   14  O   UNL     1      -6.762   3.034  72.214  1.00  0.00    -0.015 OA 
BRANCH  13  15
HETATM   15  O   UNL     1      -6.926   5.213  72.901  1.00  0.00    -0.074 OA 
BRANCH  15  16
HETATM   16  C   UNL     1      -8.188   5.904  72.878  1.00  0.00    -0.118 C  
BRANCH  16  17
HETATM   17  C   UNL     1      -9.286   5.079  73.550  1.00  0.00    -0.126 C  
BRANCH  17  18
HETATM   18  O   UNL     1     -10.519   5.277  72.852  1.00  0.00    -0.188 OA 
BRANCH  18  19
HETATM   19  C   UNL     1     -10.347   6.141  71.731  1.00  0.00    -0.210 C  
BRANCH  19  20
HETATM   20  C   UNL     1     -11.327   7.303  71.830  1.00  0.00    -0.253 C  
BRANCH  20  21
HETATM   21  O   UNL     1     -12.627   6.847  71.457  1.00  0.00    -0.365 OA 
BRANCH  21  22
HETATM   22  C   UNL     1     -13.598   7.883  71.582  1.00  0.00    -0.345 C  
BRANCH  22  23
HETATM   23  C   UNL     1     -13.053   8.969  72.501  1.00  0.00    -0.385 C  
BRANCH  23  24
HETATM   24  O   UNL     1     -13.369  10.247  71.953  1.00  0.00    -0.415 OA 
BRANCH  24  25
HETATM   25  C   UNL     1     -13.241  10.245  70.532  1.00  0.00    -0.047 C  
BRANCH  25  26
HETATM   26  C   UNL     1     -12.107  11.178  70.134  1.00  0.00    -0.362 C  
BRANCH  26  27
HETATM   27  O   UNL     1     -12.194  11.444  68.737  1.00  0.00    -0.502 OA 
BRANCH  27  28
HETATM   28  C   UNL     1     -11.332  10.586  67.993  1.00  0.00    -0.246 C  
BRANCH  28  29
HETATM   29  C   UNL     1     -10.765  11.357  66.811  1.00  0.00    -0.271 C  
BRANCH  29  30
HETATM   30  O   UNL     1      -9.932  10.487  66.050  1.00  0.00    -0.216 OA 
BRANCH  30  31
HETATM   31  C   UNL     1      -9.485   9.385  66.835  1.00  0.00    -0.156 C  
BRANCH  31  32
HETATM   32  C   UNL     1      -8.128   9.722  67.432  1.00  0.00    -0.114 C  
BRANCH  32  33
HETATM   33  O   UNL     1      -7.124   9.513  66.444  1.00  0.00    -0.086 OA 
BRANCH  33  34
HETATM   34  C   UNL     1      -6.324  10.679  66.270  1.00  0.00    -0.119 C  
BRANCH  34  35
HETATM   35  C   UNL     1      -6.365  11.500  67.551  1.00  0.00    -0.076 C  
BRANCH  35  36
HETATM   36  O   UNL     1      -5.754  12.765  67.310  1.00  0.00    -0.291 OA 
BRANCH  36  37
HETATM   37  C   UNL     1      -6.654  13.835  67.588  1.00  0.00    -0.168 C  
BRANCH  37  38
HETATM   38  C   UNL     1      -6.505  14.239  69.048  1.00  0.00    -0.100 C  
BRANCH  38  39
HETATM   39  O   UNL     1      -7.491  15.217  69.364  1.00  0.00    -0.182 OA 
BRANCH  39  40
HETATM   40  C   UNL     1      -8.447  15.346  68.313  1.00  0.00    -0.159 C  
BRANCH  40  41
HETATM   41  C   UNL     1      -8.799  16.817  68.137  1.00  0.00    -0.223 C  
BRANCH  41  42
HETATM   42  O   UNL     1      -9.865  17.157  69.023  1.00  0.00    -0.275 OA 
HETATM   43  C   UNL     1     -10.665  16.023  69.328  1.00  0.00    -0.275 C  
ENDBRANCH  41  42
ENDBRANCH  40  41
ENDBRANCH  39  40
ENDBRANCH  38  39
ENDBRANCH  37  38
ENDBRANCH  36  37
ENDBRANCH  35  36
ENDBRANCH  34  35
ENDBRANCH  33  34
ENDBRANCH  32  33
ENDBRANCH  31  32
ENDBRANCH  30  31
ENDBRANCH  29  30
ENDBRANCH  28  29
ENDBRANCH  27  28
ENDBRANCH  26  27
ENDBRANCH  25  26
ENDBRANCH  24  25
ENDBRANCH  23  24
ENDBRANCH  22  23
ENDBRANCH  21  22
ENDBRANCH  20  21
ENDBRANCH  19  20
ENDBRANCH  18  19
ENDBRANCH  17  18
ENDBRANCH  16  17
ENDBRANCH  15  16
ENDBRANCH  13  15
ENDBRANCH  10  13
ENDBRANCH   5   7
ENDBRANCH   4   5
ENDBRANCH   3   4
ENDBRANCH   2   3
TORSDOF 33
ENDMDL
MODEL      193
REMARK 921   NORMALIZED FREE ENERGY PREDICTED BY IDOCK:   -2.22 KCAL/MOL
REMARK 922        TOTAL FREE ENERGY PREDICTED BY IDOCK:   -9.30 KCAL/MOL
REMARK 923 INTER-LIGAND FREE ENERGY PREDICTED BY IDOCK:   -7.06 KCAL/MOL
REMARK 924 INTRA-LIGAND FREE ENERGY PREDICTED BY IDOCK:   -2.24 KCAL/MOL
REMARK 927      BINDING AFFINITY PREDICTED BY RF-SCORE:    0.00 PKD
ROOT
HETATM    1  C   UNL     1     -11.232  15.385  72.594  1.00  0.00    -0.047 C  
HETATM    2  C   UNL     1     -12.081  14.180  72.953  1.00  0.00     0.284 C  
ENDROOT
BRANCH   2   3
HETATM    3  C   UNL     1     -13.546  14.365  72.550  1.00  0.00    -0.598 C  
BRANCH   3   4
HETATM    4  C   UNL     1     -13.674  15.581  71.640  1.00  0.00    -0.466 C  
BRANCH   4   5
HETATM    5  N   UNL     1     -13.758  15.198  70.236  1.00  0.00    -0.293 NA 
HETATM    6  H   UNL     1     -14.659  15.016  69.792  1.00  0.00     0.000 HD 
BRANCH   5   7
HETATM    7  C   UNL     1     -12.559  15.088  69.514  1.00  0.00     0.008 A  
HETATM    8  C   UNL     1     -11.827  16.199  69.073  1.00  0.00    -0.181 A  
HETATM    9  C   UNL     1     -10.680  16.055  68.292  1.00  0.00    -0.298 A  
HETATM   10  C   UNL     1     -10.247  14.787  67.899  1.00  0.00    -0.229 A  
HETATM   11  C   UNL     1     -12.126  13.821  69.097  1.00  0.00    -0.374 A  
HETATM   12  C   UNL     1     -10.978  13.664  68.302  1.00  0.00    -0.275 A  
BRANCH  10  13
HETATM   13  C   UNL     1      -9.037  14.718  67.040  1.00  0.00    -0.239 C  
HETATM   14  O   UNL     1      -8.812  15.509  66.135  1.00  0.00    -0.320 OA 
BRANCH  13  15
HETATM   15  O   UNL     1      -8.257  13.665  67.374  1.00  0.00    -0.167 OA 
BRANCH  15  16
HETATM   16  C   UNL     1      -7.806  13.663  68.742  1.00  0.00    -0.043 C  
BRANCH  16  17
HETATM   17  C   UNL     1      -6.443  12.985  68.876  1.00  0.00    -0.094 C  
BRANCH  17  18
HETATM   18  O   UNL     1      -6.505  11.680  68.291  1.00  0.00    -0.049 OA 
BRANCH  18  19
HETATM   19  C   UNL     1      -5.715  10.746  69.023  1.00  0.00    -0.040 C  
BRANCH  19  20
HETATM   20  C   UNL     1      -5.772  11.084  70.507  1.00  0.00    -0.133 C  
BRANCH  20  21
HETATM   21  O   UNL     1      -6.612  10.138  71.167  1.00  0.00    -0.333 OA 
BRANCH  21  22
HETATM   22  C   UNL     1      -5.874   9.341  72.090  1.00  0.00    -0.014 C  
BRANCH  22  23
HETATM   23  C   UNL     1      -6.769   8.225  72.613  1.00  0.00    -0.092 C  
BRANCH  23  24
HETATM   24  O   UNL     1      -7.962   8.178  71.832  1.00  0.00    -0.101 OA 
BRANCH  24  25
HETATM   25  C   UNL     1      -9.122   8.292  72.654  1.00  0.00    -0.257 C  
BRANCH  25  26
HETATM   26  C   UNL     1      -9.944   7.017  72.534  1.00  0.00    -0.170 C  
BRANCH  26  27
HETATM   27  O   UNL     1      -9.969   6.609  71.169  1.00  0.00    -0.182 OA 
BRANCH  27  28
HETATM   28  C   UNL     1     -11.026   7.249  70.459  1.00  0.00    -0.260 C  
BRANCH  28  29
HETATM   29  C   UNL     1     -10.440   8.017  69.284  1.00  0.00    -0.215 C  
BRANCH  29  30
HETATM   30  O   UNL     1     -10.321   7.136  68.170  1.00  0.00    -0.180 OA 
BRANCH  30  31
HETATM   31  C   UNL     1     -10.675   7.792  66.956  1.00  0.00    -0.246 C  
BRANCH  31  32
HETATM   32  C   UNL     1      -9.646   8.872  66.658  1.00  0.00    -0.219 C  
BRANCH  32  33
HETATM   33  O   UNL     1      -8.559   8.289  65.946  1.00  0.00    -0.133 OA 
BRANCH  33  34
HETATM   34  C   UNL     1      -7.344   8.988  66.202  1.00  0.00    -0.091 C  
BRANCH  34  35
HETATM   35  C   UNL     1      -6.171   8.077  65.872  1.00  0.00    -0.042 C  
BRANCH  35  36
HETATM   36  O   UNL     1      -6.295   6.872  66.622  1.00  0.00    -0.042 OA 
BRANCH  36  37
HETATM   37  C   UNL     1      -6.306   5.731  65.768  1.00  0.00    -0.042 C  
BRANCH  37  38
HETATM   38  C   UNL     1      -7.331   4.733  66.289  1.00  0.00    -0.078 C  
BRANCH  38  39
HETATM   39  O   UNL     1      -8.365   4.577  65.320  1.00  0.00    -0.115 OA 
BRANCH  39  40
HETATM   40  C   UNL     1      -9.582   4.147  65.928  1.00  0.00    -0.191 C  
BRANCH  40  41
HETATM   41  C   UNL     1      -9.255   3.311  67.158  1.00  0.00    -0.187 C  
BRANCH  41  42
HETATM   42  O   UNL     1      -9.615   4.037  68.332  1.00  0.00    -0.161 OA 
HETATM   43  C   UNL     1      -9.190   3.362  69.508  1.00  0.00    -0.155 C  
ENDBRANCH  41  42
ENDBRANCH  40  41
ENDBRANCH  39  40
ENDBRANCH  38  39
ENDBRANCH  37  38
ENDBRANCH  36  37
ENDBRANCH  35  36
ENDBRANCH  34  35
ENDBRANCH  33  34
ENDBRANCH  32  33
ENDBRANCH  31  32
ENDBRANCH  30  31
ENDBRANCH  29  30
ENDBRANCH  28  29
ENDBRANCH  27  28
ENDBRANCH  26  27
ENDBRANCH  25  26
ENDBRANCH  24  25
ENDBRANCH  23  24
ENDBRANCH  22  23
ENDBRANCH  21  22
ENDBRANCH  20  21
ENDBRANCH  19  20
ENDBRANCH  18  19
ENDBRANCH  17  18
ENDBRANCH  16  17
ENDBRANCH  15  16
ENDBRANCH  13  15
ENDBRANCH  10  13
ENDBRANCH   5   7
ENDBRANCH   4   5
ENDBRANCH   3   4
ENDBRANCH   2   3
TORSDOF 33
ENDMDL
MODEL      194
REMARK 921   NORMALIZED FREE ENERGY PREDICTED BY IDOCK:   -2.19 KCAL/MOL
REMARK 922        TOTAL FREE ENERGY PREDICTED BY IDOCK:   -9.20 KCAL/MOL
REMARK 923 INTER-LIGAND FREE ENERGY PREDICTED BY IDOCK:   -6.36 KCAL/MOL
REMARK 924 INTRA-LIGAND FREE ENERGY PREDICTED BY IDOCK:   -2.84 KCAL/MOL
REMARK 927      BINDING AFFINITY PREDICTED BY RF-SCORE:    0.00 PKD
ROOT
HETATM    1  C   UNL     1     -10.254   7.128  73.798  1.00  0.00    -0.395 C  
HETATM    2  C   UNL     1      -9.870   7.438  72.363  1.00  0.00    -0.207 C  
ENDROOT
BRANCH   2   3
HETATM    3  C   UNL     1     -10.862   8.393  71.694  1.00  0.00    -0.335 C  
BRANCH   3   4
HETATM    4  C   UNL     1     -11.880   7.590  70.892  1.00  0.00    -0.267 C  
BRANCH   4   5
HETATM    5  N   UNL     1     -11.660   7.721  69.456  1.00  0.00    -0.210 NA 
HETATM    6  H   UNL     1     -12.103   8.469  68.922  1.00  0.00     0.000 HD 
BRANCH   5   7
HETATM    7  C   UNL     1     -10.818   6.786  68.834  1.00  0.00    -0.243 A  
HETATM    8  C   UNL     1     -10.597   5.499  69.343  1.00  0.00    -0.349 A  
HETATM    9  C   UNL     1      -9.695   4.621  68.741  1.00  0.00    -0.230 A  
HETATM   10  C   UNL     1      -8.957   5.020  67.625  1.00  0.00    -0.115 A  
HETATM   11  C   UNL     1     -10.059   7.183  67.724  1.00  0.00    -0.215 A  
HETATM   12  C   UNL     1      -9.139   6.311  67.117  1.00  0.00    -0.119 A  
BRANCH  10  13
HETATM   13  C   UNL     1      -7.992   4.041  67.063  1.00  0.00    -0.096 C  
HETATM   14  O   UNL     1      -7.043   4.363  66.362  1.00  0.00    -0.067 OA 
BRANCH  13  15
HETATM   15  O   UNL     1      -8.323   2.774  67.402  1.00  0.00    -0.080 OA 
BRANCH  15  16
HETATM   16  C   UNL     1      -7.268   2.028  68.036  1.00  0.00    -0.047 C  
BRANCH  16  17
HETATM   17  C   UNL     1      -7.702   1.506  69.406  1.00  0.00    -0.042 C  
BRANCH  17  18
HETATM   18  O   UNL     1      -6.730   1.887  70.385  1.00  0.00    -0.031 OA 
BRANCH  18  19
HETATM   19  C   UNL     1      -7.252   2.869  71.277  1.00  0.00    -0.033 C  
BRANCH  19  20
HETATM   20  C   UNL     1      -6.169   3.891  71.597  1.00  0.00    -0.014 C  
BRANCH  20  21
HETATM   21  O   UNL     1      -5.218   3.909  70.533  1.00  0.00    -0.003 OA 
BRANCH  21  22
HETATM   22  C   UNL     1      -5.298   5.119  69.784  1.00  0.00    -0.004 C  
BRANCH  22  23
HETATM   23  C   UNL     1      -6.003   6.179  70.621  1.00  0.00    -0.026 C  
BRANCH  23  24
HETATM   24  O   UNL     1      -7.069   6.743  69.859  1.00  0.00    -0.067 OA 
BRANCH  24  25
HETATM   25  C   UNL     1      -7.070   8.166  69.948  1.00  0.00    -0.059 C  
BRANCH  25  26
HETATM   26  C   UNL     1      -6.680   8.748  68.597  1.00  0.00    -0.059 C  
BRANCH  26  27
HETATM   27  O   UNL     1      -7.318  10.012  68.435  1.00  0.00    -0.076 OA 
BRANCH  27  28
HETATM   28  C   UNL     1      -7.210  10.800  69.618  1.00  0.00    -0.125 C  
BRANCH  28  29
HETATM   29  C   UNL     1      -5.899  11.570  69.583  1.00  0.00    -0.087 C  
BRANCH  29  30
HETATM   30  O   UNL     1      -5.877  12.492  70.670  1.00  0.00    -0.188 OA 
BRANCH  30  31
HETATM   31  C   UNL     1      -6.512  13.718  70.318  1.00  0.00     0.045 C  
BRANCH  31  32
HETATM   32  C   UNL     1      -6.371  13.935  68.819  1.00  0.00    -0.091 C  
BRANCH  32  33
HETATM   33  O   UNL     1      -7.499  14.668  68.351  1.00  0.00    -0.104 OA 
BRANCH  33  34
HETATM   34  C   UNL     1      -7.349  16.061  68.609  1.00  0.00    -0.159 C  
BRANCH  34  35
HETATM   35  C   UNL     1      -7.201  16.796  67.285  1.00  0.00    -0.172 C  
BRANCH  35  36
HETATM   36  O   UNL     1      -8.334  16.512  66.468  1.00  0.00    -0.231 OA 
BRANCH  36  37
HETATM   37  C   UNL     1      -9.545  16.900  67.113  1.00  0.00    -0.244 C  
BRANCH  37  38
HETATM   38  C   UNL     1     -10.586  15.809  66.909  1.00  0.00    -0.317 C  
BRANCH  38  39
HETATM   39  O   UNL     1     -11.596  15.936  67.905  1.00  0.00    -0.256 OA 
BRANCH  39  40
HETATM   40  C   UNL     1     -11.040  15.862  69.217  1.00  0.00    -0.312 C  
BRANCH  40  41
HETATM   41  C   UNL     1     -10.879  14.400  69.609  1.00  0.00    -0.111 C  
BRANCH  41  42
HETATM   42  O   UNL     1     -12.167  13.806  69.760  1.00  0.00    -0.324 OA 
HETATM   43  C   UNL     1     -12.075  12.512  70.340  1.00  0.00    -0.297 C  
ENDBRANCH  41  42
ENDBRANCH  40  41
ENDBRANCH  39  40
ENDBRANCH  38  39
ENDBRANCH  37  38
ENDBRANCH  36  37
ENDBRANCH  35  36
ENDBRANCH  34  35
ENDBRANCH  33  34
ENDBRANCH  32  33
ENDBRANCH  31  32
ENDBRANCH  30  31
ENDBRANCH  29  30
ENDBRANCH  28  29
ENDBRANCH  27  28
ENDBRANCH  26  27
ENDBRANCH  25  26
ENDBRANCH  24  25
ENDBRANCH  23  24
ENDBRANCH  22  23
ENDBRANCH  21  22
ENDBRANCH  20  21
ENDBRANCH  19  20
ENDBRANCH  18  19
ENDBRANCH  17  18
ENDBRANCH  16  17
ENDBRANCH  15  16
ENDBRANCH  13  15
ENDBRANCH  10  13
ENDBRANCH   5   7
ENDBRANCH   4   5
ENDBRANCH   3   4
ENDBRANCH   2   3
TORSDOF 33
ENDMDL
MODEL      195
REMARK 921   NORMALIZED FREE ENERGY PREDICTED BY IDOCK:   -2.14 KCAL/MOL
REMARK 922        TOTAL FREE ENERGY PREDICTED BY IDOCK:   -9.06 KCAL/MOL
REMARK 923 INTER-LIGAND FREE ENERGY PREDICTED BY IDOCK:   -7.24 KCAL/MOL
REMARK 924 INTRA-LIGAND FREE ENERGY PREDICTED BY IDOCK:   -1.82 KCAL/MOL
REMARK 927      BINDING AFFINITY PREDICTED BY RF-SCORE:    0.00 PKD
ROOT
HETATM    1  C   UNL     1     -11.699  14.050  64.324  1.00  0.00    -0.388 C  
HETATM    2  C   UNL     1     -12.076  12.864  63.456  1.00  0.00    -0.633 C  
ENDROOT
BRANCH   2   3
HETATM    3  C   UNL     1     -11.668  11.532  64.090  1.00  0.00    -0.197 C  
BRANCH   3   4
HETATM    4  C   UNL     1     -11.651  11.675  65.608  1.00  0.00    -0.016 C  
BRANCH   4   5
HETATM    5  N   UNL     1     -10.574  10.897  66.211  1.00  0.00    -0.241 NA 
HETATM    6  H   UNL     1     -10.612   9.878  66.238  1.00  0.00     0.000 HD 
BRANCH   5   7
HETATM    7  C   UNL     1      -9.484  11.597  66.752  1.00  0.00    -0.186 A  
HETATM    8  C   UNL     1      -8.754  11.141  67.858  1.00  0.00    -0.136 A  
HETATM    9  C   UNL     1      -7.726  11.899  68.417  1.00  0.00    -0.131 A  
HETATM   10  C   UNL     1      -7.415  13.159  67.903  1.00  0.00    -0.136 A  
HETATM   11  C   UNL     1      -9.176  12.872  66.254  1.00  0.00    -0.087 A  
HETATM   12  C   UNL     1      -8.149  13.648  66.816  1.00  0.00     0.271 A  
BRANCH  10  13
HETATM   13  C   UNL     1      -6.330  13.919  68.573  1.00  0.00    -0.093 C  
HETATM   14  O   UNL     1      -5.266  14.185  68.032  1.00  0.00    -0.110 OA 
BRANCH  13  15
HETATM   15  O   UNL     1      -6.666  14.238  69.844  1.00  0.00    -0.132 OA 
BRANCH  15  16
HETATM   16  C   UNL     1      -7.082  15.603  70.030  1.00  0.00     0.103 C  
BRANCH  16  17
HETATM   17  C   UNL     1      -8.003  16.062  68.900  1.00  0.00    -0.212 C  
BRANCH  17  18
HETATM   18  O   UNL     1      -9.314  16.294  69.426  1.00  0.00    -0.232 OA 
BRANCH  18  19
HETATM   19  C   UNL     1     -10.044  15.076  69.554  1.00  0.00    -0.166 C  
BRANCH  19  20
HETATM   20  C   UNL     1     -11.065  14.974  68.429  1.00  0.00    -0.278 C  
BRANCH  20  21
HETATM   21  O   UNL     1     -12.201  14.248  68.897  1.00  0.00    -0.306 OA 
BRANCH  21  22
HETATM   22  C   UNL     1     -11.935  13.614  70.146  1.00  0.00    -0.337 C  
BRANCH  22  23
HETATM   23  C   UNL     1     -11.916  12.104  69.944  1.00  0.00    -0.309 C  
BRANCH  23  24
HETATM   24  O   UNL     1     -13.123  11.548  70.461  1.00  0.00     0.025 OA 
BRANCH  24  25
HETATM   25  C   UNL     1     -12.856  10.629  71.518  1.00  0.00    -0.462 C  
BRANCH  25  26
HETATM   26  C   UNL     1     -11.473  10.028  71.317  1.00  0.00    -0.314 C  
BRANCH  26  27
HETATM   27  O   UNL     1     -11.459   8.706  71.850  1.00  0.00    -0.302 OA 
BRANCH  27  28
HETATM   28  C   UNL     1     -10.230   8.045  71.558  1.00  0.00    -0.194 C  
BRANCH  28  29
HETATM   29  C   UNL     1      -9.146   8.588  72.477  1.00  0.00    -0.214 C  
BRANCH  29  30
HETATM   30  O   UNL     1      -9.263   7.958  73.750  1.00  0.00    -0.281 OA 
BRANCH  30  31
HETATM   31  C   UNL     1      -8.851   6.596  73.691  1.00  0.00    -0.127 C  
BRANCH  31  32
HETATM   32  C   UNL     1      -9.778   5.760  74.559  1.00  0.00    -0.221 C  
BRANCH  32  33
HETATM   33  O   UNL     1      -9.678   4.396  74.162  1.00  0.00    -0.116 OA 
BRANCH  33  34
HETATM   34  C   UNL     1     -10.132   4.217  72.823  1.00  0.00    -0.161 C  
BRANCH  34  35
HETATM   35  C   UNL     1     -10.288   2.728  72.550  1.00  0.00    -0.121 C  
BRANCH  35  36
HETATM   36  O   UNL     1      -9.495   2.379  71.418  1.00  0.00    -0.119 OA 
BRANCH  36  37
HETATM   37  C   UNL     1      -8.847   3.523  70.870  1.00  0.00    -0.083 C  
BRANCH  37  38
HETATM   38  C   UNL     1      -9.183   3.621  69.389  1.00  0.00    -0.155 C  
BRANCH  38  39
HETATM   39  O   UNL     1      -8.186   4.401  68.734  1.00  0.00    -0.079 OA 
BRANCH  39  40
HETATM   40  C   UNL     1      -8.274   4.267  67.316  1.00  0.00    -0.100 C  
BRANCH  40  41
HETATM   41  C   UNL     1      -7.960   5.610  66.670  1.00  0.00    -0.101 C  
BRANCH  41  42
HETATM   42  O   UNL     1      -7.834   6.605  67.684  1.00  0.00    -0.108 OA 
HETATM   43  C   UNL     1      -6.631   7.346  67.534  1.00  0.00    -0.061 C  
ENDBRANCH  41  42
ENDBRANCH  40  41
ENDBRANCH  39  40
ENDBRANCH  38  39
ENDBRANCH  37  38
ENDBRANCH  36  37
ENDBRANCH  35  36
ENDBRANCH  34  35
ENDBRANCH  33  34
ENDBRANCH  32  33
ENDBRANCH  31  32
ENDBRANCH  30  31
ENDBRANCH  29  30
ENDBRANCH  28  29
ENDBRANCH  27  28
ENDBRANCH  26  27
ENDBRANCH  25  26
ENDBRANCH  24  25
ENDBRANCH  23  24
ENDBRANCH  22  23
ENDBRANCH  21  22
ENDBRANCH  20  21
ENDBRANCH  19  20
ENDBRANCH  18  19
ENDBRANCH  17  18
ENDBRANCH  16  17
ENDBRANCH  15  16
ENDBRANCH  13  15
ENDBRANCH  10  13
ENDBRANCH   5   7
ENDBRANCH   4   5
ENDBRANCH   3   4
ENDBRANCH   2   3
TORSDOF 33
ENDMDL
MODEL      196
REMARK 921   NORMALIZED FREE ENERGY PREDICTED BY IDOCK:   -2.11 KCAL/MOL
REMARK 922        TOTAL FREE ENERGY PREDICTED BY IDOCK:   -8.98 KCAL/MOL
REMARK 923 INTER-LIGAND FREE ENERGY PREDICTED BY IDOCK:   -7.43 KCAL/MOL
REMARK 924 INTRA-LIGAND FREE ENERGY PREDICTED BY IDOCK:   -1.55 KCAL/MOL
REMARK 927      BINDING AFFINITY PREDICTED BY RF-SCORE:    0.00 PKD
ROOT
HETATM    1  C   UNL     1      -7.501   5.784  69.783  1.00  0.00    -0.075 C  
HETATM    2  C   UNL     1      -7.872   6.449  71.095  1.00  0.00    -0.114 C  
ENDROOT
BRANCH   2   3
HETATM    3  C   UNL     1      -6.646   6.730  71.967  1.00  0.00    -0.054 C  
BRANCH   3   4
HETATM    4  C   UNL     1      -6.184   8.167  71.748  1.00  0.00    -0.045 C  
BRANCH   4   5
HETATM    5  N   UNL     1      -6.153   8.514  70.332  1.00  0.00    -0.031 NA 
HETATM    6  H   UNL     1      -5.914   7.819  69.624  1.00  0.00     0.000 HD 
BRANCH   5   7
HETATM    7  C   UNL     1      -6.463   9.836  69.974  1.00  0.00    -0.074 A  
HETATM    8  C   UNL     1      -7.353  10.161  68.943  1.00  0.00    -0.083 A  
HETATM    9  C   UNL     1      -7.580  11.484  68.563  1.00  0.00    -0.130 A  
HETATM   10  C   UNL     1      -6.892  12.526  69.187  1.00  0.00    -0.062 A  
HETATM   11  C   UNL     1      -5.763  10.889  70.582  1.00  0.00    -0.123 A  
HETATM   12  C   UNL     1      -5.975  12.224  70.200  1.00  0.00    -0.148 A  
BRANCH  10  13
HETATM   13  C   UNL     1      -7.163  13.905  68.704  1.00  0.00    -0.108 C  
HETATM   14  O   UNL     1      -8.154  14.203  68.053  1.00  0.00    -0.127 OA 
BRANCH  13  15
HETATM   15  O   UNL     1      -6.167  14.751  69.051  1.00  0.00    -0.090 OA 
BRANCH  15  16
HETATM   16  C   UNL     1      -6.611  16.038  69.521  1.00  0.00    -0.201 C  
BRANCH  16  17
HETATM   17  C   UNL     1      -6.046  17.168  68.661  1.00  0.00    -0.153 C  
BRANCH  17  18
HETATM   18  O   UNL     1      -6.937  18.287  68.707  1.00  0.00    -0.254 OA 
BRANCH  18  19
HETATM   19  C   UNL     1      -8.255  17.917  68.310  1.00  0.00    -0.290 C  
BRANCH  19  20
HETATM   20  C   UNL     1      -8.274  17.632  66.815  1.00  0.00    -0.243 C  
BRANCH  20  21
HETATM   21  O   UNL     1      -9.366  16.762  66.521  1.00  0.00    -0.238 OA 
BRANCH  21  22
HETATM   22  C   UNL     1     -10.451  16.965  67.424  1.00  0.00    -0.310 C  
BRANCH  22  23
HETATM   23  C   UNL     1     -11.216  15.658  67.588  1.00  0.00    -0.274 C  
BRANCH  23  24
HETATM   24  O   UNL     1     -10.894  14.789  66.503  1.00  0.00    -0.307 OA 
BRANCH  24  25
HETATM   25  C   UNL     1     -11.636  15.128  65.333  1.00  0.00    -0.171 C  
BRANCH  25  26
HETATM   26  C   UNL     1     -11.329  14.115  64.240  1.00  0.00    -0.226 C  
BRANCH  26  27
HETATM   27  O   UNL     1     -12.549  13.523  63.801  1.00  0.00    -0.701 OA 
BRANCH  27  28
HETATM   28  C   UNL     1     -12.506  12.103  63.925  1.00  0.00    -0.478 C  
BRANCH  28  29
HETATM   29  C   UNL     1     -11.327  11.718  64.804  1.00  0.00    -0.249 C  
BRANCH  29  30
HETATM   30  O   UNL     1     -10.554  10.727  64.132  1.00  0.00    -0.347 OA 
BRANCH  30  31
HETATM   31  C   UNL     1      -9.186  10.787  64.526  1.00  0.00    -0.220 C  
BRANCH  31  32
HETATM   32  C   UNL     1      -8.634   9.372  64.613  1.00  0.00    -0.187 C  
BRANCH  32  33
HETATM   33  O   UNL     1      -7.650   9.197  63.599  1.00  0.00    -0.107 OA 
BRANCH  33  34
HETATM   34  C   UNL     1      -8.136   8.366  62.549  1.00  0.00    -0.169 C  
BRANCH  34  35
HETATM   35  C   UNL     1      -7.608   6.954  62.752  1.00  0.00    -0.097 C  
BRANCH  35  36
HETATM   36  O   UNL     1      -8.004   6.492  64.042  1.00  0.00    -0.114 OA 
BRANCH  36  37
HETATM   37  C   UNL     1      -7.069   5.550  64.562  1.00  0.00    -0.050 C  
BRANCH  37  38
HETATM   38  C   UNL     1      -7.600   5.002  65.879  1.00  0.00    -0.090 C  
BRANCH  38  39
HETATM   39  O   UNL     1      -8.842   5.632  66.180  1.00  0.00    -0.133 OA 
BRANCH  39  40
HETATM   40  C   UNL     1      -9.717   4.743  66.874  1.00  0.00    -0.188 C  
BRANCH  40  41
HETATM   41  C   UNL     1      -9.334   3.307  66.542  1.00  0.00    -0.126 C  
BRANCH  41  42
HETATM   42  O   UNL     1      -9.649   2.466  67.650  1.00  0.00    -0.136 OA 
HETATM   43  C   UNL     1      -8.839   2.772  68.777  1.00  0.00    -0.105 C  
ENDBRANCH  41  42
ENDBRANCH  40  41
ENDBRANCH  39  40
ENDBRANCH  38  39
ENDBRANCH  37  38
ENDBRANCH  36  37
ENDBRANCH  35  36
ENDBRANCH  34  35
ENDBRANCH  33  34
ENDBRANCH  32  33
ENDBRANCH  31  32
ENDBRANCH  30  31
ENDBRANCH  29  30
ENDBRANCH  28  29
ENDBRANCH  27  28
ENDBRANCH  26  27
ENDBRANCH  25  26
ENDBRANCH  24  25
ENDBRANCH  23  24
ENDBRANCH  22  23
ENDBRANCH  21  22
ENDBRANCH  20  21
ENDBRANCH  19  20
ENDBRANCH  18  19
ENDBRANCH  17  18
ENDBRANCH  16  17
ENDBRANCH  15  16
ENDBRANCH  13  15
ENDBRANCH  10  13
ENDBRANCH   5   7
ENDBRANCH   4   5
ENDBRANCH   3   4
ENDBRANCH   2   3
TORSDOF 33
ENDMDL
MODEL      197
REMARK 921   NORMALIZED FREE ENERGY PREDICTED BY IDOCK:   -2.10 KCAL/MOL
REMARK 922        TOTAL FREE ENERGY PREDICTED BY IDOCK:   -8.94 KCAL/MOL
REMARK 923 INTER-LIGAND FREE ENERGY PREDICTED BY IDOCK:   -6.41 KCAL/MOL
REMARK 924 INTRA-LIGAND FREE ENERGY PREDICTED BY IDOCK:   -2.52 KCAL/MOL
REMARK 927      BINDING AFFINITY PREDICTED BY RF-SCORE:    0.00 PKD
ROOT
HETATM    1  C   UNL     1     -10.275   7.141  73.780  1.00  0.00    -0.395 C  
HETATM    2  C   UNL     1      -9.895   7.461  72.347  1.00  0.00    -0.207 C  
ENDROOT
BRANCH   2   3
HETATM    3  C   UNL     1     -10.899   8.405  71.680  1.00  0.00    -0.335 C  
BRANCH   3   4
HETATM    4  C   UNL     1     -11.890   7.593  70.854  1.00  0.00    -0.250 C  
BRANCH   4   5
HETATM    5  N   UNL     1     -11.633   7.721  69.424  1.00  0.00    -0.123 NA 
HETATM    6  H   UNL     1     -12.088   8.447  68.869  1.00  0.00     0.000 HD 
BRANCH   5   7
HETATM    7  C   UNL     1     -10.737   6.813  68.836  1.00  0.00    -0.240 A  
HETATM    8  C   UNL     1     -10.496   5.533  69.353  1.00  0.00    -0.360 A  
HETATM    9  C   UNL     1      -9.544   4.685  68.788  1.00  0.00    -0.229 A  
HETATM   10  C   UNL     1      -8.775   5.108  67.702  1.00  0.00    -0.103 A  
HETATM   11  C   UNL     1      -9.947   7.235  67.757  1.00  0.00    -0.205 A  
HETATM   12  C   UNL     1      -8.978   6.393  67.187  1.00  0.00    -0.109 A  
BRANCH  10  13
HETATM   13  C   UNL     1      -7.758   4.160  67.178  1.00  0.00    -0.088 C  
HETATM   14  O   UNL     1      -6.800   4.512  66.505  1.00  0.00    -0.053 OA 
BRANCH  13  15
HETATM   15  O   UNL     1      -8.054   2.885  67.518  1.00  0.00    -0.075 OA 
BRANCH  15  16
HETATM   16  C   UNL     1      -6.997   2.186  68.201  1.00  0.00    -0.040 C  
BRANCH  16  17
HETATM   17  C   UNL     1      -7.462   1.669  69.562  1.00  0.00    -0.042 C  
BRANCH  17  18
HETATM   18  O   UNL     1      -6.539   2.099  70.569  1.00  0.00    -0.027 OA 
BRANCH  18  19
HETATM   19  C   UNL     1      -7.129   3.068  71.432  1.00  0.00    -0.032 C  
BRANCH  19  20
HETATM   20  C   UNL     1      -6.109   4.153  71.751  1.00  0.00    -0.017 C  
BRANCH  20  21
HETATM   21  O   UNL     1      -5.145   4.207  70.701  1.00  0.00     0.000 OA 
BRANCH  21  22
HETATM   22  C   UNL     1      -5.294   5.389  69.917  1.00  0.00    -0.004 C  
BRANCH  22  23
HETATM   23  C   UNL     1      -6.045   6.436  70.731  1.00  0.00    -0.031 C  
BRANCH  23  24
HETATM   24  O   UNL     1      -7.171   6.889  69.983  1.00  0.00    -0.075 OA 
BRANCH  24  25
HETATM   25  C   UNL     1      -7.227   8.314  69.947  1.00  0.00    -0.059 C  
BRANCH  25  26
HETATM   26  C   UNL     1      -6.969   8.785  68.523  1.00  0.00    -0.065 C  
BRANCH  26  27
HETATM   27  O   UNL     1      -7.619  10.038  68.325  1.00  0.00    -0.082 OA 
BRANCH  27  28
HETATM   28  C   UNL     1      -7.351  10.934  69.400  1.00  0.00    -0.116 C  
BRANCH  28  29
HETATM   29  C   UNL     1      -6.020  11.625  69.150  1.00  0.00    -0.064 C  
BRANCH  29  30
HETATM   30  O   UNL     1      -5.868  12.688  70.087  1.00  0.00    -0.137 OA 
BRANCH  30  31
HETATM   31  C   UNL     1      -6.473  13.886  69.608  1.00  0.00    -0.108 C  
BRANCH  31  32
HETATM   32  C   UNL     1      -6.483  13.861  68.087  1.00  0.00    -0.125 C  
BRANCH  32  33
HETATM   33  O   UNL     1      -7.594  14.621  67.620  1.00  0.00    -0.147 OA 
BRANCH  33  34
HETATM   34  C   UNL     1      -8.436  13.836  66.782  1.00  0.00     0.032 C  
BRANCH  34  35
HETATM   35  C   UNL     1      -9.380  13.022  67.654  1.00  0.00    -0.202 C  
BRANCH  35  36
HETATM   36  O   UNL     1     -10.125  13.909  68.484  1.00  0.00    -0.232 OA 
BRANCH  36  37
HETATM   37  C   UNL     1     -10.869  14.842  67.706  1.00  0.00    -0.286 C  
BRANCH  37  38
HETATM   38  C   UNL     1     -10.683  16.235  68.292  1.00  0.00    -0.322 C  
BRANCH  38  39
HETATM   39  O   UNL     1     -11.017  17.205  67.303  1.00  0.00    -0.177 OA 
BRANCH  39  40
HETATM   40  C   UNL     1     -10.249  17.018  66.115  1.00  0.00    -0.337 C  
BRANCH  40  41
HETATM   41  C   UNL     1      -8.897  17.698  66.284  1.00  0.00    -0.179 C  
BRANCH  41  42
HETATM   42  O   UNL     1      -9.033  19.093  66.021  1.00  0.00    -0.447 OA 
HETATM   43  C   UNL     1      -7.766  19.731  65.943  1.00  0.00    -0.320 C  
ENDBRANCH  41  42
ENDBRANCH  40  41
ENDBRANCH  39  40
ENDBRANCH  38  39
ENDBRANCH  37  38
ENDBRANCH  36  37
ENDBRANCH  35  36
ENDBRANCH  34  35
ENDBRANCH  33  34
ENDBRANCH  32  33
ENDBRANCH  31  32
ENDBRANCH  30  31
ENDBRANCH  29  30
ENDBRANCH  28  29
ENDBRANCH  27  28
ENDBRANCH  26  27
ENDBRANCH  25  26
ENDBRANCH  24  25
ENDBRANCH  23  24
ENDBRANCH  22  23
ENDBRANCH  21  22
ENDBRANCH  20  21
ENDBRANCH  19  20
ENDBRANCH  18  19
ENDBRANCH  17  18
ENDBRANCH  16  17
ENDBRANCH  15  16
ENDBRANCH  13  15
ENDBRANCH  10  13
ENDBRANCH   5   7
ENDBRANCH   4   5
ENDBRANCH   3   4
ENDBRANCH   2   3
TORSDOF 33
ENDMDL
MODEL      198
REMARK 921   NORMALIZED FREE ENERGY PREDICTED BY IDOCK:   -2.07 KCAL/MOL
REMARK 922        TOTAL FREE ENERGY PREDICTED BY IDOCK:   -8.85 KCAL/MOL
REMARK 923 INTER-LIGAND FREE ENERGY PREDICTED BY IDOCK:   -8.31 KCAL/MOL
REMARK 924 INTRA-LIGAND FREE ENERGY PREDICTED BY IDOCK:   -0.54 KCAL/MOL
REMARK 927      BINDING AFFINITY PREDICTED BY RF-SCORE:    0.00 PKD
ROOT
HETATM    1  C   UNL     1      -8.947   7.407  65.688  1.00  0.00     0.002 C  
HETATM    2  C   UNL     1      -9.511   6.447  66.718  1.00  0.00    -0.176 C  
ENDROOT
BRANCH   2   3
HETATM    3  C   UNL     1     -10.036   5.158  66.080  1.00  0.00    -0.216 C  
BRANCH   3   4
HETATM    4  C   UNL     1      -8.939   4.098  66.098  1.00  0.00    -0.126 C  
BRANCH   4   5
HETATM    5  N   UNL     1      -9.395   2.860  66.719  1.00  0.00    -0.350 NA 
HETATM    6  H   UNL     1      -9.706   2.070  66.153  1.00  0.00     0.000 HD 
BRANCH   5   7
HETATM    7  C   UNL     1      -9.393   2.791  68.122  1.00  0.00    -0.203 A  
HETATM    8  C   UNL     1      -9.403   1.582  68.829  1.00  0.00    -0.217 A  
HETATM    9  C   UNL     1      -9.477   1.550  70.221  1.00  0.00    -0.152 A  
HETATM   10  C   UNL     1      -9.579   2.736  70.951  1.00  0.00    -0.202 A  
HETATM   11  C   UNL     1      -9.514   3.976  68.863  1.00  0.00    -0.237 A  
HETATM   12  C   UNL     1      -9.600   3.955  70.265  1.00  0.00    -0.271 A  
BRANCH  10  13
HETATM   13  C   UNL     1      -9.688   2.618  72.428  1.00  0.00    -0.136 C  
HETATM   14  O   UNL     1      -9.648   1.548  73.018  1.00  0.00    -0.071 OA 
BRANCH  13  15
HETATM   15  O   UNL     1      -9.865   3.828  73.005  1.00  0.00    -0.123 OA 
BRANCH  15  16
HETATM   16  C   UNL     1      -9.201   3.991  74.271  1.00  0.00    -0.102 C  
BRANCH  16  17
HETATM   17  C   UNL     1      -7.694   4.174  74.089  1.00  0.00    -0.084 C  
BRANCH  17  18
HETATM   18  O   UNL     1      -7.452   4.939  72.903  1.00  0.00    -0.087 OA 
BRANCH  18  19
HETATM   19  C   UNL     1      -8.334   6.056  72.820  1.00  0.00    -0.118 C  
BRANCH  19  20
HETATM   20  C   UNL     1      -7.836   7.167  73.735  1.00  0.00    -0.106 C  
BRANCH  20  21
HETATM   21  O   UNL     1      -8.947   7.960  74.149  1.00  0.00    -0.245 OA 
BRANCH  21  22
HETATM   22  C   UNL     1     -10.019   7.884  73.214  1.00  0.00    -0.263 C  
BRANCH  22  23
HETATM   23  C   UNL     1      -9.785   8.899  72.102  1.00  0.00    -0.162 C  
BRANCH  23  24
HETATM   24  O   UNL     1     -11.024   9.170  71.449  1.00  0.00    -0.288 OA 
BRANCH  24  25
HETATM   25  C   UNL     1     -10.895   9.063  70.033  1.00  0.00    -0.231 C  
BRANCH  25  26
HETATM   26  C   UNL     1      -9.702   9.891  69.578  1.00  0.00    -0.220 C  
BRANCH  26  27
HETATM   27  O   UNL     1      -8.686   9.016  69.095  1.00  0.00    -0.131 OA 
BRANCH  27  28
HETATM   28  C   UNL     1      -7.405   9.639  69.141  1.00  0.00    -0.077 C  
BRANCH  28  29
HETATM   29  C   UNL     1      -6.973   9.989  67.725  1.00  0.00    -0.085 C  
BRANCH  29  30
HETATM   30  O   UNL     1      -7.041  11.403  67.559  1.00  0.00    -0.093 OA 
BRANCH  30  31
HETATM   31  C   UNL     1      -8.194  11.778  66.810  1.00  0.00    -0.147 C  
BRANCH  31  32
HETATM   32  C   UNL     1      -8.762  13.065  67.389  1.00  0.00    -0.205 C  
BRANCH  32  33
HETATM   33  O   UNL     1      -9.961  13.394  66.694  1.00  0.00    -0.262 OA 
BRANCH  33  34
HETATM   34  C   UNL     1     -11.012  13.704  67.604  1.00  0.00    -0.267 C  
BRANCH  34  35
HETATM   35  C   UNL     1     -10.773  15.091  68.181  1.00  0.00    -0.256 C  
BRANCH  35  36
HETATM   36  O   UNL     1     -11.032  16.064  67.172  1.00  0.00    -0.289 OA 
BRANCH  36  37
HETATM   37  C   UNL     1     -10.176  17.194  67.313  1.00  0.00    -0.316 C  
BRANCH  37  38
HETATM   38  C   UNL     1     -10.338  18.093  66.095  1.00  0.00    -0.385 C  
BRANCH  38  39
HETATM   39  O   UNL     1      -9.346  19.116  66.135  1.00  0.00    -0.388 OA 
BRANCH  39  40
HETATM   40  C   UNL     1      -9.749  20.193  66.979  1.00  0.00    -0.437 C  
BRANCH  40  41
HETATM   41  C   UNL     1      -8.699  20.394  68.064  1.00  0.00     0.014 C  
BRANCH  41  42
HETATM   42  O   UNL     1      -7.423  20.587  67.458  1.00  0.00    -0.306 OA 
HETATM   43  C   UNL     1      -6.370  20.279  68.360  1.00  0.00    -0.302 C  
ENDBRANCH  41  42
ENDBRANCH  40  41
ENDBRANCH  39  40
ENDBRANCH  38  39
ENDBRANCH  37  38
ENDBRANCH  36  37
ENDBRANCH  35  36
ENDBRANCH  34  35
ENDBRANCH  33  34
ENDBRANCH  32  33
ENDBRANCH  31  32
ENDBRANCH  30  31
ENDBRANCH  29  30
ENDBRANCH  28  29
ENDBRANCH  27  28
ENDBRANCH  26  27
ENDBRANCH  25  26
ENDBRANCH  24  25
ENDBRANCH  23  24
ENDBRANCH  22  23
ENDBRANCH  21  22
ENDBRANCH  20  21
ENDBRANCH  19  20
ENDBRANCH  18  19
ENDBRANCH  17  18
ENDBRANCH  16  17
ENDBRANCH  15  16
ENDBRANCH  13  15
ENDBRANCH  10  13
ENDBRANCH   5   7
ENDBRANCH   4   5
ENDBRANCH   3   4
ENDBRANCH   2   3
TORSDOF 33
ENDMDL
MODEL      199
REMARK 921   NORMALIZED FREE ENERGY PREDICTED BY IDOCK:   -1.92 KCAL/MOL
REMARK 922        TOTAL FREE ENERGY PREDICTED BY IDOCK:   -8.42 KCAL/MOL
REMARK 923 INTER-LIGAND FREE ENERGY PREDICTED BY IDOCK:   -6.17 KCAL/MOL
REMARK 924 INTRA-LIGAND FREE ENERGY PREDICTED BY IDOCK:   -2.25 KCAL/MOL
REMARK 927      BINDING AFFINITY PREDICTED BY RF-SCORE:    0.00 PKD
ROOT
HETATM    1  C   UNL     1      -8.594   5.765  62.353  1.00  0.00    -0.015 C  
HETATM    2  C   UNL     1      -7.634   6.388  63.348  1.00  0.00    -0.087 C  
ENDROOT
BRANCH   2   3
HETATM    3  C   UNL     1      -7.032   5.349  64.298  1.00  0.00    -0.048 C  
BRANCH   3   4
HETATM    4  C   UNL     1      -7.720   5.442  65.656  1.00  0.00    -0.091 C  
BRANCH   4   5
HETATM    5  N   UNL     1      -6.842   6.020  66.667  1.00  0.00    -0.060 NA 
HETATM    6  H   UNL     1      -6.310   6.870  66.479  1.00  0.00     0.000 HD 
BRANCH   5   7
HETATM    7  C   UNL     1      -6.753   5.367  67.907  1.00  0.00    -0.055 A  
HETATM    8  C   UNL     1      -7.510   4.233  68.231  1.00  0.00    -0.064 A  
HETATM    9  C   UNL     1      -7.454   3.656  69.499  1.00  0.00    -0.052 A  
HETATM   10  C   UNL     1      -6.658   4.219  70.499  1.00  0.00    -0.032 A  
HETATM   11  C   UNL     1      -5.972   5.936  68.923  1.00  0.00    -0.020 A  
HETATM   12  C   UNL     1      -5.916   5.369  70.208  1.00  0.00    -0.021 A  
BRANCH  10  13
HETATM   13  C   UNL     1      -6.678   3.566  71.833  1.00  0.00    -0.019 C  
HETATM   14  O   UNL     1      -6.327   2.409  72.016  1.00  0.00    -0.014 OA 
BRANCH  13  15
HETATM   15  O   UNL     1      -7.155   4.403  72.782  1.00  0.00    -0.063 OA 
BRANCH  15  16
HETATM   16  C   UNL     1      -8.342   5.124  72.404  1.00  0.00    -0.121 C  
BRANCH  16  17
HETATM   17  C   UNL     1      -9.591   4.256  72.555  1.00  0.00    -0.138 C  
BRANCH  17  18
HETATM   18  O   UNL     1     -10.649   4.812  71.766  1.00  0.00    -0.157 OA 
BRANCH  18  19
HETATM   19  C   UNL     1     -10.343   6.141  71.353  1.00  0.00    -0.214 C  
BRANCH  19  20
HETATM   20  C   UNL     1     -11.423   7.091  71.854  1.00  0.00    -0.268 C  
BRANCH  20  21
HETATM   21  O   UNL     1     -12.670   6.730  71.263  1.00  0.00    -0.345 OA 
BRANCH  21  22
HETATM   22  C   UNL     1     -13.689   7.677  71.576  1.00  0.00    -0.361 C  
BRANCH  22  23
HETATM   23  C   UNL     1     -13.255   8.495  72.786  1.00  0.00    -0.037 C  
BRANCH  23  24
HETATM   24  O   UNL     1     -13.484   9.878  72.522  1.00  0.00    -0.316 OA 
BRANCH  24  25
HETATM   25  C   UNL     1     -13.374  10.162  71.129  1.00  0.00    -0.295 C  
BRANCH  25  26
HETATM   26  C   UNL     1     -12.166  11.059  70.898  1.00  0.00    -0.367 C  
BRANCH  26  27
HETATM   27  O   UNL     1     -11.457  10.597  69.752  1.00  0.00    -0.254 OA 
BRANCH  27  28
HETATM   28  C   UNL     1     -10.296   9.859  70.126  1.00  0.00    -0.282 C  
BRANCH  28  29
HETATM   29  C   UNL     1      -9.443   9.618  68.890  1.00  0.00    -0.157 C  
BRANCH  29  30
HETATM   30  O   UNL     1      -8.440   8.655  69.202  1.00  0.00    -0.121 OA 
BRANCH  30  31
HETATM   31  C   UNL     1      -7.950   8.834  70.528  1.00  0.00    -0.113 C  
BRANCH  31  32
HETATM   32  C   UNL     1      -6.822   9.855  70.505  1.00  0.00    -0.118 C  
BRANCH  32  33
HETATM   33  O   UNL     1      -5.731   9.320  69.761  1.00  0.00    -0.032 OA 
BRANCH  33  34
HETATM   34  C   UNL     1      -5.309  10.227  68.747  1.00  0.00    -0.038 C  
BRANCH  34  35
HETATM   35  C   UNL     1      -5.398  11.647  69.287  1.00  0.00    -0.048 C  
BRANCH  35  36
HETATM   36  O   UNL     1      -5.847  12.511  68.245  1.00  0.00    -0.055 OA 
BRANCH  36  37
HETATM   37  C   UNL     1      -7.196  12.919  68.459  1.00  0.00    -0.107 C  
BRANCH  37  38
HETATM   38  C   UNL     1      -7.876  13.107  67.110  1.00  0.00    -0.049 C  
BRANCH  38  39
HETATM   39  O   UNL     1      -9.036  13.917  67.282  1.00  0.00    -0.200 OA 
BRANCH  39  40
HETATM   40  C   UNL     1      -9.632  14.238  66.026  1.00  0.00    -0.243 C  
BRANCH  40  41
HETATM   41  C   UNL     1     -10.916  15.019  66.269  1.00  0.00    -0.338 C  
BRANCH  41  42
HETATM   42  O   UNL     1     -11.701  15.021  65.079  1.00  0.00    -0.353 OA 
HETATM   43  C   UNL     1     -11.894  13.703  64.584  1.00  0.00    -0.397 C  
ENDBRANCH  41  42
ENDBRANCH  40  41
ENDBRANCH  39  40
ENDBRANCH  38  39
ENDBRANCH  37  38
ENDBRANCH  36  37
ENDBRANCH  35  36
ENDBRANCH  34  35
ENDBRANCH  33  34
ENDBRANCH  32  33
ENDBRANCH  31  32
ENDBRANCH  30  31
ENDBRANCH  29  30
ENDBRANCH  28  29
ENDBRANCH  27  28
ENDBRANCH  26  27
ENDBRANCH  25  26
ENDBRANCH  24  25
ENDBRANCH  23  24
ENDBRANCH  22  23
ENDBRANCH  21  22
ENDBRANCH  20  21
ENDBRANCH  19  20
ENDBRANCH  18  19
ENDBRANCH  17  18
ENDBRANCH  16  17
ENDBRANCH  15  16
ENDBRANCH  13  15
ENDBRANCH  10  13
ENDBRANCH   5   7
ENDBRANCH   4   5
ENDBRANCH   3   4
ENDBRANCH   2   3
TORSDOF 33
ENDMDL
MODEL      200
REMARK 921   NORMALIZED FREE ENERGY PREDICTED BY IDOCK:   -1.91 KCAL/MOL
REMARK 922        TOTAL FREE ENERGY PREDICTED BY IDOCK:   -8.40 KCAL/MOL
REMARK 923 INTER-LIGAND FREE ENERGY PREDICTED BY IDOCK:   -7.09 KCAL/MOL
REMARK 924 INTRA-LIGAND FREE ENERGY PREDICTED BY IDOCK:   -1.31 KCAL/MOL
REMARK 927      BINDING AFFINITY PREDICTED BY RF-SCORE:    0.00 PKD
ROOT
HETATM    1  C   UNL     1     -10.308   3.223  63.586  1.00  0.00    -0.223 C  
HETATM    2  C   UNL     1      -9.617   1.949  64.033  1.00  0.00    -0.134 C  
ENDROOT
BRANCH   2   3
HETATM    3  C   UNL     1      -8.117   2.156  64.261  1.00  0.00    -0.077 C  
BRANCH   3   4
HETATM    4  C   UNL     1      -7.850   3.619  64.595  1.00  0.00    -0.085 C  
BRANCH   4   5
HETATM    5  N   UNL     1      -7.074   4.278  63.550  1.00  0.00    -0.045 NA 
HETATM    6  H   UNL     1      -6.592   3.737  62.832  1.00  0.00     0.000 HD 
BRANCH   5   7
HETATM    7  C   UNL     1      -7.015   5.681  63.564  1.00  0.00    -0.045 A  
HETATM    8  C   UNL     1      -7.479   6.456  64.636  1.00  0.00    -0.091 A  
HETATM    9  C   UNL     1      -7.475   7.849  64.585  1.00  0.00    -0.101 A  
HETATM   10  C   UNL     1      -7.035   8.514  63.439  1.00  0.00    -0.089 A  
HETATM   11  C   UNL     1      -6.592   6.358  62.411  1.00  0.00    -0.034 A  
HETATM   12  C   UNL     1      -6.594   7.761  62.345  1.00  0.00    -0.080 A  
BRANCH  10  13
HETATM   13  C   UNL     1      -7.093   9.998  63.449  1.00  0.00    -0.129 C  
HETATM   14  O   UNL     1      -6.174  10.707  63.065  1.00  0.00    -0.124 OA 
BRANCH  13  15
HETATM   15  O   UNL     1      -8.265  10.440  63.960  1.00  0.00    -0.162 OA 
BRANCH  15  16
HETATM   16  C   UNL     1      -9.183  10.968  62.986  1.00  0.00    -0.326 C  
BRANCH  16  17
HETATM   17  C   UNL     1     -10.629  10.623  63.341  1.00  0.00     0.293 C  
BRANCH  17  18
HETATM   18  O   UNL     1     -11.139  11.604  64.249  1.00  0.00    -0.332 OA 
BRANCH  18  19
HETATM   19  C   UNL     1     -10.617  12.899  63.959  1.00  0.00    -0.389 C  
BRANCH  19  20
HETATM   20  C   UNL     1     -10.015  13.499  65.223  1.00  0.00    -0.183 C  
BRANCH  20  21
HETATM   21  O   UNL     1     -10.623  14.765  65.472  1.00  0.00    -0.312 OA 
BRANCH  21  22
HETATM   22  C   UNL     1     -11.956  14.616  65.957  1.00  0.00    -0.242 C  
BRANCH  22  23
HETATM   23  C   UNL     1     -11.933  14.600  67.480  1.00  0.00    -0.278 C  
BRANCH  23  24
HETATM   24  O   UNL     1     -12.117  13.262  67.936  1.00  0.00    -0.331 OA 
BRANCH  24  25
HETATM   25  C   UNL     1     -11.569  13.081  69.241  1.00  0.00    -0.310 C  
BRANCH  25  26
HETATM   26  C   UNL     1     -12.560  13.602  70.272  1.00  0.00    -0.186 C  
BRANCH  26  27
HETATM   27  O   UNL     1     -12.301  12.972  71.524  1.00  0.00    -0.157 OA 
BRANCH  27  28
HETATM   28  C   UNL     1     -13.460  12.303  72.015  1.00  0.00    -0.316 C  
BRANCH  28  29
HETATM   29  C   UNL     1     -13.316  10.810  71.760  1.00  0.00    -0.326 C  
BRANCH  29  30
HETATM   30  O   UNL     1     -11.941  10.512  71.533  1.00  0.00    -0.300 OA 
BRANCH  30  31
HETATM   31  C   UNL     1     -11.768   9.157  71.127  1.00  0.00    -0.313 C  
BRANCH  31  32
HETATM   32  C   UNL     1     -10.815   8.469  72.092  1.00  0.00    -0.357 C  
BRANCH  32  33
HETATM   33  O   UNL     1      -9.532   9.078  71.987  1.00  0.00    -0.339 OA 
BRANCH  33  34
HETATM   34  C   UNL     1      -8.509   8.098  71.835  1.00  0.00    -0.150 C  
BRANCH  34  35
HETATM   35  C   UNL     1      -9.141   6.715  71.880  1.00  0.00    -0.143 C  
BRANCH  35  36
HETATM   36  O   UNL     1      -8.687   5.961  70.759  1.00  0.00    -0.131 OA 
BRANCH  36  37
HETATM   37  C   UNL     1      -8.995   6.621  69.534  1.00  0.00    -0.138 C  
BRANCH  37  38
HETATM   38  C   UNL     1      -7.696   7.007  68.839  1.00  0.00    -0.110 C  
BRANCH  38  39
HETATM   39  O   UNL     1      -6.939   5.829  68.577  1.00  0.00    -0.063 OA 
BRANCH  39  40
HETATM   40  C   UNL     1      -7.789   4.695  68.407  1.00  0.00    -0.080 C  
BRANCH  40  41
HETATM   41  C   UNL     1      -6.964   3.426  68.569  1.00  0.00    -0.050 C  
BRANCH  41  42
HETATM   42  O   UNL     1      -7.837   2.301  68.644  1.00  0.00    -0.053 OA 
HETATM   43  C   UNL     1      -8.507   2.248  69.896  1.00  0.00    -0.048 C  
ENDBRANCH  41  42
ENDBRANCH  40  41
ENDBRANCH  39  40
ENDBRANCH  38  39
ENDBRANCH  37  38
ENDBRANCH  36  37
ENDBRANCH  35  36
ENDBRANCH  34  35
ENDBRANCH  33  34
ENDBRANCH  32  33
ENDBRANCH  31  32
ENDBRANCH  30  31
ENDBRANCH  29  30
ENDBRANCH  28  29
ENDBRANCH  27  28
ENDBRANCH  26  27
ENDBRANCH  25  26
ENDBRANCH  24  25
ENDBRANCH  23  24
ENDBRANCH  22  23
ENDBRANCH  21  22
ENDBRANCH  20  21
ENDBRANCH  19  20
ENDBRANCH  18  19
ENDBRANCH  17  18
ENDBRANCH  16  17
ENDBRANCH  15  16
ENDBRANCH  13  15
ENDBRANCH  10  13
ENDBRANCH   5   7
ENDBRANCH   4   5
ENDBRANCH   3   4
ENDBRANCH   2   3
TORSDOF 33
ENDMDL
MODEL      201
REMARK 921   NORMALIZED FREE ENERGY PREDICTED BY IDOCK:   -1.85 KCAL/MOL
REMARK 922        TOTAL FREE ENERGY PREDICTED BY IDOCK:   -8.21 KCAL/MOL
REMARK 923 INTER-LIGAND FREE ENERGY PREDICTED BY IDOCK:   -6.45 KCAL/MOL
REMARK 924 INTRA-LIGAND FREE ENERGY PREDICTED BY IDOCK:   -1.76 KCAL/MOL
REMARK 927      BINDING AFFINITY PREDICTED BY RF-SCORE:    0.00 PKD
ROOT
HETATM    1  C   UNL     1      -7.681   3.469  70.365  1.00  0.00    -0.044 C  
HETATM    2  C   UNL     1      -8.911   3.913  69.596  1.00  0.00    -0.167 C  
ENDROOT
BRANCH   2   3
HETATM    3  C   UNL     1      -8.987   3.271  68.208  1.00  0.00    -0.188 C  
BRANCH   3   4
HETATM    4  C   UNL     1      -9.086   4.363  67.147  1.00  0.00    -0.131 C  
BRANCH   4   5
HETATM    5  N   UNL     1     -10.003   5.423  67.549  1.00  0.00    -0.153 NA 
HETATM    6  H   UNL     1     -10.980   5.223  67.761  1.00  0.00     0.000 HD 
BRANCH   5   7
HETATM    7  C   UNL     1      -9.495   6.730  67.634  1.00  0.00    -0.118 A  
HETATM    8  C   UNL     1      -9.324   7.559  66.517  1.00  0.00    -0.231 A  
HETATM    9  C   UNL     1      -8.746   8.823  66.628  1.00  0.00    -0.138 A  
HETATM   10  C   UNL     1      -8.288   9.286  67.863  1.00  0.00    -0.116 A  
HETATM   11  C   UNL     1      -9.016   7.197  68.867  1.00  0.00    -0.129 A  
HETATM   12  C   UNL     1      -8.422   8.464  68.988  1.00  0.00    -0.123 A  
BRANCH  10  13
HETATM   13  C   UNL     1      -7.653  10.629  67.893  1.00  0.00    -0.091 C  
HETATM   14  O   UNL     1      -8.121  11.576  68.509  1.00  0.00    -0.139 OA 
BRANCH  13  15
HETATM   15  O   UNL     1      -6.533  10.659  67.137  1.00  0.00    -0.069 OA 
BRANCH  15  16
HETATM   16  C   UNL     1      -5.424  11.355  67.736  1.00  0.00    -0.046 C  
BRANCH  16  17
HETATM   17  C   UNL     1      -5.271  12.761  67.155  1.00  0.00     0.171 C  
BRANCH  17  18
HETATM   18  O   UNL     1      -6.075  13.674  67.910  1.00  0.00    -0.127 OA 
BRANCH  18  19
HETATM   19  C   UNL     1      -6.117  14.959  67.293  1.00  0.00     0.382 C  
BRANCH  19  20
HETATM   20  C   UNL     1      -5.127  15.887  67.985  1.00  0.00    -0.119 C  
BRANCH  20  21
HETATM   21  O   UNL     1      -5.490  17.239  67.712  1.00  0.00    -0.112 OA 
BRANCH  21  22
HETATM   22  C   UNL     1      -6.076  17.862  68.854  1.00  0.00    -0.208 C  
BRANCH  22  23
HETATM   23  C   UNL     1      -7.022  18.962  68.391  1.00  0.00    -0.254 C  
BRANCH  23  24
HETATM   24  O   UNL     1      -8.224  18.370  67.904  1.00  0.00    -0.251 OA 
BRANCH  24  25
HETATM   25  C   UNL     1      -8.731  19.083  66.778  1.00  0.00    -0.309 C  
BRANCH  25  26
HETATM   26  C   UNL     1      -9.814  18.249  66.108  1.00  0.00    -0.260 C  
BRANCH  26  27
HETATM   27  O   UNL     1      -9.623  16.879  66.449  1.00  0.00    -0.258 OA 
BRANCH  27  28
HETATM   28  C   UNL     1     -10.656  16.062  65.904  1.00  0.00    -0.328 C  
BRANCH  28  29
HETATM   29  C   UNL     1     -10.919  16.488  64.468  1.00  0.00     0.078 C  
BRANCH  29  30
HETATM   30  O   UNL     1     -12.134  15.890  64.024  1.00  0.00    -0.685 OA 
BRANCH  30  31
HETATM   31  C   UNL     1     -12.254  14.553  64.505  1.00  0.00    -0.465 C  
BRANCH  31  32
HETATM   32  C   UNL     1     -11.101  13.725  63.959  1.00  0.00    -0.027 C  
BRANCH  32  33
HETATM   33  O   UNL     1     -11.583  12.427  63.624  1.00  0.00    -0.419 OA 
BRANCH  33  34
HETATM   34  C   UNL     1     -12.164  11.788  64.757  1.00  0.00     0.123 C  
BRANCH  34  35
HETATM   35  C   UNL     1     -11.057  11.167  65.596  1.00  0.00    -0.008 C  
BRANCH  35  36
HETATM   36  O   UNL     1     -10.863  11.958  66.766  1.00  0.00    -0.242 OA 
BRANCH  36  37
HETATM   37  C   UNL     1     -11.634  11.461  67.857  1.00  0.00    -0.266 C  
BRANCH  37  38
HETATM   38  C   UNL     1     -10.931  11.812  69.161  1.00  0.00    -0.209 C  
BRANCH  38  39
HETATM   39  O   UNL     1     -11.854  12.464  70.028  1.00  0.00    -0.326 OA 
BRANCH  39  40
HETATM   40  C   UNL     1     -11.321  13.693  70.521  1.00  0.00     0.381 C  
BRANCH  40  41
HETATM   41  C   UNL     1     -12.032  14.853  69.837  1.00  0.00    -0.330 C  
BRANCH  41  42
HETATM   42  O   UNL     1     -11.066  15.695  69.210  1.00  0.00    -0.253 OA 
HETATM   43  C   UNL     1      -9.750  15.389  69.650  1.00  0.00    -0.246 C  
ENDBRANCH  41  42
ENDBRANCH  40  41
ENDBRANCH  39  40
ENDBRANCH  38  39
ENDBRANCH  37  38
ENDBRANCH  36  37
ENDBRANCH  35  36
ENDBRANCH  34  35
ENDBRANCH  33  34
ENDBRANCH  32  33
ENDBRANCH  31  32
ENDBRANCH  30  31
ENDBRANCH  29  30
ENDBRANCH  28  29
ENDBRANCH  27  28
ENDBRANCH  26  27
ENDBRANCH  25  26
ENDBRANCH  24  25
ENDBRANCH  23  24
ENDBRANCH  22  23
ENDBRANCH  21  22
ENDBRANCH  20  21
ENDBRANCH  19  20
ENDBRANCH  18  19
ENDBRANCH  17  18
ENDBRANCH  16  17
ENDBRANCH  15  16
ENDBRANCH  13  15
ENDBRANCH  10  13
ENDBRANCH   5   7
ENDBRANCH   4   5
ENDBRANCH   3   4
ENDBRANCH   2   3
TORSDOF 33
ENDMDL
MODEL      202
REMARK 921   NORMALIZED FREE ENERGY PREDICTED BY IDOCK:   -1.81 KCAL/MOL
REMARK 922        TOTAL FREE ENERGY PREDICTED BY IDOCK:   -8.09 KCAL/MOL
REMARK 923 INTER-LIGAND FREE ENERGY PREDICTED BY IDOCK:   -7.80 KCAL/MOL
REMARK 924 INTRA-LIGAND FREE ENERGY PREDICTED BY IDOCK:   -0.29 KCAL/MOL
REMARK 927      BINDING AFFINITY PREDICTED BY RF-SCORE:    0.00 PKD
ROOT
HETATM    1  C   UNL     1      -8.973   7.309  65.656  1.00  0.00     0.009 C  
HETATM    2  C   UNL     1      -9.534   6.364  66.701  1.00  0.00    -0.191 C  
ENDROOT
BRANCH   2   3
HETATM    3  C   UNL     1     -10.029   5.051  66.087  1.00  0.00    -0.240 C  
BRANCH   3   4
HETATM    4  C   UNL     1      -8.897   4.030  66.089  1.00  0.00    -0.120 C  
BRANCH   4   5
HETATM    5  N   UNL     1      -9.310   2.768  66.694  1.00  0.00    -0.363 NA 
HETATM    6  H   UNL     1      -9.541   1.959  66.118  1.00  0.00     0.000 HD 
BRANCH   5   7
HETATM    7  C   UNL     1      -9.378   2.705  68.095  1.00  0.00    -0.203 A  
HETATM    8  C   UNL     1      -9.397   1.499  68.807  1.00  0.00    -0.217 A  
HETATM    9  C   UNL     1      -9.543   1.471  70.194  1.00  0.00    -0.103 A  
HETATM   10  C   UNL     1      -9.709   2.657  70.912  1.00  0.00    -0.131 A  
HETATM   11  C   UNL     1      -9.565   3.890  68.823  1.00  0.00    -0.187 A  
HETATM   12  C   UNL     1      -9.723   3.873  70.219  1.00  0.00    -0.245 A  
BRANCH  10  13
HETATM   13  C   UNL     1      -9.892   2.542  72.381  1.00  0.00    -0.149 C  
HETATM   14  O   UNL     1      -9.849   1.477  72.979  1.00  0.00    -0.079 OA 
BRANCH  13  15
HETATM   15  O   UNL     1     -10.137   3.748  72.941  1.00  0.00    -0.143 OA 
BRANCH  15  16
HETATM   16  C   UNL     1      -9.610   3.911  74.271  1.00  0.00    -0.107 C  
BRANCH  16  17
HETATM   17  C   UNL     1      -8.093   4.095  74.248  1.00  0.00    -0.091 C  
BRANCH  17  18
HETATM   18  O   UNL     1      -7.726   4.843  73.085  1.00  0.00    -0.090 OA 
BRANCH  18  19
HETATM   19  C   UNL     1      -8.569   5.980  72.913  1.00  0.00    -0.123 C  
BRANCH  19  20
HETATM   20  C   UNL     1      -8.106   7.100  73.835  1.00  0.00    -0.118 C  
BRANCH  20  21
HETATM   21  O   UNL     1      -9.196   7.990  74.069  1.00  0.00    -0.166 OA 
BRANCH  21  22
HETATM   22  C   UNL     1     -10.159   7.921  73.019  1.00  0.00    -0.317 C  
BRANCH  22  23
HETATM   23  C   UNL     1      -9.690   8.784  71.855  1.00  0.00    -0.316 C  
BRANCH  23  24
HETATM   24  O   UNL     1     -10.769   8.961  70.940  1.00  0.00    -0.204 OA 
BRANCH  24  25
HETATM   25  C   UNL     1     -10.403   8.552  69.624  1.00  0.00    -0.218 C  
BRANCH  25  26
HETATM   26  C   UNL     1      -9.011   9.079  69.308  1.00  0.00    -0.144 C  
BRANCH  26  27
HETATM   27  O   UNL     1      -8.069   8.022  69.462  1.00  0.00    -0.115 OA 
BRANCH  27  28
HETATM   28  C   UNL     1      -6.738   8.526  69.555  1.00  0.00    -0.041 C  
BRANCH  28  29
HETATM   29  C   UNL     1      -6.024   8.284  68.234  1.00  0.00    -0.045 C  
BRANCH  29  30
HETATM   30  O   UNL     1      -5.911   9.522  67.538  1.00  0.00    -0.051 OA 
BRANCH  30  31
HETATM   31  C   UNL     1      -6.464   9.427  66.228  1.00  0.00    -0.070 C  
BRANCH  31  32
HETATM   32  C   UNL     1      -6.985  10.794  65.810  1.00  0.00    -0.048 C  
BRANCH  32  33
HETATM   33  O   UNL     1      -7.715  10.658  64.595  1.00  0.00    -0.036 OA 
BRANCH  33  34
HETATM   34  C   UNL     1      -9.113  10.546  64.846  1.00  0.00    -0.205 C  
BRANCH  34  35
HETATM   35  C   UNL     1      -9.674  11.931  65.136  1.00  0.00    -0.176 C  
BRANCH  35  36
HETATM   36  O   UNL     1     -10.815  11.800  65.981  1.00  0.00    -0.277 OA 
BRANCH  36  37
HETATM   37  C   UNL     1     -11.790  12.797  65.688  1.00  0.00    -0.425 C  
BRANCH  37  38
HETATM   38  C   UNL     1     -12.035  13.631  66.938  1.00  0.00    -0.410 C  
BRANCH  38  39
HETATM   39  O   UNL     1     -11.896  15.011  66.612  1.00  0.00    -0.229 OA 
BRANCH  39  40
HETATM   40  C   UNL     1     -10.542  15.334  66.296  1.00  0.00    -0.309 C  
BRANCH  40  41
HETATM   41  C   UNL     1     -10.461  16.799  65.892  1.00  0.00    -0.301 C  
BRANCH  41  42
HETATM   42  O   UNL     1      -9.099  17.223  65.921  1.00  0.00    -0.516 OA 
HETATM   43  C   UNL     1      -8.931  18.366  66.749  1.00  0.00    -0.288 C  
ENDBRANCH  41  42
ENDBRANCH  40  41
ENDBRANCH  39  40
ENDBRANCH  38  39
ENDBRANCH  37  38
ENDBRANCH  36  37
ENDBRANCH  35  36
ENDBRANCH  34  35
ENDBRANCH  33  34
ENDBRANCH  32  33
ENDBRANCH  31  32
ENDBRANCH  30  31
ENDBRANCH  29  30
ENDBRANCH  28  29
ENDBRANCH  27  28
ENDBRANCH  26  27
ENDBRANCH  25  26
ENDBRANCH  24  25
ENDBRANCH  23  24
ENDBRANCH  22  23
ENDBRANCH  21  22
ENDBRANCH  20  21
ENDBRANCH  19  20
ENDBRANCH  18  19
ENDBRANCH  17  18
ENDBRANCH  16  17
ENDBRANCH  15  16
ENDBRANCH  13  15
ENDBRANCH  10  13
ENDBRANCH   5   7
ENDBRANCH   4   5
ENDBRANCH   3   4
ENDBRANCH   2   3
TORSDOF 33
ENDMDL
MODEL      203
REMARK 921   NORMALIZED FREE ENERGY PREDICTED BY IDOCK:   -1.73 KCAL/MOL
REMARK 922        TOTAL FREE ENERGY PREDICTED BY IDOCK:   -7.88 KCAL/MOL
REMARK 923 INTER-LIGAND FREE ENERGY PREDICTED BY IDOCK:   -6.79 KCAL/MOL
REMARK 924 INTRA-LIGAND FREE ENERGY PREDICTED BY IDOCK:   -1.09 KCAL/MOL
REMARK 927      BINDING AFFINITY PREDICTED BY RF-SCORE:    0.00 PKD
ROOT
HETATM    1  C   UNL     1     -10.212   3.304  63.545  1.00  0.00    -0.199 C  
HETATM    2  C   UNL     1      -9.721   1.906  63.869  1.00  0.00    -0.130 C  
ENDROOT
BRANCH   2   3
HETATM    3  C   UNL     1      -8.199   1.851  64.031  1.00  0.00    -0.077 C  
BRANCH   3   4
HETATM    4  C   UNL     1      -7.688   3.210  64.497  1.00  0.00    -0.077 C  
BRANCH   4   5
HETATM    5  N   UNL     1      -6.771   3.802  63.530  1.00  0.00    -0.041 NA 
HETATM    6  H   UNL     1      -6.315   3.231  62.819  1.00  0.00     0.000 HD 
BRANCH   5   7
HETATM    7  C   UNL     1      -6.539   5.185  63.609  1.00  0.00    -0.030 A  
HETATM    8  C   UNL     1      -6.874   5.954  64.732  1.00  0.00    -0.047 A  
HETATM    9  C   UNL     1      -6.699   7.338  64.747  1.00  0.00    -0.050 A  
HETATM   10  C   UNL     1      -6.213   8.002  63.620  1.00  0.00    -0.067 A  
HETATM   11  C   UNL     1      -6.068   5.864  62.476  1.00  0.00    -0.025 A  
HETATM   12  C   UNL     1      -5.899   7.259  62.477  1.00  0.00    -0.049 A  
BRANCH  10  13
HETATM   13  C   UNL     1      -6.087   9.480  63.703  1.00  0.00    -0.096 C  
HETATM   14  O   UNL     1      -5.135  10.097  63.248  1.00  0.00    -0.082 OA 
BRANCH  13  15
HETATM   15  O   UNL     1      -7.133  10.025  64.364  1.00  0.00    -0.131 OA 
BRANCH  15  16
HETATM   16  C   UNL     1      -8.222  10.446  63.521  1.00  0.00    -0.135 C  
BRANCH  16  17
HETATM   17  C   UNL     1      -9.486   9.633  63.799  1.00  0.00     0.146 C  
BRANCH  17  18
HETATM   18  O   UNL     1     -10.209  10.238  64.875  1.00  0.00    -0.327 OA 
BRANCH  18  19
HETATM   19  C   UNL     1     -10.182  11.660  64.782  1.00  0.00    -0.275 C  
BRANCH  19  20
HETATM   20  C   UNL     1      -9.748  12.249  66.117  1.00  0.00    -0.245 C  
BRANCH  20  21
HETATM   21  O   UNL     1     -10.732  13.185  66.555  1.00  0.00    -0.276 OA 
BRANCH  21  22
HETATM   22  C   UNL     1     -11.957  12.536  66.885  1.00  0.00    -0.236 C  
BRANCH  22  23
HETATM   23  C   UNL     1     -12.026  12.339  68.394  1.00  0.00    -0.210 C  
BRANCH  23  24
HETATM   24  O   UNL     1     -11.631  11.005  68.709  1.00  0.00    -0.272 OA 
BRANCH  24  25
HETATM   25  C   UNL     1     -11.587  10.800  70.120  1.00  0.00    -0.337 C  
BRANCH  25  26
HETATM   26  C   UNL     1     -13.008  10.670  70.648  1.00  0.00    -0.264 C  
BRANCH  26  27
HETATM   27  O   UNL     1     -12.988   9.908  71.852  1.00  0.00    -0.399 OA 
BRANCH  27  28
HETATM   28  C   UNL     1     -13.876   8.796  71.773  1.00  0.00    -0.423 C  
BRANCH  28  29
HETATM   29  C   UNL     1     -13.071   7.538  71.481  1.00  0.00    -0.356 C  
BRANCH  29  30
HETATM   30  O   UNL     1     -11.700   7.790  71.776  1.00  0.00    -0.265 OA 
BRANCH  30  31
HETATM   31  C   UNL     1     -11.032   6.596  72.176  1.00  0.00    -0.245 C  
BRANCH  31  32
HETATM   32  C   UNL     1     -10.349   6.836  73.513  1.00  0.00    -0.316 C  
BRANCH  32  33
HETATM   33  O   UNL     1      -9.305   7.788  73.333  1.00  0.00    -0.239 OA 
BRANCH  33  34
HETATM   34  C   UNL     1      -8.075   7.308  73.867  1.00  0.00    -0.121 C  
BRANCH  34  35
HETATM   35  C   UNL     1      -8.312   5.950  74.510  1.00  0.00    -0.112 C  
BRANCH  35  36
HETATM   36  O   UNL     1      -7.669   4.947  73.727  1.00  0.00    -0.093 OA 
BRANCH  36  37
HETATM   37  C   UNL     1      -8.077   5.018  72.363  1.00  0.00    -0.109 C  
BRANCH  37  38
HETATM   38  C   UNL     1      -6.844   4.936  71.474  1.00  0.00    -0.044 C  
BRANCH  38  39
HETATM   39  O   UNL     1      -7.243   4.562  70.158  1.00  0.00    -0.048 OA 
BRANCH  39  40
HETATM   40  C   UNL     1      -8.664   4.501  70.046  1.00  0.00    -0.080 C  
BRANCH  40  41
HETATM   41  C   UNL     1      -9.031   3.747  68.775  1.00  0.00    -0.124 C  
BRANCH  41  42
HETATM   42  O   UNL     1      -9.305   2.385  69.096  1.00  0.00    -0.137 OA 
HETATM   43  C   UNL     1      -9.110   1.539  67.971  1.00  0.00    -0.149 C  
ENDBRANCH  41  42
ENDBRANCH  40  41
ENDBRANCH  39  40
ENDBRANCH  38  39
ENDBRANCH  37  38
ENDBRANCH  36  37
ENDBRANCH  35  36
ENDBRANCH  34  35
ENDBRANCH  33  34
ENDBRANCH  32  33
ENDBRANCH  31  32
ENDBRANCH  30  31
ENDBRANCH  29  30
ENDBRANCH  28  29
ENDBRANCH  27  28
ENDBRANCH  26  27
ENDBRANCH  25  26
ENDBRANCH  24  25
ENDBRANCH  23  24
ENDBRANCH  22  23
ENDBRANCH  21  22
ENDBRANCH  20  21
ENDBRANCH  19  20
ENDBRANCH  18  19
ENDBRANCH  17  18
ENDBRANCH  16  17
ENDBRANCH  15  16
ENDBRANCH  13  15
ENDBRANCH  10  13
ENDBRANCH   5   7
ENDBRANCH   4   5
ENDBRANCH   3   4
ENDBRANCH   2   3
TORSDOF 33
ENDMDL
MODEL      204
REMARK 921   NORMALIZED FREE ENERGY PREDICTED BY IDOCK:   -1.71 KCAL/MOL
REMARK 922        TOTAL FREE ENERGY PREDICTED BY IDOCK:   -7.82 KCAL/MOL
REMARK 923 INTER-LIGAND FREE ENERGY PREDICTED BY IDOCK:   -6.33 KCAL/MOL
REMARK 924 INTRA-LIGAND FREE ENERGY PREDICTED BY IDOCK:   -1.49 KCAL/MOL
REMARK 927      BINDING AFFINITY PREDICTED BY RF-SCORE:    0.00 PKD
ROOT
HETATM    1  C   UNL     1      -8.583   5.761  62.345  1.00  0.00    -0.015 C  
HETATM    2  C   UNL     1      -7.600   6.374  63.323  1.00  0.00    -0.083 C  
ENDROOT
BRANCH   2   3
HETATM    3  C   UNL     1      -6.981   5.328  64.253  1.00  0.00    -0.049 C  
BRANCH   3   4
HETATM    4  C   UNL     1      -7.638   5.415  65.626  1.00  0.00    -0.082 C  
BRANCH   4   5
HETATM    5  N   UNL     1      -6.734   5.981  66.621  1.00  0.00    -0.059 NA 
HETATM    6  H   UNL     1      -6.197   6.826  66.425  1.00  0.00     0.000 HD 
BRANCH   5   7
HETATM    7  C   UNL     1      -6.628   5.325  67.858  1.00  0.00    -0.050 A  
HETATM    8  C   UNL     1      -7.379   4.188  68.188  1.00  0.00    -0.064 A  
HETATM    9  C   UNL     1      -7.305   3.607  69.454  1.00  0.00    -0.049 A  
HETATM   10  C   UNL     1      -6.498   4.168  70.445  1.00  0.00    -0.031 A  
HETATM   11  C   UNL     1      -5.835   5.892  68.866  1.00  0.00    -0.016 A  
HETATM   12  C   UNL     1      -5.761   5.321  70.148  1.00  0.00    -0.016 A  
BRANCH  10  13
HETATM   13  C   UNL     1      -6.499   3.511  71.777  1.00  0.00    -0.015 C  
HETATM   14  O   UNL     1      -6.129   2.359  71.954  1.00  0.00    -0.013 OA 
BRANCH  13  15
HETATM   15  O   UNL     1      -6.984   4.336  72.731  1.00  0.00    -0.056 OA 
BRANCH  15  16
HETATM   16  C   UNL     1      -8.155   5.080  72.344  1.00  0.00    -0.109 C  
BRANCH  16  17
HETATM   17  C   UNL     1      -9.415   4.219  72.435  1.00  0.00    -0.129 C  
BRANCH  17  18
HETATM   18  O   UNL     1     -10.419   4.761  71.571  1.00  0.00    -0.167 OA 
BRANCH  18  19
HETATM   19  C   UNL     1     -10.079   6.077  71.143  1.00  0.00    -0.194 C  
BRANCH  19  20
HETATM   20  C   UNL     1     -11.212   7.034  71.492  1.00  0.00    -0.249 C  
BRANCH  20  21
HETATM   21  O   UNL     1     -12.378   6.659  70.760  1.00  0.00    -0.352 OA 
BRANCH  21  22
HETATM   22  C   UNL     1     -13.509   7.435  71.150  1.00  0.00    -0.165 C  
BRANCH  22  23
HETATM   23  C   UNL     1     -13.240   8.057  72.515  1.00  0.00     0.099 C  
BRANCH  23  24
HETATM   24  O   UNL     1     -13.586   9.440  72.473  1.00  0.00    -0.459 OA 
BRANCH  24  25
HETATM   25  C   UNL     1     -13.355   9.991  71.178  1.00  0.00    -0.305 C  
BRANCH  25  26
HETATM   26  C   UNL     1     -12.265  11.048  71.274  1.00  0.00    -0.259 C  
BRANCH  26  27
HETATM   27  O   UNL     1     -12.349  11.906  70.140  1.00  0.00    -0.248 OA 
BRANCH  27  28
HETATM   28  C   UNL     1     -11.307  11.632  69.207  1.00  0.00    -0.290 C  
BRANCH  28  29
HETATM   29  C   UNL     1     -11.297  12.718  68.142  1.00  0.00    -0.288 C  
BRANCH  29  30
HETATM   30  O   UNL     1     -10.391  12.341  67.108  1.00  0.00    -0.216 OA 
BRANCH  30  31
HETATM   31  C   UNL     1      -9.235  11.704  67.644  1.00  0.00    -0.178 C  
BRANCH  31  32
HETATM   32  C   UNL     1      -8.251  12.770  68.102  1.00  0.00    -0.167 C  
BRANCH  32  33
HETATM   33  O   UNL     1      -7.784  13.487  66.964  1.00  0.00    -0.040 OA 
BRANCH  33  34
HETATM   34  C   UNL     1      -8.040  14.882  67.095  1.00  0.00    -0.209 C  
BRANCH  34  35
HETATM   35  C   UNL     1      -7.930  15.267  68.563  1.00  0.00    -0.141 C  
BRANCH  35  36
HETATM   36  O   UNL     1      -8.958  16.205  68.874  1.00  0.00    -0.222 OA 
BRANCH  36  37
HETATM   37  C   UNL     1     -10.011  15.590  69.613  1.00  0.00    -0.284 C  
BRANCH  37  38
HETATM   38  C   UNL     1     -11.332  16.238  69.225  1.00  0.00    -0.288 C  
BRANCH  38  39
HETATM   39  O   UNL     1     -12.311  15.930  70.214  1.00  0.00    -0.351 OA 
BRANCH  39  40
HETATM   40  C   UNL     1     -11.868  16.311  71.516  1.00  0.00    -0.380 C  
BRANCH  40  41
HETATM   41  C   UNL     1     -12.996  16.081  72.512  1.00  0.00    -0.387 C  
BRANCH  41  42
HETATM   42  O   UNL     1     -12.815  14.816  73.147  1.00  0.00    -0.463 OA 
HETATM   43  C   UNL     1     -11.509  14.692  73.691  1.00  0.00     0.706 C  
ENDBRANCH  41  42
ENDBRANCH  40  41
ENDBRANCH  39  40
ENDBRANCH  38  39
ENDBRANCH  37  38
ENDBRANCH  36  37
ENDBRANCH  35  36
ENDBRANCH  34  35
ENDBRANCH  33  34
ENDBRANCH  32  33
ENDBRANCH  31  32
ENDBRANCH  30  31
ENDBRANCH  29  30
ENDBRANCH  28  29
ENDBRANCH  27  28
ENDBRANCH  26  27
ENDBRANCH  25  26
ENDBRANCH  24  25
ENDBRANCH  23  24
ENDBRANCH  22  23
ENDBRANCH  21  22
ENDBRANCH  20  21
ENDBRANCH  19  20
ENDBRANCH  18  19
ENDBRANCH  17  18
ENDBRANCH  16  17
ENDBRANCH  15  16
ENDBRANCH  13  15
ENDBRANCH  10  13
ENDBRANCH   5   7
ENDBRANCH   4   5
ENDBRANCH   3   4
ENDBRANCH   2   3
TORSDOF 33
ENDMDL
MODEL      205
REMARK 921   NORMALIZED FREE ENERGY PREDICTED BY IDOCK:   -1.70 KCAL/MOL
REMARK 922        TOTAL FREE ENERGY PREDICTED BY IDOCK:   -7.78 KCAL/MOL
REMARK 923 INTER-LIGAND FREE ENERGY PREDICTED BY IDOCK:   -6.22 KCAL/MOL
REMARK 924 INTRA-LIGAND FREE ENERGY PREDICTED BY IDOCK:   -1.56 KCAL/MOL
REMARK 927      BINDING AFFINITY PREDICTED BY RF-SCORE:    0.00 PKD
ROOT
HETATM    1  C   UNL     1      -7.918   8.215  65.680  1.00  0.00    -0.108 C  
HETATM    2  C   UNL     1      -9.010   9.241  65.444  1.00  0.00    -0.253 C  
ENDROOT
BRANCH   2   3
HETATM    3  C   UNL     1     -10.238   8.989  66.323  1.00  0.00    -0.237 C  
BRANCH   3   4
HETATM    4  C   UNL     1      -9.868   9.198  67.787  1.00  0.00    -0.174 C  
BRANCH   4   5
HETATM    5  N   UNL     1      -8.925   8.187  68.254  1.00  0.00    -0.136 NA 
HETATM    6  H   UNL     1      -8.779   7.323  67.733  1.00  0.00     0.000 HD 
BRANCH   5   7
HETATM    7  C   UNL     1      -8.226   8.445  69.445  1.00  0.00    -0.116 A  
HETATM    8  C   UNL     1      -6.845   8.676  69.486  1.00  0.00    -0.044 A  
HETATM    9  C   UNL     1      -6.170   8.853  70.694  1.00  0.00    -0.042 A  
HETATM   10  C   UNL     1      -6.856   8.769  71.907  1.00  0.00    -0.060 A  
HETATM   11  C   UNL     1      -8.903   8.344  70.669  1.00  0.00    -0.161 A  
HETATM   12  C   UNL     1      -8.232   8.509  71.892  1.00  0.00    -0.201 A  
BRANCH  10  13
HETATM   13  C   UNL     1      -6.062   8.934  73.151  1.00  0.00    -0.007 C  
HETATM   14  O   UNL     1      -5.169   9.762  73.269  1.00  0.00    -0.236 OA 
BRANCH  13  15
HETATM   15  O   UNL     1      -6.437   8.042  74.095  1.00  0.00    -0.100 OA 
BRANCH  15  16
HETATM   16  C   UNL     1      -6.021   6.688  73.840  1.00  0.00    -0.063 C  
BRANCH  16  17
HETATM   17  C   UNL     1      -7.017   5.682  74.417  1.00  0.00    -0.081 C  
BRANCH  17  18
HETATM   18  O   UNL     1      -7.102   4.550  73.546  1.00  0.00    -0.064 OA 
BRANCH  18  19
HETATM   19  C   UNL     1      -8.302   4.578  72.776  1.00  0.00    -0.107 C  
BRANCH  19  20
HETATM   20  C   UNL     1      -9.417   5.215  73.594  1.00  0.00    -0.133 C  
BRANCH  20  21
HETATM   21  O   UNL     1     -10.037   6.238  72.816  1.00  0.00    -0.175 OA 
BRANCH  21  22
HETATM   22  C   UNL     1     -11.156   5.734  72.091  1.00  0.00    -0.271 C  
BRANCH  22  23
HETATM   23  C   UNL     1     -12.315   5.510  73.054  1.00  0.00     0.543 C  
BRANCH  23  24
HETATM   24  O   UNL     1     -13.521   5.975  72.451  1.00  0.00     0.234 OA 
BRANCH  24  25
HETATM   25  C   UNL     1     -13.250   6.719  71.265  1.00  0.00    -0.041 C  
BRANCH  25  26
HETATM   26  C   UNL     1     -14.287   7.825  71.125  1.00  0.00    -0.177 C  
BRANCH  26  27
HETATM   27  O   UNL     1     -14.228   8.665  72.275  1.00  0.00    -0.439 OA 
BRANCH  27  28
HETATM   28  C   UNL     1     -13.027   9.433  72.291  1.00  0.00    -0.400 C  
BRANCH  28  29
HETATM   29  C   UNL     1     -12.855  10.113  70.941  1.00  0.00    -0.355 C  
BRANCH  29  30
HETATM   30  O   UNL     1     -12.106  11.311  71.121  1.00  0.00    -0.283 OA 
BRANCH  30  31
HETATM   31  C   UNL     1     -12.684  12.133  72.131  1.00  0.00     0.154 C  
BRANCH  31  32
HETATM   32  C   UNL     1     -13.228  13.400  71.487  1.00  0.00    -0.312 C  
BRANCH  32  33
HETATM   33  O   UNL     1     -12.182  14.030  70.753  1.00  0.00    -0.329 OA 
BRANCH  33  34
HETATM   34  C   UNL     1     -12.384  15.438  70.678  1.00  0.00    -0.403 C  
BRANCH  34  35
HETATM   35  C   UNL     1     -12.024  15.914  69.279  1.00  0.00    -0.242 C  
BRANCH  35  36
HETATM   36  O   UNL     1     -10.810  15.286  68.874  1.00  0.00    -0.229 OA 
BRANCH  36  37
HETATM   37  C   UNL     1     -10.775  15.094  67.462  1.00  0.00    -0.284 C  
BRANCH  37  38
HETATM   38  C   UNL     1      -9.329  14.910  67.024  1.00  0.00    -0.227 C  
BRANCH  38  39
HETATM   39  O   UNL     1      -8.536  14.573  68.158  1.00  0.00    -0.155 OA 
BRANCH  39  40
HETATM   40  C   UNL     1      -7.340  15.350  68.203  1.00  0.00    -0.116 C  
BRANCH  40  41
HETATM   41  C   UNL     1      -6.247  14.542  68.889  1.00  0.00    -0.087 C  
BRANCH  41  42
HETATM   42  O   UNL     1      -6.657  14.225  70.217  1.00  0.00    -0.138 OA 
HETATM   43  C   UNL     1      -5.747  13.327  70.839  1.00  0.00    -0.167 C  
ENDBRANCH  41  42
ENDBRANCH  40  41
ENDBRANCH  39  40
ENDBRANCH  38  39
ENDBRANCH  37  38
ENDBRANCH  36  37
ENDBRANCH  35  36
ENDBRANCH  34  35
ENDBRANCH  33  34
ENDBRANCH  32  33
ENDBRANCH  31  32
ENDBRANCH  30  31
ENDBRANCH  29  30
ENDBRANCH  28  29
ENDBRANCH  27  28
ENDBRANCH  26  27
ENDBRANCH  25  26
ENDBRANCH  24  25
ENDBRANCH  23  24
ENDBRANCH  22  23
ENDBRANCH  21  22
ENDBRANCH  20  21
ENDBRANCH  19  20
ENDBRANCH  18  19
ENDBRANCH  17  18
ENDBRANCH  16  17
ENDBRANCH  15  16
ENDBRANCH  13  15
ENDBRANCH  10  13
ENDBRANCH   5   7
ENDBRANCH   4   5
ENDBRANCH   3   4
ENDBRANCH   2   3
TORSDOF 33
ENDMDL
MODEL      206
REMARK 921   NORMALIZED FREE ENERGY PREDICTED BY IDOCK:   -1.60 KCAL/MOL
REMARK 922        TOTAL FREE ENERGY PREDICTED BY IDOCK:   -7.50 KCAL/MOL
REMARK 923 INTER-LIGAND FREE ENERGY PREDICTED BY IDOCK:   -7.04 KCAL/MOL
REMARK 924 INTRA-LIGAND FREE ENERGY PREDICTED BY IDOCK:   -0.46 KCAL/MOL
REMARK 927      BINDING AFFINITY PREDICTED BY RF-SCORE:    0.00 PKD
ROOT
HETATM    1  C   UNL     1     -14.411  15.233  72.026  1.00  0.00    -0.689 C  
HETATM    2  C   UNL     1     -13.361  15.012  73.099  1.00  0.00    -0.525 C  
ENDROOT
BRANCH   2   3
HETATM    3  C   UNL     1     -12.139  14.261  72.565  1.00  0.00     0.054 C  
BRANCH   3   4
HETATM    4  C   UNL     1     -12.537  13.449  71.337  1.00  0.00    -0.283 C  
BRANCH   4   5
HETATM    5  N   UNL     1     -13.400  12.327  71.689  1.00  0.00    -0.268 NA 
HETATM    6  H   UNL     1     -14.360  12.478  72.000  1.00  0.00     0.000 HD 
BRANCH   5   7
HETATM    7  C   UNL     1     -12.866  11.032  71.585  1.00  0.00    -0.435 A  
HETATM    8  C   UNL     1     -13.273   9.969  72.401  1.00  0.00    -0.263 A  
HETATM    9  C   UNL     1     -12.668   8.715  72.322  1.00  0.00    -0.450 A  
HETATM   10  C   UNL     1     -11.607   8.495  71.442  1.00  0.00    -0.344 A  
HETATM   11  C   UNL     1     -11.788  10.806  70.716  1.00  0.00    -0.443 A  
HETATM   12  C   UNL     1     -11.164   9.550  70.637  1.00  0.00    -0.364 A  
BRANCH  10  13
HETATM   13  C   UNL     1     -10.994   7.142  71.441  1.00  0.00    -0.234 C  
HETATM   14  O   UNL     1     -11.425   6.211  72.105  1.00  0.00    -0.285 OA 
BRANCH  13  15
HETATM   15  O   UNL     1      -9.901   7.100  70.645  1.00  0.00    -0.182 OA 
BRANCH  15  16
HETATM   16  C   UNL     1      -8.828   6.278  71.142  1.00  0.00    -0.142 C  
BRANCH  16  17
HETATM   17  C   UNL     1      -8.617   6.489  72.642  1.00  0.00    -0.124 C  
BRANCH  17  18
HETATM   18  O   UNL     1      -8.267   5.240  73.248  1.00  0.00    -0.110 OA 
BRANCH  18  19
HETATM   19  C   UNL     1      -8.849   4.143  72.548  1.00  0.00    -0.107 C  
BRANCH  19  20
HETATM   20  C   UNL     1      -7.819   3.031  72.400  1.00  0.00    -0.058 C  
BRANCH  20  21
HETATM   21  O   UNL     1      -7.601   2.782  71.012  1.00  0.00    -0.036 OA 
BRANCH  21  22
HETATM   22  C   UNL     1      -6.318   2.205  70.782  1.00  0.00    -0.023 C  
BRANCH  22  23
HETATM   23  C   UNL     1      -6.144   1.953  69.289  1.00  0.00    -0.024 C  
BRANCH  23  24
HETATM   24  O   UNL     1      -7.118   2.708  68.572  1.00  0.00    -0.047 OA 
BRANCH  24  25
HETATM   25  C   UNL     1      -6.709   4.066  68.422  1.00  0.00    -0.046 C  
BRANCH  25  26
HETATM   26  C   UNL     1      -6.562   4.380  66.940  1.00  0.00    -0.046 C  
BRANCH  26  27
HETATM   27  O   UNL     1      -5.842   5.601  66.794  1.00  0.00    -0.017 OA 
BRANCH  27  28
HETATM   28  C   UNL     1      -6.092   6.198  65.524  1.00  0.00    -0.030 C  
BRANCH  28  29
HETATM   29  C   UNL     1      -7.571   6.534  65.416  1.00  0.00    -0.089 C  
BRANCH  29  30
HETATM   30  O   UNL     1      -7.960   7.277  66.568  1.00  0.00    -0.109 OA 
BRANCH  30  31
HETATM   31  C   UNL     1      -7.892   8.679  66.324  1.00  0.00    -0.102 C  
BRANCH  31  32
HETATM   32  C   UNL     1      -7.298   8.912  64.943  1.00  0.00    -0.093 C  
BRANCH  32  33
HETATM   33  O   UNL     1      -8.354   9.168  64.023  1.00  0.00    -0.163 OA 
BRANCH  33  34
HETATM   34  C   UNL     1      -9.577   9.430  64.706  1.00  0.00     0.094 C  
BRANCH  34  35
HETATM   35  C   UNL     1     -10.048  10.833  64.353  1.00  0.00    -0.353 C  
BRANCH  35  36
HETATM   36  O   UNL     1      -9.286  11.779  65.098  1.00  0.00    -0.088 OA 
BRANCH  36  37
HETATM   37  C   UNL     1     -10.102  12.476  66.036  1.00  0.00    -0.253 C  
BRANCH  37  38
HETATM   38  C   UNL     1     -10.269  11.618  67.281  1.00  0.00    -0.201 C  
BRANCH  38  39
HETATM   39  O   UNL     1      -9.892  12.378  68.426  1.00  0.00    -0.217 OA 
BRANCH  39  40
HETATM   40  C   UNL     1      -8.673  11.895  68.989  1.00  0.00     0.309 C  
BRANCH  40  41
HETATM   41  C   UNL     1      -7.501  12.598  68.317  1.00  0.00    -0.123 C  
BRANCH  41  42
HETATM   42  O   UNL     1      -6.336  12.453  69.127  1.00  0.00    -0.082 OA 
HETATM   43  C   UNL     1      -5.187  12.185  68.335  1.00  0.00    -0.051 C  
ENDBRANCH  41  42
ENDBRANCH  40  41
ENDBRANCH  39  40
ENDBRANCH  38  39
ENDBRANCH  37  38
ENDBRANCH  36  37
ENDBRANCH  35  36
ENDBRANCH  34  35
ENDBRANCH  33  34
ENDBRANCH  32  33
ENDBRANCH  31  32
ENDBRANCH  30  31
ENDBRANCH  29  30
ENDBRANCH  28  29
ENDBRANCH  27  28
ENDBRANCH  26  27
ENDBRANCH  25  26
ENDBRANCH  24  25
ENDBRANCH  23  24
ENDBRANCH  22  23
ENDBRANCH  21  22
ENDBRANCH  20  21
ENDBRANCH  19  20
ENDBRANCH  18  19
ENDBRANCH  17  18
ENDBRANCH  16  17
ENDBRANCH  15  16
ENDBRANCH  13  15
ENDBRANCH  10  13
ENDBRANCH   5   7
ENDBRANCH   4   5
ENDBRANCH   3   4
ENDBRANCH   2   3
TORSDOF 33
ENDMDL
MODEL      207
REMARK 921   NORMALIZED FREE ENERGY PREDICTED BY IDOCK:   -1.44 KCAL/MOL
REMARK 922        TOTAL FREE ENERGY PREDICTED BY IDOCK:   -7.01 KCAL/MOL
REMARK 923 INTER-LIGAND FREE ENERGY PREDICTED BY IDOCK:   -7.42 KCAL/MOL
REMARK 924 INTRA-LIGAND FREE ENERGY PREDICTED BY IDOCK:    0.41 KCAL/MOL
REMARK 927      BINDING AFFINITY PREDICTED BY RF-SCORE:    0.00 PKD
ROOT
HETATM    1  C   UNL     1      -6.267  18.475  71.067  1.00  0.00     0.887 C  
HETATM    2  C   UNL     1      -5.387  17.239  71.070  1.00  0.00    -0.101 C  
ENDROOT
BRANCH   2   3
HETATM    3  C   UNL     1      -5.228  16.640  69.670  1.00  0.00    -0.145 C  
BRANCH   3   4
HETATM    4  C   UNL     1      -6.424  17.033  68.810  1.00  0.00    -0.181 C  
BRANCH   4   5
HETATM    5  N   UNL     1      -7.687  16.775  69.492  1.00  0.00     0.071 NA 
HETATM    6  H   UNL     1      -7.886  17.185  70.405  1.00  0.00     0.000 HD 
BRANCH   5   7
HETATM    7  C   UNL     1      -8.621  15.946  68.850  1.00  0.00    -0.221 A  
HETATM    8  C   UNL     1      -9.774  15.460  69.481  1.00  0.00    -0.259 A  
HETATM    9  C   UNL     1     -10.641  14.576  68.839  1.00  0.00    -0.249 A  
HETATM   10  C   UNL     1     -10.361  14.123  67.549  1.00  0.00    -0.248 A  
HETATM   11  C   UNL     1      -8.339  15.470  67.561  1.00  0.00    -0.190 A  
HETATM   12  C   UNL     1      -9.200  14.571  66.909  1.00  0.00    -0.267 A  
BRANCH  10  13
HETATM   13  C   UNL     1     -11.314  13.157  66.945  1.00  0.00    -0.318 C  
HETATM   14  O   UNL     1     -11.882  12.286  67.589  1.00  0.00    -0.434 OA 
BRANCH  13  15
HETATM   15  O   UNL     1     -11.436  13.354  65.613  1.00  0.00    -0.308 OA 
BRANCH  15  16
HETATM   16  C   UNL     1     -10.398  12.749  64.820  1.00  0.00    -0.322 C  
BRANCH  16  17
HETATM   17  C   UNL     1     -10.970  11.708  63.857  1.00  0.00    -0.407 C  
BRANCH  17  18
HETATM   18  O   UNL     1      -9.994  10.684  63.637  1.00  0.00    -0.319 OA 
BRANCH  18  19
HETATM   19  C   UNL     1      -9.162  10.993  62.521  1.00  0.00    -0.299 C  
BRANCH  19  20
HETATM   20  C   UNL     1      -7.934  10.094  62.539  1.00  0.00    -0.140 C  
BRANCH  20  21
HETATM   21  O   UNL     1      -8.346   8.740  62.352  1.00  0.00    -0.179 OA 
BRANCH  21  22
HETATM   22  C   UNL     1      -7.955   7.921  63.451  1.00  0.00    -0.125 C  
BRANCH  22  23
HETATM   23  C   UNL     1      -6.847   8.621  64.227  1.00  0.00    -0.074 C  
BRANCH  23  24
HETATM   24  O   UNL     1      -7.399   9.202  65.407  1.00  0.00    -0.087 OA 
BRANCH  24  25
HETATM   25  C   UNL     1      -6.584   8.932  66.545  1.00  0.00    -0.067 C  
BRANCH  25  26
HETATM   26  C   UNL     1      -7.465   8.868  67.784  1.00  0.00    -0.093 C  
BRANCH  26  27
HETATM   27  O   UNL     1      -7.141   7.693  68.524  1.00  0.00    -0.076 OA 
BRANCH  27  28
HETATM   28  C   UNL     1      -7.953   7.578  69.690  1.00  0.00    -0.125 C  
BRANCH  28  29
HETATM   29  C   UNL     1      -7.356   8.434  70.796  1.00  0.00    -0.060 C  
BRANCH  29  30
HETATM   30  O   UNL     1      -7.843   9.767  70.661  1.00  0.00    -0.277 OA 
BRANCH  30  31
HETATM   31  C   UNL     1      -9.145   9.783  70.081  1.00  0.00    -0.197 C  
BRANCH  31  32
HETATM   32  C   UNL     1     -10.169   9.455  71.157  1.00  0.00    -0.291 C  
BRANCH  32  33
HETATM   33  O   UNL     1     -11.476   9.643  70.622  1.00  0.00    -0.268 OA 
BRANCH  33  34
HETATM   34  C   UNL     1     -12.466   9.540  71.641  1.00  0.00    -0.391 C  
BRANCH  34  35
HETATM   35  C   UNL     1     -12.209   8.280  72.455  1.00  0.00    -0.352 C  
BRANCH  35  36
HETATM   36  O   UNL     1     -12.807   7.170  71.792  1.00  0.00    -0.345 OA 
BRANCH  36  37
HETATM   37  C   UNL     1     -11.825   6.218  71.391  1.00  0.00    -0.205 C  
BRANCH  37  38
HETATM   38  C   UNL     1     -11.082   5.724  72.624  1.00  0.00    -0.280 C  
BRANCH  38  39
HETATM   39  O   UNL     1      -9.701   6.052  72.498  1.00  0.00    -0.158 OA 
BRANCH  39  40
HETATM   40  C   UNL     1      -8.895   5.228  73.340  1.00  0.00    -0.113 C  
BRANCH  40  41
HETATM   41  C   UNL     1      -7.927   6.108  74.118  1.00  0.00    -0.098 C  
BRANCH  41  42
HETATM   42  O   UNL     1      -6.643   5.486  74.148  1.00  0.00    -0.072 OA 
HETATM   43  C   UNL     1      -5.911   5.755  72.960  1.00  0.00    -0.040 C  
ENDBRANCH  41  42
ENDBRANCH  40  41
ENDBRANCH  39  40
ENDBRANCH  38  39
ENDBRANCH  37  38
ENDBRANCH  36  37
ENDBRANCH  35  36
ENDBRANCH  34  35
ENDBRANCH  33  34
ENDBRANCH  32  33
ENDBRANCH  31  32
ENDBRANCH  30  31
ENDBRANCH  29  30
ENDBRANCH  28  29
ENDBRANCH  27  28
ENDBRANCH  26  27
ENDBRANCH  25  26
ENDBRANCH  24  25
ENDBRANCH  23  24
ENDBRANCH  22  23
ENDBRANCH  21  22
ENDBRANCH  20  21
ENDBRANCH  19  20
ENDBRANCH  18  19
ENDBRANCH  17  18
ENDBRANCH  16  17
ENDBRANCH  15  16
ENDBRANCH  13  15
ENDBRANCH  10  13
ENDBRANCH   5   7
ENDBRANCH   4   5
ENDBRANCH   3   4
ENDBRANCH   2   3
TORSDOF 33
ENDMDL
MODEL      208
REMARK 921   NORMALIZED FREE ENERGY PREDICTED BY IDOCK:   -1.37 KCAL/MOL
REMARK 922        TOTAL FREE ENERGY PREDICTED BY IDOCK:   -6.82 KCAL/MOL
REMARK 923 INTER-LIGAND FREE ENERGY PREDICTED BY IDOCK:   -8.16 KCAL/MOL
REMARK 924 INTRA-LIGAND FREE ENERGY PREDICTED BY IDOCK:    1.34 KCAL/MOL
REMARK 927      BINDING AFFINITY PREDICTED BY RF-SCORE:    0.00 PKD
ROOT
HETATM    1  C   UNL     1      -5.253   3.609  70.868  1.00  0.00    -0.004 C  
HETATM    2  C   UNL     1      -5.573   2.719  69.682  1.00  0.00    -0.017 C  
ENDROOT
BRANCH   2   3
HETATM    3  C   UNL     1      -5.317   3.421  68.346  1.00  0.00    -0.013 C  
BRANCH   3   4
HETATM    4  C   UNL     1      -5.570   4.917  68.501  1.00  0.00    -0.016 C  
BRANCH   4   5
HETATM    5  N   UNL     1      -6.994   5.231  68.458  1.00  0.00    -0.056 NA 
HETATM    6  H   UNL     1      -7.692   4.551  68.759  1.00  0.00     0.000 HD 
BRANCH   5   7
HETATM    7  C   UNL     1      -7.371   6.499  67.987  1.00  0.00    -0.090 A  
HETATM    8  C   UNL     1      -6.520   7.321  67.236  1.00  0.00    -0.059 A  
HETATM    9  C   UNL     1      -6.899   8.606  66.850  1.00  0.00    -0.070 A  
HETATM   10  C   UNL     1      -8.137   9.124  67.235  1.00  0.00    -0.106 A  
HETATM   11  C   UNL     1      -8.604   7.035  68.385  1.00  0.00    -0.126 A  
HETATM   12  C   UNL     1      -8.992   8.333  68.011  1.00  0.00    -0.138 A  
BRANCH  10  13
HETATM   13  C   UNL     1      -8.454  10.513  66.814  1.00  0.00    -0.127 C  
HETATM   14  O   UNL     1      -8.696  11.413  67.605  1.00  0.00    -0.132 OA 
BRANCH  13  15
HETATM   15  O   UNL     1      -8.467  10.626  65.466  1.00  0.00    -0.173 OA 
BRANCH  15  16
HETATM   16  C   UNL     1      -9.129  11.804  64.970  1.00  0.00     0.219 C  
BRANCH  16  17
HETATM   17  C   UNL     1      -9.816  11.532  63.631  1.00  0.00    -0.353 C  
BRANCH  17  18
HETATM   18  O   UNL     1     -11.173  11.145  63.868  1.00  0.00    -0.279 OA 
BRANCH  18  19
HETATM   19  C   UNL     1     -12.084  12.123  63.371  1.00  0.00    -0.507 C  
BRANCH  19  20
HETATM   20  C   UNL     1     -12.879  12.712  64.528  1.00  0.00    -0.270 C  
BRANCH  20  21
HETATM   21  O   UNL     1     -12.309  12.267  65.758  1.00  0.00    -0.622 OA 
BRANCH  21  22
HETATM   22  C   UNL     1     -11.697  13.341  66.467  1.00  0.00    -0.377 C  
BRANCH  22  23
HETATM   23  C   UNL     1     -12.240  14.663  65.938  1.00  0.00    -0.156 C  
BRANCH  23  24
HETATM   24  O   UNL     1     -11.307  15.701  66.229  1.00  0.00    -0.120 OA 
BRANCH  24  25
HETATM   25  C   UNL     1     -10.063  15.167  66.676  1.00  0.00    -0.264 C  
BRANCH  25  26
HETATM   26  C   UNL     1      -8.938  15.754  65.835  1.00  0.00    -0.193 C  
BRANCH  26  27
HETATM   27  O   UNL     1      -8.925  17.169  66.001  1.00  0.00    -0.481 OA 
BRANCH  27  28
HETATM   28  C   UNL     1     -10.239  17.674  66.226  1.00  0.00    -0.362 C  
BRANCH  28  29
HETATM   29  C   UNL     1     -10.192  19.195  66.224  1.00  0.00    -0.452 C  
BRANCH  29  30
HETATM   30  O   UNL     1      -9.455  19.634  67.361  1.00  0.00    -0.305 OA 
BRANCH  30  31
HETATM   31  C   UNL     1      -9.217  18.560  68.267  1.00  0.00    -0.321 C  
BRANCH  31  32
HETATM   32  C   UNL     1     -10.540  18.128  68.880  1.00  0.00     0.108 C  
BRANCH  32  33
HETATM   33  O   UNL     1     -10.323  16.966  69.674  1.00  0.00    -0.231 OA 
BRANCH  33  34
HETATM   34  C   UNL     1     -11.223  16.924  70.778  1.00  0.00     0.517 C  
BRANCH  34  35
HETATM   35  C   UNL     1     -11.559  15.473  71.086  1.00  0.00    -0.397 C  
BRANCH  35  36
HETATM   36  O   UNL     1     -12.429  15.428  72.215  1.00  0.00    -0.322 OA 
BRANCH  36  37
HETATM   37  C   UNL     1     -12.451  14.127  72.797  1.00  0.00    -0.057 C  
BRANCH  37  38
HETATM   38  C   UNL     1     -13.690  13.388  72.312  1.00  0.00    -0.607 C  
BRANCH  38  39
HETATM   39  O   UNL     1     -13.423  12.819  71.033  1.00  0.00     0.149 OA 
BRANCH  39  40
HETATM   40  C   UNL     1     -12.357  11.872  71.102  1.00  0.00    -0.198 C  
BRANCH  40  41
HETATM   41  C   UNL     1     -12.937  10.488  71.356  1.00  0.00    -0.440 C  
BRANCH  41  42
HETATM   42  O   UNL     1     -11.893   9.605  71.763  1.00  0.00    -0.386 OA 
HETATM   43  C   UNL     1     -12.414   8.445  72.396  1.00  0.00    -0.331 C  
ENDBRANCH  41  42
ENDBRANCH  40  41
ENDBRANCH  39  40
ENDBRANCH  38  39
ENDBRANCH  37  38
ENDBRANCH  36  37
ENDBRANCH  35  36
ENDBRANCH  34  35
ENDBRANCH  33  34
ENDBRANCH  32  33
ENDBRANCH  31  32
ENDBRANCH  30  31
ENDBRANCH  29  30
ENDBRANCH  28  29
ENDBRANCH  27  28
ENDBRANCH  26  27
ENDBRANCH  25  26
ENDBRANCH  24  25
ENDBRANCH  23  24
ENDBRANCH  22  23
ENDBRANCH  21  22
ENDBRANCH  20  21
ENDBRANCH  19  20
ENDBRANCH  18  19
ENDBRANCH  17  18
ENDBRANCH  16  17
ENDBRANCH  15  16
ENDBRANCH  13  15
ENDBRANCH  10  13
ENDBRANCH   5   7
ENDBRANCH   4   5
ENDBRANCH   3   4
ENDBRANCH   2   3
TORSDOF 33
ENDMDL
MODEL      209
REMARK 921   NORMALIZED FREE ENERGY PREDICTED BY IDOCK:   -1.37 KCAL/MOL
REMARK 922        TOTAL FREE ENERGY PREDICTED BY IDOCK:   -6.80 KCAL/MOL
REMARK 923 INTER-LIGAND FREE ENERGY PREDICTED BY IDOCK:   -8.57 KCAL/MOL
REMARK 924 INTRA-LIGAND FREE ENERGY PREDICTED BY IDOCK:    1.77 KCAL/MOL
REMARK 927      BINDING AFFINITY PREDICTED BY RF-SCORE:    0.00 PKD
ROOT
HETATM    1  C   UNL     1      -9.359   4.394  62.850  1.00  0.00    -0.117 C  
HETATM    2  C   UNL     1      -9.956   3.818  64.119  1.00  0.00    -0.193 C  
ENDROOT
BRANCH   2   3
HETATM    3  C   UNL     1      -9.676   4.697  65.341  1.00  0.00    -0.174 C  
BRANCH   3   4
HETATM    4  C   UNL     1     -10.174   3.994  66.599  1.00  0.00     0.260 C  
BRANCH   4   5
HETATM    5  N   UNL     1      -9.105   3.810  67.573  1.00  0.00    -0.144 NA 
HETATM    6  H   UNL     1      -8.367   3.122  67.422  1.00  0.00     0.000 HD 
BRANCH   5   7
HETATM    7  C   UNL     1      -9.124   4.611  68.726  1.00  0.00    -0.116 A  
HETATM    8  C   UNL     1      -9.752   4.223  69.917  1.00  0.00    -0.291 A  
HETATM    9  C   UNL     1      -9.819   5.076  71.019  1.00  0.00    -0.266 A  
HETATM   10  C   UNL     1      -9.284   6.364  70.950  1.00  0.00    -0.161 A  
HETATM   11  C   UNL     1      -8.606   5.913  68.661  1.00  0.00    -0.110 A  
HETATM   12  C   UNL     1      -8.677   6.784  69.761  1.00  0.00    -0.141 A  
BRANCH  10  13
HETATM   13  C   UNL     1      -9.424   7.223  72.154  1.00  0.00    -0.135 C  
HETATM   14  O   UNL     1     -10.237   7.006  73.040  1.00  0.00    -0.194 OA 
BRANCH  13  15
HETATM   15  O   UNL     1      -8.567   8.269  72.112  1.00  0.00    -0.154 OA 
BRANCH  15  16
HETATM   16  C   UNL     1      -8.577   9.005  70.875  1.00  0.00    -0.215 C  
BRANCH  16  17
HETATM   17  C   UNL     1      -9.885   9.776  70.699  1.00  0.00    -0.102 C  
BRANCH  17  18
HETATM   18  O   UNL     1      -9.923  10.345  69.386  1.00  0.00    -0.216 OA 
BRANCH  18  19
HETATM   19  C   UNL     1      -8.615  10.452  68.829  1.00  0.00    -0.141 C  
BRANCH  19  20
HETATM   20  C   UNL     1      -8.656  10.065  67.357  1.00  0.00    -0.125 C  
BRANCH  20  21
HETATM   21  O   UNL     1      -9.963  10.322  66.845  1.00  0.00    -0.191 OA 
BRANCH  21  22
HETATM   22  C   UNL     1      -9.934  10.561  65.440  1.00  0.00    -0.289 C  
BRANCH  22  23
HETATM   23  C   UNL     1      -9.673  12.041  65.191  1.00  0.00    -0.144 C  
BRANCH  23  24
HETATM   24  O   UNL     1     -10.721  12.806  65.782  1.00  0.00    -0.265 OA 
BRANCH  24  25
HETATM   25  C   UNL     1     -11.347  12.090  66.844  1.00  0.00    -0.341 C  
BRANCH  25  26
HETATM   26  C   UNL     1     -12.253  13.039  67.617  1.00  0.00    -0.050 C  
BRANCH  26  27
HETATM   27  O   UNL     1     -12.136  14.346  67.063  1.00  0.00    -0.418 OA 
BRANCH  27  28
HETATM   28  C   UNL     1     -11.772  15.298  68.060  1.00  0.00    -0.251 C  
BRANCH  28  29
HETATM   29  C   UNL     1     -11.117  14.570  69.224  1.00  0.00    -0.270 C  
BRANCH  29  30
HETATM   30  O   UNL     1      -9.792  15.066  69.392  1.00  0.00    -0.211 OA 
BRANCH  30  31
HETATM   31  C   UNL     1      -8.939  14.621  68.341  1.00  0.00    -0.180 C  
BRANCH  31  32
HETATM   32  C   UNL     1      -7.492  14.863  68.742  1.00  0.00    -0.132 C  
BRANCH  32  33
HETATM   33  O   UNL     1      -6.819  15.518  67.672  1.00  0.00    -0.149 OA 
BRANCH  33  34
HETATM   34  C   UNL     1      -7.451  16.752  67.347  1.00  0.00    -0.161 C  
BRANCH  34  35
HETATM   35  C   UNL     1      -6.843  17.295  66.062  1.00  0.00    -0.100 C  
BRANCH  35  36
HETATM   36  O   UNL     1      -7.569  18.454  65.660  1.00  0.00    -0.522 OA 
BRANCH  36  37
HETATM   37  C   UNL     1      -6.690  19.533  65.353  1.00  0.00    -0.279 C  
BRANCH  37  38
HETATM   38  C   UNL     1      -6.866  20.627  66.397  1.00  0.00    -0.234 C  
BRANCH  38  39
HETATM   39  O   UNL     1      -7.736  20.157  67.423  1.00  0.00    -0.281 OA 
BRANCH  39  40
HETATM   40  C   UNL     1      -8.988  20.840  67.393  1.00  0.00    -0.146 C  
BRANCH  40  41
HETATM   41  C   UNL     1      -9.942  20.089  66.474  1.00  0.00    -0.479 C  
BRANCH  41  42
HETATM   42  O   UNL     1     -10.534  19.007  67.190  1.00  0.00    -0.390 OA 
HETATM   43  C   UNL     1     -10.192  19.051  68.569  1.00  0.00    -0.351 C  
ENDBRANCH  41  42
ENDBRANCH  40  41
ENDBRANCH  39  40
ENDBRANCH  38  39
ENDBRANCH  37  38
ENDBRANCH  36  37
ENDBRANCH  35  36
ENDBRANCH  34  35
ENDBRANCH  33  34
ENDBRANCH  32  33
ENDBRANCH  31  32
ENDBRANCH  30  31
ENDBRANCH  29  30
ENDBRANCH  28  29
ENDBRANCH  27  28
ENDBRANCH  26  27
ENDBRANCH  25  26
ENDBRANCH  24  25
ENDBRANCH  23  24
ENDBRANCH  22  23
ENDBRANCH  21  22
ENDBRANCH  20  21
ENDBRANCH  19  20
ENDBRANCH  18  19
ENDBRANCH  17  18
ENDBRANCH  16  17
ENDBRANCH  15  16
ENDBRANCH  13  15
ENDBRANCH  10  13
ENDBRANCH   5   7
ENDBRANCH   4   5
ENDBRANCH   3   4
ENDBRANCH   2   3
TORSDOF 33
ENDMDL
MODEL      210
REMARK 921   NORMALIZED FREE ENERGY PREDICTED BY IDOCK:   -1.20 KCAL/MOL
REMARK 922        TOTAL FREE ENERGY PREDICTED BY IDOCK:   -6.31 KCAL/MOL
REMARK 923 INTER-LIGAND FREE ENERGY PREDICTED BY IDOCK:   -5.36 KCAL/MOL
REMARK 924 INTRA-LIGAND FREE ENERGY PREDICTED BY IDOCK:   -0.95 KCAL/MOL
REMARK 927      BINDING AFFINITY PREDICTED BY RF-SCORE:    0.00 PKD
ROOT
HETATM    1  C   UNL     1      -7.947   8.177  65.692  1.00  0.00    -0.108 C  
HETATM    2  C   UNL     1      -9.177   9.033  65.455  1.00  0.00    -0.262 C  
ENDROOT
BRANCH   2   3
HETATM    3  C   UNL     1     -10.345   8.627  66.357  1.00  0.00    -0.127 C  
BRANCH   3   4
HETATM    4  C   UNL     1      -9.980   8.893  67.814  1.00  0.00    -0.192 C  
BRANCH   4   5
HETATM    5  N   UNL     1      -8.852   8.075  68.245  1.00  0.00    -0.133 NA 
HETATM    6  H   UNL     1      -8.576   7.242  67.725  1.00  0.00     0.000 HD 
BRANCH   5   7
HETATM    7  C   UNL     1      -8.159   8.471  69.400  1.00  0.00    -0.112 A  
HETATM    8  C   UNL     1      -6.837   8.935  69.378  1.00  0.00    -0.049 A  
HETATM    9  C   UNL     1      -6.153   9.248  70.552  1.00  0.00    -0.050 A  
HETATM   10  C   UNL     1      -6.765   9.074  71.795  1.00  0.00    -0.003 A  
HETATM   11  C   UNL     1      -8.759   8.283  70.654  1.00  0.00    -0.144 A  
HETATM   12  C   UNL     1      -8.075   8.585  71.844  1.00  0.00    -0.185 A  
BRANCH  10  13
HETATM   13  C   UNL     1      -5.960   9.397  73.001  1.00  0.00     0.264 C  
HETATM   14  O   UNL     1      -5.170  10.329  73.047  1.00  0.00    -0.319 OA 
BRANCH  13  15
HETATM   15  O   UNL     1      -6.197   8.518  74.000  1.00  0.00    -0.120 OA 
BRANCH  15  16
HETATM   16  C   UNL     1      -5.639   7.208  73.792  1.00  0.00    -0.050 C  
BRANCH  16  17
HETATM   17  C   UNL     1      -6.488   6.128  74.463  1.00  0.00    -0.074 C  
BRANCH  17  18
HETATM   18  O   UNL     1      -6.451   4.938  73.669  1.00  0.00    -0.056 OA 
BRANCH  18  19
HETATM   19  C   UNL     1      -7.653   4.777  72.920  1.00  0.00    -0.092 C  
BRANCH  19  20
HETATM   20  C   UNL     1      -8.827   5.327  73.718  1.00  0.00    -0.118 C  
BRANCH  20  21
HETATM   21  O   UNL     1      -9.571   6.224  72.894  1.00  0.00    -0.154 OA 
BRANCH  21  22
HETATM   22  C   UNL     1     -10.650   5.558  72.241  1.00  0.00    -0.224 C  
BRANCH  22  23
HETATM   23  C   UNL     1     -11.778   5.336  73.241  1.00  0.00     0.043 C  
BRANCH  23  24
HETATM   24  O   UNL     1     -13.020   5.672  72.625  1.00  0.00     0.218 OA 
BRANCH  24  25
HETATM   25  C   UNL     1     -12.818   6.238  71.332  1.00  0.00     0.494 C  
BRANCH  25  26
HETATM   26  C   UNL     1     -13.911   7.263  71.063  1.00  0.00     0.048 C  
BRANCH  26  27
HETATM   27  O   UNL     1     -13.993   8.155  72.170  1.00  0.00    -0.328 OA 
BRANCH  27  28
HETATM   28  C   UNL     1     -12.814   8.947  72.283  1.00  0.00    -0.411 C  
BRANCH  28  29
HETATM   29  C   UNL     1     -12.261   9.215  70.891  1.00  0.00    -0.183 C  
BRANCH  29  30
HETATM   30  O   UNL     1     -11.556  10.453  70.905  1.00  0.00    -0.340 OA 
BRANCH  30  31
HETATM   31  C   UNL     1     -12.413  11.529  71.278  1.00  0.00    -0.293 C  
BRANCH  31  32
HETATM   32  C   UNL     1     -12.781  12.322  70.034  1.00  0.00     0.339 C  
BRANCH  32  33
HETATM   33  O   UNL     1     -11.603  12.548  69.265  1.00  0.00    -0.284 OA 
BRANCH  33  34
HETATM   34  C   UNL     1     -11.596  13.860  68.709  1.00  0.00    -0.335 C  
BRANCH  34  35
HETATM   35  C   UNL     1     -11.178  13.775  67.249  1.00  0.00    -0.311 C  
BRANCH  35  36
HETATM   36  O   UNL     1     -10.420  14.935  66.915  1.00  0.00    -0.271 OA 
BRANCH  36  37
HETATM   37  C   UNL     1      -9.021  14.687  67.029  1.00  0.00    -0.240 C  
BRANCH  37  38
HETATM   38  C   UNL     1      -8.296  16.015  67.196  1.00  0.00    -0.199 C  
BRANCH  38  39
HETATM   39  O   UNL     1      -8.169  16.641  65.922  1.00  0.00    -0.405 OA 
BRANCH  39  40
HETATM   40  C   UNL     1      -8.244  18.061  66.035  1.00  0.00    -0.054 C  
BRANCH  40  41
HETATM   41  C   UNL     1      -8.871  18.422  67.374  1.00  0.00    -0.257 C  
BRANCH  41  42
HETATM   42  O   UNL     1      -9.981  19.291  67.158  1.00  0.00    -0.326 OA 
HETATM   43  C   UNL     1     -11.153  18.802  67.796  1.00  0.00     0.045 C  
ENDBRANCH  41  42
ENDBRANCH  40  41
ENDBRANCH  39  40
ENDBRANCH  38  39
ENDBRANCH  37  38
ENDBRANCH  36  37
ENDBRANCH  35  36
ENDBRANCH  34  35
ENDBRANCH  33  34
ENDBRANCH  32  33
ENDBRANCH  31  32
ENDBRANCH  30  31
ENDBRANCH  29  30
ENDBRANCH  28  29
ENDBRANCH  27  28
ENDBRANCH  26  27
ENDBRANCH  25  26
ENDBRANCH  24  25
ENDBRANCH  23  24
ENDBRANCH  22  23
ENDBRANCH  21  22
ENDBRANCH  20  21
ENDBRANCH  19  20
ENDBRANCH  18  19
ENDBRANCH  17  18
ENDBRANCH  16  17
ENDBRANCH  15  16
ENDBRANCH  13  15
ENDBRANCH  10  13
ENDBRANCH   5   7
ENDBRANCH   4   5
ENDBRANCH   3   4
ENDBRANCH   2   3
TORSDOF 33
ENDMDL
MODEL      211
REMARK 921   NORMALIZED FREE ENERGY PREDICTED BY IDOCK:   -1.13 KCAL/MOL
REMARK 922        TOTAL FREE ENERGY PREDICTED BY IDOCK:   -6.12 KCAL/MOL
REMARK 923 INTER-LIGAND FREE ENERGY PREDICTED BY IDOCK:   -5.65 KCAL/MOL
REMARK 924 INTRA-LIGAND FREE ENERGY PREDICTED BY IDOCK:   -0.47 KCAL/MOL
REMARK 927      BINDING AFFINITY PREDICTED BY RF-SCORE:    0.00 PKD
ROOT
HETATM    1  C   UNL     1      -8.626   7.276  62.628  1.00  0.00     0.280 C  
HETATM    2  C   UNL     1      -7.709   6.290  63.327  1.00  0.00    -0.098 C  
ENDROOT
BRANCH   2   3
HETATM    3  C   UNL     1      -6.536   6.985  64.022  1.00  0.00    -0.043 C  
BRANCH   3   4
HETATM    4  C   UNL     1      -5.700   7.730  62.987  1.00  0.00    -0.055 C  
BRANCH   4   5
HETATM    5  N   UNL     1      -5.172   8.981  63.521  1.00  0.00    -0.062 NA 
HETATM    6  H   UNL     1      -4.280   9.357  63.197  1.00  0.00     0.000 HD 
BRANCH   5   7
HETATM    7  C   UNL     1      -5.931   9.650  64.494  1.00  0.00    -0.086 A  
HETATM    8  C   UNL     1      -7.248  10.077  64.277  1.00  0.00    -0.133 A  
HETATM    9  C   UNL     1      -7.947  10.807  65.239  1.00  0.00     0.009 A  
HETATM   10  C   UNL     1      -7.333  11.163  66.441  1.00  0.00    -0.099 A  
HETATM   11  C   UNL     1      -5.317  10.028  65.698  1.00  0.00    -0.055 A  
HETATM   12  C   UNL     1      -6.008  10.773  66.668  1.00  0.00    -0.089 A  
BRANCH  10  13
HETATM   13  C   UNL     1      -8.131  11.969  67.400  1.00  0.00    -0.168 C  
HETATM   14  O   UNL     1      -7.684  12.941  67.991  1.00  0.00    -0.118 OA 
BRANCH  13  15
HETATM   15  O   UNL     1      -9.379  11.467  67.544  1.00  0.00    -0.163 OA 
BRANCH  15  16
HETATM   16  C   UNL     1     -10.403  12.457  67.753  1.00  0.00    -0.216 C  
BRANCH  16  17
HETATM   17  C   UNL     1     -11.786  11.814  67.850  1.00  0.00    -0.276 C  
BRANCH  17  18
HETATM   18  O   UNL     1     -11.639  10.421  68.146  1.00  0.00    -0.355 OA 
BRANCH  18  19
HETATM   19  C   UNL     1     -10.545  10.193  69.033  1.00  0.00    -0.223 C  
BRANCH  19  20
HETATM   20  C   UNL     1     -10.984   9.257  70.150  1.00  0.00    -0.246 C  
BRANCH  20  21
HETATM   21  O   UNL     1     -11.398  10.034  71.273  1.00  0.00    -0.357 OA 
BRANCH  21  22
HETATM   22  C   UNL     1     -12.682   9.629  71.742  1.00  0.00    -0.420 C  
BRANCH  22  23
HETATM   23  C   UNL     1     -12.534   8.356  72.565  1.00  0.00    -0.277 C  
BRANCH  23  24
HETATM   24  O   UNL     1     -11.150   8.124  72.821  1.00  0.00    -0.382 OA 
BRANCH  24  25
HETATM   25  C   UNL     1     -10.865   6.728  72.891  1.00  0.00    -0.272 C  
BRANCH  25  26
HETATM   26  C   UNL     1     -10.270   6.410  74.255  1.00  0.00    -0.344 C  
BRANCH  26  27
HETATM   27  O   UNL     1      -9.248   5.429  74.097  1.00  0.00    -0.121 OA 
BRANCH  27  28
HETATM   28  C   UNL     1      -9.742   4.274  73.423  1.00  0.00    -0.121 C  
BRANCH  28  29
HETATM   29  C   UNL     1      -9.014   3.045  73.947  1.00  0.00    -0.075 C  
BRANCH  29  30
HETATM   30  O   UNL     1      -8.936   2.076  72.905  1.00  0.00    -0.066 OA 
BRANCH  30  31
HETATM   31  C   UNL     1      -7.610   1.572  72.769  1.00  0.00    -0.035 C  
BRANCH  31  32
HETATM   32  C   UNL     1      -6.857   2.428  71.762  1.00  0.00    -0.023 C  
BRANCH  32  33
HETATM   33  O   UNL     1      -5.697   1.722  71.332  1.00  0.00    -0.008 OA 
BRANCH  33  34
HETATM   34  C   UNL     1      -5.135   2.320  70.168  1.00  0.00    -0.004 C  
BRANCH  34  35
HETATM   35  C   UNL     1      -6.194   3.178  69.493  1.00  0.00    -0.028 C  
BRANCH  35  36
HETATM   36  O   UNL     1      -5.921   3.237  68.095  1.00  0.00    -0.025 OA 
BRANCH  36  37
HETATM   37  C   UNL     1      -6.316   4.491  67.545  1.00  0.00    -0.041 C  
BRANCH  37  38
HETATM   38  C   UNL     1      -7.073   5.280  68.604  1.00  0.00    -0.061 C  
BRANCH  38  39
HETATM   39  O   UNL     1      -8.359   5.627  68.098  1.00  0.00    -0.100 OA 
BRANCH  39  40
HETATM   40  C   UNL     1      -8.559   5.098  66.788  1.00  0.00    -0.109 C  
BRANCH  40  41
HETATM   41  C   UNL     1      -9.890   5.600  66.246  1.00  0.00    -0.123 C  
BRANCH  41  42
HETATM   42  O   UNL     1     -10.716   4.486  65.913  1.00  0.00    -0.267 OA 
HETATM   43  C   UNL     1     -10.494   4.060  64.576  1.00  0.00    -0.197 C  
ENDBRANCH  41  42
ENDBRANCH  40  41
ENDBRANCH  39  40
ENDBRANCH  38  39
ENDBRANCH  37  38
ENDBRANCH  36  37
ENDBRANCH  35  36
ENDBRANCH  34  35
ENDBRANCH  33  34
ENDBRANCH  32  33
ENDBRANCH  31  32
ENDBRANCH  30  31
ENDBRANCH  29  30
ENDBRANCH  28  29
ENDBRANCH  27  28
ENDBRANCH  26  27
ENDBRANCH  25  26
ENDBRANCH  24  25
ENDBRANCH  23  24
ENDBRANCH  22  23
ENDBRANCH  21  22
ENDBRANCH  20  21
ENDBRANCH  19  20
ENDBRANCH  18  19
ENDBRANCH  17  18
ENDBRANCH  16  17
ENDBRANCH  15  16
ENDBRANCH  13  15
ENDBRANCH  10  13
ENDBRANCH   5   7
ENDBRANCH   4   5
ENDBRANCH   3   4
ENDBRANCH   2   3
TORSDOF 33
ENDMDL
MODEL      212
REMARK 921   NORMALIZED FREE ENERGY PREDICTED BY IDOCK:   -1.13 KCAL/MOL
REMARK 922        TOTAL FREE ENERGY PREDICTED BY IDOCK:   -6.12 KCAL/MOL
REMARK 923 INTER-LIGAND FREE ENERGY PREDICTED BY IDOCK:   -6.73 KCAL/MOL
REMARK 924 INTRA-LIGAND FREE ENERGY PREDICTED BY IDOCK:    0.61 KCAL/MOL
REMARK 927      BINDING AFFINITY PREDICTED BY RF-SCORE:    0.00 PKD
ROOT
HETATM    1  C   UNL     1      -9.122   4.182  63.322  1.00  0.00    -0.128 C  
HETATM    2  C   UNL     1      -9.489   3.356  64.540  1.00  0.00    -0.149 C  
ENDROOT
BRANCH   2   3
HETATM    3  C   UNL     1      -8.947   3.965  65.835  1.00  0.00    -0.132 C  
BRANCH   3   4
HETATM    4  C   UNL     1      -9.221   3.016  66.997  1.00  0.00    -0.163 C  
BRANCH   4   5
HETATM    5  N   UNL     1      -7.994   2.648  67.694  1.00  0.00    -0.067 NA 
HETATM    6  H   UNL     1      -7.478   1.805  67.443  1.00  0.00     0.000 HD 
BRANCH   5   7
HETATM    7  C   UNL     1      -7.547   3.494  68.722  1.00  0.00    -0.053 A  
HETATM    8  C   UNL     1      -7.899   3.317  70.067  1.00  0.00    -0.050 A  
HETATM    9  C   UNL     1      -7.499   4.219  71.052  1.00  0.00    -0.048 A  
HETATM   10  C   UNL     1      -6.758   5.353  70.714  1.00  0.00    -0.047 A  
HETATM   11  C   UNL     1      -6.818   4.646  68.390  1.00  0.00    -0.051 A  
HETATM   12  C   UNL     1      -6.419   5.567  69.373  1.00  0.00    -0.042 A  
BRANCH  10  13
HETATM   13  C   UNL     1      -6.400   6.285  71.814  1.00  0.00    -0.046 C  
HETATM   14  O   UNL     1      -6.883   6.214  72.934  1.00  0.00    -0.072 OA 
BRANCH  13  15
HETATM   15  O   UNL     1      -5.510   7.215  71.399  1.00  0.00    -0.031 OA 
BRANCH  15  16
HETATM   16  C   UNL     1      -5.848   7.857  70.156  1.00  0.00    -0.023 C  
BRANCH  16  17
HETATM   17  C   UNL     1      -7.065   8.768  70.315  1.00  0.00    -0.045 C  
BRANCH  17  18
HETATM   18  O   UNL     1      -7.498   9.206  69.023  1.00  0.00    -0.072 OA 
BRANCH  18  19
HETATM   19  C   UNL     1      -6.535   8.890  68.020  1.00  0.00    -0.057 C  
BRANCH  19  20
HETATM   20  C   UNL     1      -7.233   8.239  66.833  1.00  0.00    -0.083 C  
BRANCH  20  21
HETATM   21  O   UNL     1      -8.543   8.789  66.705  1.00  0.00    -0.109 OA 
BRANCH  21  22
HETATM   22  C   UNL     1      -8.921   8.920  65.336  1.00  0.00    -0.182 C  
BRANCH  22  23
HETATM   23  C   UNL     1      -8.452  10.272  64.815  1.00  0.00    -0.174 C  
BRANCH  23  24
HETATM   24  O   UNL     1      -9.420  11.264  65.152  1.00  0.00    -0.219 OA 
BRANCH  24  25
HETATM   25  C   UNL     1     -10.369  10.760  66.090  1.00  0.00    -0.239 C  
BRANCH  25  26
HETATM   26  C   UNL     1     -11.309  11.886  66.498  1.00  0.00    -0.341 C  
BRANCH  26  27
HETATM   27  O   UNL     1     -10.911  13.085  65.839  1.00  0.00    -0.270 OA 
BRANCH  27  28
HETATM   28  C   UNL     1     -10.744  14.153  66.768  1.00  0.00    -0.286 C  
BRANCH  28  29
HETATM   29  C   UNL     1     -10.485  13.572  68.150  1.00  0.00    -0.244 C  
BRANCH  29  30
HETATM   30  O   UNL     1      -9.243  14.074  68.636  1.00  0.00    -0.189 OA 
BRANCH  30  31
HETATM   31  C   UNL     1      -8.168  13.708  67.776  1.00  0.00    -0.179 C  
BRANCH  31  32
HETATM   32  C   UNL     1      -6.864  13.782  68.556  1.00  0.00    -0.097 C  
BRANCH  32  33
HETATM   33  O   UNL     1      -5.999  14.719  67.921  1.00  0.00    -0.141 OA 
BRANCH  33  34
HETATM   34  C   UNL     1      -6.638  15.982  67.765  1.00  0.00    -0.154 C  
BRANCH  34  35
HETATM   35  C   UNL     1      -5.653  16.959  67.138  1.00  0.00    -0.162 C  
BRANCH  35  36
HETATM   36  O   UNL     1      -6.357  18.129  66.729  1.00  0.00    -0.169 OA 
BRANCH  36  37
HETATM   37  C   UNL     1      -5.898  19.279  67.433  1.00  0.00    -0.182 C  
BRANCH  37  38
HETATM   38  C   UNL     1      -7.027  19.809  68.306  1.00  0.00    -0.298 C  
BRANCH  38  39
HETATM   39  O   UNL     1      -8.161  18.957  68.170  1.00  0.00    -0.282 OA 
BRANCH  39  40
HETATM   40  C   UNL     1      -9.290  19.675  67.673  1.00  0.00    -0.338 C  
BRANCH  40  41
HETATM   41  C   UNL     1      -9.296  19.602  66.152  1.00  0.00    -0.351 C  
BRANCH  41  42
HETATM   42  O   UNL     1      -9.959  18.409  65.738  1.00  0.00    -0.523 OA 
HETATM   43  C   UNL     1     -10.576  17.753  66.838  1.00  0.00    -0.244 C  
ENDBRANCH  41  42
ENDBRANCH  40  41
ENDBRANCH  39  40
ENDBRANCH  38  39
ENDBRANCH  37  38
ENDBRANCH  36  37
ENDBRANCH  35  36
ENDBRANCH  34  35
ENDBRANCH  33  34
ENDBRANCH  32  33
ENDBRANCH  31  32
ENDBRANCH  30  31
ENDBRANCH  29  30
ENDBRANCH  28  29
ENDBRANCH  27  28
ENDBRANCH  26  27
ENDBRANCH  25  26
ENDBRANCH  24  25
ENDBRANCH  23  24
ENDBRANCH  22  23
ENDBRANCH  21  22
ENDBRANCH  20  21
ENDBRANCH  19  20
ENDBRANCH  18  19
ENDBRANCH  17  18
ENDBRANCH  16  17
ENDBRANCH  15  16
ENDBRANCH  13  15
ENDBRANCH  10  13
ENDBRANCH   5   7
ENDBRANCH   4   5
ENDBRANCH   3   4
ENDBRANCH   2   3
TORSDOF 33
ENDMDL
MODEL      213
REMARK 921   NORMALIZED FREE ENERGY PREDICTED BY IDOCK:   -1.09 KCAL/MOL
REMARK 922        TOTAL FREE ENERGY PREDICTED BY IDOCK:   -5.99 KCAL/MOL
REMARK 923 INTER-LIGAND FREE ENERGY PREDICTED BY IDOCK:   -7.08 KCAL/MOL
REMARK 924 INTRA-LIGAND FREE ENERGY PREDICTED BY IDOCK:    1.09 KCAL/MOL
REMARK 927      BINDING AFFINITY PREDICTED BY RF-SCORE:    0.00 PKD
ROOT
HETATM    1  C   UNL     1      -6.356  17.018  66.608  1.00  0.00    -0.247 C  
HETATM    2  C   UNL     1      -7.308  17.814  65.735  1.00  0.00    -0.126 C  
ENDROOT
BRANCH   2   3
HETATM    3  C   UNL     1      -7.648  19.176  66.345  1.00  0.00    -0.276 C  
BRANCH   3   4
HETATM    4  C   UNL     1      -8.243  18.977  67.735  1.00  0.00    -0.276 C  
BRANCH   4   5
HETATM    5  N   UNL     1      -8.022  17.622  68.227  1.00  0.00    -0.262 NA 
HETATM    6  H   UNL     1      -7.095  17.199  68.207  1.00  0.00     0.000 HD 
BRANCH   5   7
HETATM    7  C   UNL     1      -9.130  16.920  68.730  1.00  0.00    -0.254 A  
HETATM    8  C   UNL     1      -9.018  15.891  69.674  1.00  0.00    -0.010 A  
HETATM    9  C   UNL     1     -10.131  15.162  70.095  1.00  0.00    -0.043 A  
HETATM   10  C   UNL     1     -11.392  15.422  69.555  1.00  0.00    -0.308 A  
HETATM   11  C   UNL     1     -10.398  17.160  68.180  1.00  0.00    -0.350 A  
HETATM   12  C   UNL     1     -11.523  16.426  68.589  1.00  0.00    -0.224 A  
BRANCH  10  13
HETATM   13  C   UNL     1     -12.521  14.581  70.029  1.00  0.00    -0.298 C  
HETATM   14  O   UNL     1     -13.273  14.918  70.933  1.00  0.00    -0.375 OA 
BRANCH  13  15
HETATM   15  O   UNL     1     -12.576  13.408  69.358  1.00  0.00    -0.042 OA 
BRANCH  15  16
HETATM   16  C   UNL     1     -11.307  12.940  68.864  1.00  0.00    -0.288 C  
BRANCH  16  17
HETATM   17  C   UNL     1     -11.271  12.942  67.336  1.00  0.00    -0.291 C  
BRANCH  17  18
HETATM   18  O   UNL     1     -11.706  11.667  66.852  1.00  0.00    -0.552 OA 
BRANCH  18  19
HETATM   19  C   UNL     1     -10.784  11.130  65.907  1.00  0.00    -0.198 C  
BRANCH  19  20
HETATM   20  C   UNL     1      -9.366  11.266  66.445  1.00  0.00    -0.192 C  
BRANCH  20  21
HETATM   21  O   UNL     1      -9.161  10.292  67.468  1.00  0.00    -0.140 OA 
BRANCH  21  22
HETATM   22  C   UNL     1      -9.622   9.006  67.061  1.00  0.00    -0.176 C  
BRANCH  22  23
HETATM   23  C   UNL     1      -8.514   8.300  66.290  1.00  0.00    -0.129 C  
BRANCH  23  24
HETATM   24  O   UNL     1      -9.076   7.218  65.550  1.00  0.00     0.030 OA 
BRANCH  24  25
HETATM   25  C   UNL     1      -8.262   6.051  65.644  1.00  0.00    -0.139 C  
BRANCH  25  26
HETATM   26  C   UNL     1      -7.567   6.037  66.997  1.00  0.00    -0.096 C  
BRANCH  26  27
HETATM   27  O   UNL     1      -6.196   6.382  66.818  1.00  0.00    -0.037 OA 
BRANCH  27  28
HETATM   28  C   UNL     1      -5.485   6.328  68.053  1.00  0.00    -0.004 C  
BRANCH  28  29
HETATM   29  C   UNL     1      -5.302   7.742  68.582  1.00  0.00    -0.027 C  
BRANCH  29  30
HETATM   30  O   UNL     1      -6.553   8.217  69.071  1.00  0.00    -0.046 OA 
BRANCH  30  31
HETATM   31  C   UNL     1      -6.438   8.685  70.412  1.00  0.00    -0.036 C  
BRANCH  31  32
HETATM   32  C   UNL     1      -7.572   9.659  70.695  1.00  0.00    -0.078 C  
BRANCH  32  33
HETATM   33  O   UNL     1      -8.805   9.053  70.320  1.00  0.00    -0.155 OA 
BRANCH  33  34
HETATM   34  C   UNL     1      -9.805   9.268  71.312  1.00  0.00    -0.248 C  
BRANCH  34  35
HETATM   35  C   UNL     1     -10.420   7.929  71.690  1.00  0.00    -0.209 C  
BRANCH  35  36
HETATM   36  O   UNL     1      -9.541   7.251  72.585  1.00  0.00    -0.145 OA 
BRANCH  36  37
HETATM   37  C   UNL     1     -10.113   6.030  73.045  1.00  0.00    -0.182 C  
BRANCH  37  38
HETATM   38  C   UNL     1     -10.866   5.373  71.896  1.00  0.00    -0.186 C  
BRANCH  38  39
HETATM   39  O   UNL     1      -9.950   4.618  71.109  1.00  0.00    -0.186 OA 
BRANCH  39  40
HETATM   40  C   UNL     1     -10.012   3.229  71.432  1.00  0.00    -0.050 C  
BRANCH  40  41
HETATM   41  C   UNL     1      -8.712   2.818  72.110  1.00  0.00    -0.070 C  
BRANCH  41  42
HETATM   42  O   UNL     1      -8.574   3.527  73.339  1.00  0.00    -0.085 OA 
HETATM   43  C   UNL     1      -8.575   2.640  74.450  1.00  0.00    -0.071 C  
ENDBRANCH  41  42
ENDBRANCH  40  41
ENDBRANCH  39  40
ENDBRANCH  38  39
ENDBRANCH  37  38
ENDBRANCH  36  37
ENDBRANCH  35  36
ENDBRANCH  34  35
ENDBRANCH  33  34
ENDBRANCH  32  33
ENDBRANCH  31  32
ENDBRANCH  30  31
ENDBRANCH  29  30
ENDBRANCH  28  29
ENDBRANCH  27  28
ENDBRANCH  26  27
ENDBRANCH  25  26
ENDBRANCH  24  25
ENDBRANCH  23  24
ENDBRANCH  22  23
ENDBRANCH  21  22
ENDBRANCH  20  21
ENDBRANCH  19  20
ENDBRANCH  18  19
ENDBRANCH  17  18
ENDBRANCH  16  17
ENDBRANCH  15  16
ENDBRANCH  13  15
ENDBRANCH  10  13
ENDBRANCH   5   7
ENDBRANCH   4   5
ENDBRANCH   3   4
ENDBRANCH   2   3
TORSDOF 33
ENDMDL
MODEL      214
REMARK 921   NORMALIZED FREE ENERGY PREDICTED BY IDOCK:   -0.67 KCAL/MOL
REMARK 922        TOTAL FREE ENERGY PREDICTED BY IDOCK:   -4.75 KCAL/MOL
REMARK 923 INTER-LIGAND FREE ENERGY PREDICTED BY IDOCK:   -5.03 KCAL/MOL
REMARK 924 INTRA-LIGAND FREE ENERGY PREDICTED BY IDOCK:    0.28 KCAL/MOL
REMARK 927      BINDING AFFINITY PREDICTED BY RF-SCORE:    0.00 PKD
ROOT
HETATM    1  C   UNL     1      -9.988   7.841  73.500  1.00  0.00    -0.286 C  
HETATM    2  C   UNL     1     -10.455   8.075  72.076  1.00  0.00    -0.308 C  
ENDROOT
BRANCH   2   3
HETATM    3  C   UNL     1     -11.741   8.905  72.019  1.00  0.00    -0.438 C  
BRANCH   3   4
HETATM    4  C   UNL     1     -12.948   7.974  72.058  1.00  0.00    -0.279 C  
BRANCH   4   5
HETATM    5  N   UNL     1     -13.136   7.280  70.789  1.00  0.00    -0.576 NA 
HETATM    6  H   UNL     1     -14.015   7.346  70.277  1.00  0.00     0.000 HD 
BRANCH   5   7
HETATM    7  C   UNL     1     -12.064   6.518  70.295  1.00  0.00    -0.045 A  
HETATM    8  C   UNL     1     -11.403   5.545  71.057  1.00  0.00     0.128 A  
HETATM    9  C   UNL     1     -10.294   4.860  70.561  1.00  0.00    -0.242 A  
HETATM   10  C   UNL     1      -9.789   5.153  69.293  1.00  0.00    -0.260 A  
HETATM   11  C   UNL     1     -11.538   6.818  69.030  1.00  0.00     0.048 A  
HETATM   12  C   UNL     1     -10.415   6.142  68.526  1.00  0.00    -0.284 A  
BRANCH  10  13
HETATM   13  C   UNL     1      -8.585   4.405  68.851  1.00  0.00    -0.084 C  
HETATM   14  O   UNL     1      -7.720   4.891  68.136  1.00  0.00    -0.081 OA 
BRANCH  13  15
HETATM   15  O   UNL     1      -8.599   3.134  69.313  1.00  0.00    -0.060 OA 
BRANCH  15  16
HETATM   16  C   UNL     1      -7.563   2.830  70.266  1.00  0.00    -0.043 C  
BRANCH  16  17
HETATM   17  C   UNL     1      -8.152   2.455  71.626  1.00  0.00    -0.051 C  
BRANCH  17  18
HETATM   18  O   UNL     1      -7.194   2.742  72.649  1.00  0.00    -0.037 OA 
BRANCH  18  19
HETATM   19  C   UNL     1      -7.628   3.818  73.478  1.00  0.00    -0.070 C  
BRANCH  19  20
HETATM   20  C   UNL     1      -6.416   4.515  74.083  1.00  0.00    -0.053 C  
BRANCH  20  21
HETATM   21  O   UNL     1      -5.283   4.286  73.247  1.00  0.00    -0.006 OA 
BRANCH  21  22
HETATM   22  C   UNL     1      -5.133   5.321  72.279  1.00  0.00    -0.008 C  
BRANCH  22  23
HETATM   23  C   UNL     1      -5.859   6.569  72.765  1.00  0.00    -0.038 C  
BRANCH  23  24
HETATM   24  O   UNL     1      -6.907   6.886  71.851  1.00  0.00    -0.060 OA 
BRANCH  24  25
HETATM   25  C   UNL     1      -6.827   8.245  71.426  1.00  0.00    -0.062 C  
BRANCH  25  26
HETATM   26  C   UNL     1      -6.365   8.286  69.976  1.00  0.00    -0.035 C  
BRANCH  26  27
HETATM   27  O   UNL     1      -6.994   9.383  69.320  1.00  0.00    -0.052 OA 
BRANCH  27  28
HETATM   28  C   UNL     1      -6.819  10.592  70.055  1.00  0.00    -0.148 C  
BRANCH  28  29
HETATM   29  C   UNL     1      -5.491  11.222  69.664  1.00  0.00    -0.057 C  
BRANCH  29  30
HETATM   30  O   UNL     1      -5.253  12.352  70.499  1.00  0.00    -0.099 OA 
BRANCH  30  31
HETATM   31  C   UNL     1      -6.068  13.456  70.116  1.00  0.00    -0.112 C  
BRANCH  31  32
HETATM   32  C   UNL     1      -6.793  13.111  68.824  1.00  0.00    -0.102 C  
BRANCH  32  33
HETATM   33  O   UNL     1      -8.016  13.838  68.772  1.00  0.00    -0.124 OA 
BRANCH  33  34
HETATM   34  C   UNL     1      -9.032  13.088  68.113  1.00  0.00    -0.198 C  
BRANCH  34  35
HETATM   35  C   UNL     1      -9.934  12.452  69.159  1.00  0.00     0.365 C  
BRANCH  35  36
HETATM   36  O   UNL     1     -11.282  12.495  68.698  1.00  0.00    -0.241 OA 
BRANCH  36  37
HETATM   37  C   UNL     1     -11.449  11.711  67.520  1.00  0.00    -0.289 C  
BRANCH  37  38
HETATM   38  C   UNL     1     -12.456  12.396  66.607  1.00  0.00     0.779 C  
BRANCH  38  39
HETATM   39  O   UNL     1     -12.105  12.142  65.250  1.00  0.00    -0.435 OA 
BRANCH  39  40
HETATM   40  C   UNL     1     -10.761  12.540  64.981  1.00  0.00    -0.294 C  
BRANCH  40  41
HETATM   41  C   UNL     1     -10.688  14.060  64.952  1.00  0.00    -0.418 C  
BRANCH  41  42
HETATM   42  O   UNL     1     -12.005  14.595  64.837  1.00  0.00    -0.394 OA 
HETATM   43  C   UNL     1     -12.001  15.836  64.146  1.00  0.00     0.020 C  
ENDBRANCH  41  42
ENDBRANCH  40  41
ENDBRANCH  39  40
ENDBRANCH  38  39
ENDBRANCH  37  38
ENDBRANCH  36  37
ENDBRANCH  35  36
ENDBRANCH  34  35
ENDBRANCH  33  34
ENDBRANCH  32  33
ENDBRANCH  31  32
ENDBRANCH  30  31
ENDBRANCH  29  30
ENDBRANCH  28  29
ENDBRANCH  27  28
ENDBRANCH  26  27
ENDBRANCH  25  26
ENDBRANCH  24  25
ENDBRANCH  23  24
ENDBRANCH  22  23
ENDBRANCH  21  22
ENDBRANCH  20  21
ENDBRANCH  19  20
ENDBRANCH  18  19
ENDBRANCH  17  18
ENDBRANCH  16  17
ENDBRANCH  15  16
ENDBRANCH  13  15
ENDBRANCH  10  13
ENDBRANCH   5   7
ENDBRANCH   4   5
ENDBRANCH   3   4
ENDBRANCH   2   3
TORSDOF 33
ENDMDL
MODEL      215
REMARK 921   NORMALIZED FREE ENERGY PREDICTED BY IDOCK:   -0.58 KCAL/MOL
REMARK 922        TOTAL FREE ENERGY PREDICTED BY IDOCK:   -4.49 KCAL/MOL
REMARK 923 INTER-LIGAND FREE ENERGY PREDICTED BY IDOCK:   -5.50 KCAL/MOL
REMARK 924 INTRA-LIGAND FREE ENERGY PREDICTED BY IDOCK:    1.01 KCAL/MOL
REMARK 927      BINDING AFFINITY PREDICTED BY RF-SCORE:    0.00 PKD
ROOT
HETATM    1  C   UNL     1      -8.707   7.301  62.687  1.00  0.00     0.424 C  
HETATM    2  C   UNL     1      -7.826   6.313  63.426  1.00  0.00    -0.110 C  
ENDROOT
BRANCH   2   3
HETATM    3  C   UNL     1      -6.673   7.003  64.160  1.00  0.00    -0.046 C  
BRANCH   3   4
HETATM    4  C   UNL     1      -5.733   7.642  63.144  1.00  0.00    -0.050 C  
BRANCH   4   5
HETATM    5  N   UNL     1      -5.162   8.887  63.646  1.00  0.00    -0.061 NA 
HETATM    6  H   UNL     1      -4.234   9.195  63.357  1.00  0.00     0.000 HD 
BRANCH   5   7
HETATM    7  C   UNL     1      -5.933   9.647  64.540  1.00  0.00    -0.086 A  
HETATM    8  C   UNL     1      -7.186  10.180  64.208  1.00  0.00    -0.108 A  
HETATM    9  C   UNL     1      -7.891  10.994  65.093  1.00  0.00     0.294 A  
HETATM   10  C   UNL     1      -7.344  11.331  66.333  1.00  0.00    -0.058 A  
HETATM   11  C   UNL     1      -5.385  10.006  65.780  1.00  0.00    -0.049 A  
HETATM   12  C   UNL     1      -6.081  10.835  66.675  1.00  0.00    -0.090 A  
BRANCH  10  13
HETATM   13  C   UNL     1      -8.141  12.230  67.206  1.00  0.00    -0.182 C  
HETATM   14  O   UNL     1      -7.667  13.205  67.772  1.00  0.00    -0.124 OA 
BRANCH  13  15
HETATM   15  O   UNL     1      -9.422  11.809  67.307  1.00  0.00    -0.168 OA 
BRANCH  15  16
HETATM   16  C   UNL     1     -10.407  12.855  67.212  1.00  0.00    -0.234 C  
BRANCH  16  17
HETATM   17  C   UNL     1     -11.825  12.294  67.316  1.00  0.00    -0.260 C  
BRANCH  17  18
HETATM   18  O   UNL     1     -11.758  10.891  67.591  1.00  0.00    -0.566 OA 
BRANCH  18  19
HETATM   19  C   UNL     1     -10.576  10.561  68.316  1.00  0.00    -0.206 C  
BRANCH  19  20
HETATM   20  C   UNL     1     -10.946   9.734  69.540  1.00  0.00    -0.227 C  
BRANCH  20  21
HETATM   21  O   UNL     1     -11.259  10.614  70.619  1.00  0.00    -0.289 OA 
BRANCH  21  22
HETATM   22  C   UNL     1     -12.542  10.327  71.169  1.00  0.00    -0.400 C  
BRANCH  22  23
HETATM   23  C   UNL     1     -12.427   9.133  72.109  1.00  0.00    -0.366 C  
BRANCH  23  24
HETATM   24  O   UNL     1     -11.049   8.812  72.288  1.00  0.00    -0.359 OA 
BRANCH  24  25
HETATM   25  C   UNL     1     -10.874   7.423  72.562  1.00  0.00    -0.283 C  
BRANCH  25  26
HETATM   26  C   UNL     1     -10.178   7.265  73.905  1.00  0.00    -0.257 C  
BRANCH  26  27
HETATM   27  O   UNL     1      -9.199   6.234  73.802  1.00  0.00    -0.127 OA 
BRANCH  27  28
HETATM   28  C   UNL     1      -9.799   4.944  73.888  1.00  0.00    -0.153 C  
BRANCH  28  29
HETATM   29  C   UNL     1      -8.756   3.944  74.364  1.00  0.00    -0.094 C  
BRANCH  29  30
HETATM   30  O   UNL     1      -9.094   2.652  73.865  1.00  0.00    -0.077 OA 
BRANCH  30  31
HETATM   31  C   UNL     1      -7.979   2.040  73.224  1.00  0.00    -0.046 C  
BRANCH  31  32
HETATM   32  C   UNL     1      -7.898   2.539  71.789  1.00  0.00    -0.048 C  
BRANCH  32  33
HETATM   33  O   UNL     1      -7.115   1.626  71.027  1.00  0.00    -0.031 OA 
BRANCH  33  34
HETATM   34  C   UNL     1      -7.418   1.726  69.638  1.00  0.00    -0.042 C  
BRANCH  34  35
HETATM   35  C   UNL     1      -8.636   2.621  69.462  1.00  0.00    -0.068 C  
BRANCH  35  36
HETATM   36  O   UNL     1      -8.541   3.291  68.207  1.00  0.00    -0.085 OA 
BRANCH  36  37
HETATM   37  C   UNL     1      -9.317   4.486  68.201  1.00  0.00    -0.140 C  
BRANCH  37  38
HETATM   38  C   UNL     1      -9.873   4.723  69.598  1.00  0.00    -0.221 C  
BRANCH  38  39
HETATM   39  O   UNL     1      -8.947   5.512  70.341  1.00  0.00    -0.134 OA 
BRANCH  39  40
HETATM   40  C   UNL     1      -8.023   6.175  69.477  1.00  0.00    -0.107 C  
BRANCH  40  41
HETATM   41  C   UNL     1      -8.538   7.577  69.180  1.00  0.00    -0.136 C  
BRANCH  41  42
HETATM   42  O   UNL     1      -7.454   8.396  68.746  1.00  0.00    -0.088 OA 
HETATM   43  C   UNL     1      -6.633   8.788  69.837  1.00  0.00    -0.041 C  
ENDBRANCH  41  42
ENDBRANCH  40  41
ENDBRANCH  39  40
ENDBRANCH  38  39
ENDBRANCH  37  38
ENDBRANCH  36  37
ENDBRANCH  35  36
ENDBRANCH  34  35
ENDBRANCH  33  34
ENDBRANCH  32  33
ENDBRANCH  31  32
ENDBRANCH  30  31
ENDBRANCH  29  30
ENDBRANCH  28  29
ENDBRANCH  27  28
ENDBRANCH  26  27
ENDBRANCH  25  26
ENDBRANCH  24  25
ENDBRANCH  23  24
ENDBRANCH  22  23
ENDBRANCH  21  22
ENDBRANCH  20  21
ENDBRANCH  19  20
ENDBRANCH  18  19
ENDBRANCH  17  18
ENDBRANCH  16  17
ENDBRANCH  15  16
ENDBRANCH  13  15
ENDBRANCH  10  13
ENDBRANCH   5   7
ENDBRANCH   4   5
ENDBRANCH   3   4
ENDBRANCH   2   3
TORSDOF 33
ENDMDL
MODEL      216
REMARK 921   NORMALIZED FREE ENERGY PREDICTED BY IDOCK:   -0.35 KCAL/MOL
REMARK 922        TOTAL FREE ENERGY PREDICTED BY IDOCK:   -3.84 KCAL/MOL
REMARK 923 INTER-LIGAND FREE ENERGY PREDICTED BY IDOCK:   -4.76 KCAL/MOL
REMARK 924 INTRA-LIGAND FREE ENERGY PREDICTED BY IDOCK:    0.92 KCAL/MOL
REMARK 927      BINDING AFFINITY PREDICTED BY RF-SCORE:    0.00 PKD
ROOT
HETATM    1  C   UNL     1      -7.161  14.795  70.957  1.00  0.00     1.115 C  
HETATM    2  C   UNL     1      -6.428  14.871  69.631  1.00  0.00    -0.154 C  
ENDROOT
BRANCH   2   3
HETATM    3  C   UNL     1      -6.972  13.867  68.611  1.00  0.00    -0.108 C  
BRANCH   3   4
HETATM    4  C   UNL     1      -5.814  13.262  67.825  1.00  0.00    -0.132 C  
BRANCH   4   5
HETATM    5  N   UNL     1      -5.184  12.165  68.552  1.00  0.00    -0.050 NA 
HETATM    6  H   UNL     1      -4.237  12.252  68.920  1.00  0.00     0.000 HD 
BRANCH   5   7
HETATM    7  C   UNL     1      -5.926  10.985  68.728  1.00  0.00    -0.043 A  
HETATM    8  C   UNL     1      -5.455   9.888  69.462  1.00  0.00    -0.034 A  
HETATM    9  C   UNL     1      -6.185   8.704  69.553  1.00  0.00    -0.036 A  
HETATM   10  C   UNL     1      -7.400   8.567  68.880  1.00  0.00    -0.086 A  
HETATM   11  C   UNL     1      -7.139  10.832  68.040  1.00  0.00    -0.081 A  
HETATM   12  C   UNL     1      -7.877   9.639  68.116  1.00  0.00    -0.086 A  
BRANCH  10  13
HETATM   13  C   UNL     1      -8.101   7.263  68.998  1.00  0.00    -0.124 C  
HETATM   14  O   UNL     1      -8.567   6.848  70.050  1.00  0.00    -0.138 OA 
BRANCH  13  15
HETATM   15  O   UNL     1      -8.122   6.608  67.816  1.00  0.00    -0.114 OA 
BRANCH  15  16
HETATM   16  C   UNL     1      -7.713   7.398  66.684  1.00  0.00    -0.101 C  
BRANCH  16  17
HETATM   17  C   UNL     1      -6.392   6.896  66.103  1.00  0.00    -0.050 C  
BRANCH  17  18
HETATM   18  O   UNL     1      -5.828   7.911  65.267  1.00  0.00    -0.037 OA 
BRANCH  18  19
HETATM   19  C   UNL     1      -5.674   7.451  63.926  1.00  0.00    -0.037 C  
BRANCH  19  20
HETATM   20  C   UNL     1      -6.494   8.328  62.990  1.00  0.00    -0.086 C  
BRANCH  20  21
HETATM   21  O   UNL     1      -7.225   9.278  63.765  1.00  0.00    -0.093 OA 
BRANCH  21  22
HETATM   22  C   UNL     1      -8.630   9.145  63.563  1.00  0.00    -0.165 C  
BRANCH  22  23
HETATM   23  C   UNL     1      -9.086  10.173  62.536  1.00  0.00    -0.287 C  
BRANCH  23  24
HETATM   24  O   UNL     1     -10.311  10.758  62.973  1.00  0.00    -0.207 OA 
BRANCH  24  25
HETATM   25  C   UNL     1     -10.083  12.004  63.628  1.00  0.00    -0.415 C  
BRANCH  25  26
HETATM   26  C   UNL     1      -9.549  11.740  65.028  1.00  0.00    -0.130 C  
BRANCH  26  27
HETATM   27  O   UNL     1     -10.594  11.192  65.827  1.00  0.00    -0.259 OA 
BRANCH  27  28
HETATM   28  C   UNL     1     -10.301  11.321  67.217  1.00  0.00    -0.201 C  
BRANCH  28  29
HETATM   29  C   UNL     1     -11.278  12.306  67.840  1.00  0.00    -0.274 C  
BRANCH  29  30
HETATM   30  O   UNL     1     -11.669  13.255  66.851  1.00  0.00    -0.347 OA 
BRANCH  30  31
HETATM   31  C   UNL     1     -11.866  14.545  67.425  1.00  0.00    -0.388 C  
BRANCH  31  32
HETATM   32  C   UNL     1     -10.747  14.819  68.420  1.00  0.00    -0.243 C  
BRANCH  32  33
HETATM   33  O   UNL     1     -10.033  15.978  68.002  1.00  0.00    -0.225 OA 
BRANCH  33  34
HETATM   34  C   UNL     1      -9.983  16.066  66.581  1.00  0.00    -0.267 C  
BRANCH  34  35
HETATM   35  C   UNL     1      -8.531  16.195  66.145  1.00  0.00    -0.253 C  
BRANCH  35  36
HETATM   36  O   UNL     1      -8.233  17.571  65.928  1.00  0.00    -0.538 OA 
BRANCH  36  37
HETATM   37  C   UNL     1      -6.927  17.897  66.396  1.00  0.00    -0.249 C  
BRANCH  37  38
HETATM   38  C   UNL     1      -6.993  18.183  67.889  1.00  0.00    -0.209 C  
BRANCH  38  39
HETATM   39  O   UNL     1      -8.351  18.397  68.263  1.00  0.00    -0.286 OA 
BRANCH  39  40
HETATM   40  C   UNL     1      -8.735  19.756  68.061  1.00  0.00    -0.302 C  
BRANCH  40  41
HETATM   41  C   UNL     1     -10.108  19.793  67.404  1.00  0.00    -0.422 C  
BRANCH  41  42
HETATM   42  O   UNL     1     -11.113  19.615  68.401  1.00  0.00     0.289 OA 
HETATM   43  C   UNL     1     -10.549  19.192  69.634  1.00  0.00     1.093 C  
ENDBRANCH  41  42
ENDBRANCH  40  41
ENDBRANCH  39  40
ENDBRANCH  38  39
ENDBRANCH  37  38
ENDBRANCH  36  37
ENDBRANCH  35  36
ENDBRANCH  34  35
ENDBRANCH  33  34
ENDBRANCH  32  33
ENDBRANCH  31  32
ENDBRANCH  30  31
ENDBRANCH  29  30
ENDBRANCH  28  29
ENDBRANCH  27  28
ENDBRANCH  26  27
ENDBRANCH  25  26
ENDBRANCH  24  25
ENDBRANCH  23  24
ENDBRANCH  22  23
ENDBRANCH  21  22
ENDBRANCH  20  21
ENDBRANCH  19  20
ENDBRANCH  18  19
ENDBRANCH  17  18
ENDBRANCH  16  17
ENDBRANCH  15  16
ENDBRANCH  13  15
ENDBRANCH  10  13
ENDBRANCH   5   7
ENDBRANCH   4   5
ENDBRANCH   3   4
ENDBRANCH   2   3
TORSDOF 33
ENDMDL
MODEL      217
REMARK 921   NORMALIZED FREE ENERGY PREDICTED BY IDOCK:    0.65 KCAL/MOL
REMARK 922        TOTAL FREE ENERGY PREDICTED BY IDOCK:   -0.88 KCAL/MOL
REMARK 923 INTER-LIGAND FREE ENERGY PREDICTED BY IDOCK:   -4.99 KCAL/MOL
REMARK 924 INTRA-LIGAND FREE ENERGY PREDICTED BY IDOCK:    4.10 KCAL/MOL
REMARK 927      BINDING AFFINITY PREDICTED BY RF-SCORE:    0.00 PKD
ROOT
HETATM    1  C   UNL     1      -8.147   7.019  62.817  1.00  0.00    -0.054 C  
HETATM    2  C   UNL     1      -7.328   6.349  63.904  1.00  0.00    -0.070 C  
ENDROOT
BRANCH   2   3
HETATM    3  C   UNL     1      -6.634   7.365  64.814  1.00  0.00    -0.043 C  
BRANCH   3   4
HETATM    4  C   UNL     1      -5.679   8.219  63.988  1.00  0.00    -0.064 C  
BRANCH   4   5
HETATM    5  N   UNL     1      -5.128   9.321  64.768  1.00  0.00    -0.044 NA 
HETATM    6  H   UNL     1      -4.162   9.623  64.644  1.00  0.00     0.000 HD 
BRANCH   5   7
HETATM    7  C   UNL     1      -5.972   9.952  65.697  1.00  0.00    -0.073 A  
HETATM    8  C   UNL     1      -6.791  11.041  65.369  1.00  0.00     0.290 A  
HETATM    9  C   UNL     1      -7.559  11.693  66.333  1.00  0.00     0.085 A  
HETATM   10  C   UNL     1      -7.506  11.293  67.670  1.00  0.00    -0.101 A  
HETATM   11  C   UNL     1      -5.911   9.570  67.045  1.00  0.00    -0.052 A  
HETATM   12  C   UNL     1      -6.672  10.227  68.026  1.00  0.00    -0.066 A  
BRANCH  10  13
HETATM   13  C   UNL     1      -8.327  12.059  68.642  1.00  0.00    -0.036 C  
HETATM   14  O   UNL     1      -7.871  12.545  69.667  1.00  0.00     0.769 OA 
BRANCH  13  15
HETATM   15  O   UNL     1      -9.622  12.111  68.257  1.00  0.00    -0.206 OA 
BRANCH  15  16
HETATM   16  C   UNL     1     -10.078  13.419  67.863  1.00  0.00    -0.238 C  
BRANCH  16  17
HETATM   17  C   UNL     1     -11.570  13.410  67.529  1.00  0.00    -0.344 C  
BRANCH  17  18
HETATM   18  O   UNL     1     -12.103  12.107  67.788  1.00  0.00    -0.508 OA 
BRANCH  18  19
HETATM   19  C   UNL     1     -11.121  11.251  68.366  1.00  0.00    -0.240 C  
BRANCH  19  20
HETATM   20  C   UNL     1     -11.726  10.510  69.551  1.00  0.00    -0.241 C  
BRANCH  20  21
HETATM   21  O   UNL     1     -11.709  11.367  70.692  1.00  0.00    -0.298 OA 
BRANCH  21  22
HETATM   22  C   UNL     1     -12.909  11.244  71.454  1.00  0.00    -0.410 C  
BRANCH  22  23
HETATM   23  C   UNL     1     -12.944   9.870  72.110  1.00  0.00    -0.379 C  
BRANCH  23  24
HETATM   24  O   UNL     1     -11.725   9.186  71.829  1.00  0.00    -0.346 OA 
BRANCH  24  25
HETATM   25  C   UNL     1     -11.871   7.778  72.001  1.00  0.00    -0.307 C  
BRANCH  25  26
HETATM   26  C   UNL     1     -10.968   7.320  73.138  1.00  0.00    -0.340 C  
BRANCH  26  27
HETATM   27  O   UNL     1     -10.065   6.334  72.644  1.00  0.00    -0.175 OA 
BRANCH  27  28
HETATM   28  C   UNL     1     -10.588   5.020  72.820  1.00  0.00    -0.221 C  
BRANCH  28  29
HETATM   29  C   UNL     1      -9.455   4.014  72.695  1.00  0.00    -0.128 C  
BRANCH  29  30
HETATM   30  O   UNL     1      -9.951   2.718  73.015  1.00  0.00    -0.111 OA 
BRANCH  30  31
HETATM   31  C   UNL     1      -9.087   1.699  72.518  1.00  0.00    -0.069 C  
BRANCH  31  32
HETATM   32  C   UNL     1      -8.490   2.158  71.197  1.00  0.00    -0.057 C  
BRANCH  32  33
HETATM   33  O   UNL     1      -9.352   1.759  70.136  1.00  0.00    -0.096 OA 
BRANCH  33  34
HETATM   34  C   UNL     1      -9.421   2.761  69.126  1.00  0.00    -0.085 C  
BRANCH  34  35
HETATM   35  C   UNL     1      -8.007   3.171  68.740  1.00  0.00    -0.057 C  
BRANCH  35  36
HETATM   36  O   UNL     1      -8.075   4.230  67.789  1.00  0.00    -0.093 OA 
BRANCH  36  37
HETATM   37  C   UNL     1      -7.389   3.889  66.587  1.00  0.00    -0.072 C  
BRANCH  37  38
HETATM   38  C   UNL     1      -7.864   2.521  66.117  1.00  0.00    -0.081 C  
BRANCH  38  39
HETATM   39  O   UNL     1      -9.234   2.609  65.735  1.00  0.00    -0.140 OA 
BRANCH  39  40
HETATM   40  C   UNL     1      -9.364   2.966  64.359  1.00  0.00    -0.143 C  
BRANCH  40  41
HETATM   41  C   UNL     1      -8.398   2.127  63.534  1.00  0.00    -0.081 C  
BRANCH  41  42
HETATM   42  O   UNL     1      -7.346   2.958  63.048  1.00  0.00    -0.050 OA 
HETATM   43  C   UNL     1      -6.157   2.783  63.807  1.00  0.00    -0.014 C  
ENDBRANCH  41  42
ENDBRANCH  40  41
ENDBRANCH  39  40
ENDBRANCH  38  39
ENDBRANCH  37  38
ENDBRANCH  36  37
ENDBRANCH  35  36
ENDBRANCH  34  35
ENDBRANCH  33  34
ENDBRANCH  32  33
ENDBRANCH  31  32
ENDBRANCH  30  31
ENDBRANCH  29  30
ENDBRANCH  28  29
ENDBRANCH  27  28
ENDBRANCH  26  27
ENDBRANCH  25  26
ENDBRANCH  24  25
ENDBRANCH  23  24
ENDBRANCH  22  23
ENDBRANCH  21  22
ENDBRANCH  20  21
ENDBRANCH  19  20
ENDBRANCH  18  19
ENDBRANCH  17  18
ENDBRANCH  16  17
ENDBRANCH  15  16
ENDBRANCH  13  15
ENDBRANCH  10  13
ENDBRANCH   5   7
ENDBRANCH   4   5
ENDBRANCH   3   4
ENDBRANCH   2   3
TORSDOF 33
ENDMDL
MODEL      218
REMARK 921   NORMALIZED FREE ENERGY PREDICTED BY IDOCK:    0.83 KCAL/MOL
REMARK 922        TOTAL FREE ENERGY PREDICTED BY IDOCK:   -0.35 KCAL/MOL
REMARK 923 INTER-LIGAND FREE ENERGY PREDICTED BY IDOCK:   -1.47 KCAL/MOL
REMARK 924 INTRA-LIGAND FREE ENERGY PREDICTED BY IDOCK:    1.12 KCAL/MOL
REMARK 927      BINDING AFFINITY PREDICTED BY RF-SCORE:    0.00 PKD
ROOT
HETATM    1  C   UNL     1      -7.937  14.674  71.669  1.00  0.00     4.279 C  
HETATM    2  C   UNL     1      -7.095  14.953  70.438  1.00  0.00     0.294 C  
ENDROOT
BRANCH   2   3
HETATM    3  C   UNL     1      -7.279  13.882  69.359  1.00  0.00     0.077 C  
BRANCH   3   4
HETATM    4  C   UNL     1      -5.923  13.532  68.755  1.00  0.00    -0.084 C  
BRANCH   4   5
HETATM    5  N   UNL     1      -5.240  12.500  69.526  1.00  0.00    -0.071 NA 
HETATM    6  H   UNL     1      -4.281  12.631  69.848  1.00  0.00     0.000 HD 
BRANCH   5   7
HETATM    7  C   UNL     1      -5.946  11.320  69.811  1.00  0.00    -0.103 A  
HETATM    8  C   UNL     1      -5.395  10.255  70.536  1.00  0.00    -0.058 A  
HETATM    9  C   UNL     1      -6.098   9.067  70.736  1.00  0.00    -0.044 A  
HETATM   10  C   UNL     1      -7.369   8.895  70.184  1.00  0.00    -0.059 A  
HETATM   11  C   UNL     1      -7.215  11.130  69.245  1.00  0.00    -0.112 A  
HETATM   12  C   UNL     1      -7.928   9.934  69.431  1.00  0.00    -0.135 A  
BRANCH  10  13
HETATM   13  C   UNL     1      -8.039   7.589  70.412  1.00  0.00    -0.111 C  
HETATM   14  O   UNL     1      -8.134   7.070  71.515  1.00  0.00    -0.103 OA 
BRANCH  13  15
HETATM   15  O   UNL     1      -8.488   7.058  69.253  1.00  0.00    -0.131 OA 
BRANCH  15  16
HETATM   16  C   UNL     1      -8.157   7.819  68.076  1.00  0.00    -0.123 C  
BRANCH  16  17
HETATM   17  C   UNL     1      -7.142   7.081  67.204  1.00  0.00    -0.083 C  
BRANCH  17  18
HETATM   18  O   UNL     1      -6.506   8.016  66.326  1.00  0.00    -0.046 OA 
BRANCH  18  19
HETATM   19  C   UNL     1      -6.892   7.798  64.971  1.00  0.00    -0.051 C  
BRANCH  19  20
HETATM   20  C   UNL     1      -7.820   8.919  64.521  1.00  0.00    -0.126 C  
BRANCH  20  21
HETATM   21  O   UNL     1      -8.038   9.809  65.614  1.00  0.00    -0.114 OA 
BRANCH  21  22
HETATM   22  C   UNL     1      -9.418   9.870  65.968  1.00  0.00    -0.202 C  
BRANCH  22  23
HETATM   23  C   UNL     1     -10.185  10.590  64.866  1.00  0.00    -0.300 C  
BRANCH  23  24
HETATM   24  O   UNL     1     -10.973  11.627  65.446  1.00  0.00    -0.299 OA 
BRANCH  24  25
HETATM   25  C   UNL     1     -10.151  12.664  65.979  1.00  0.00    -0.262 C  
BRANCH  25  26
HETATM   26  C   UNL     1      -9.908  12.394  67.457  1.00  0.00    -0.194 C  
BRANCH  26  27
HETATM   27  O   UNL     1     -11.164  12.269  68.118  1.00  0.00    -0.232 OA 
BRANCH  27  28
HETATM   28  C   UNL     1     -11.099  12.775  69.450  1.00  0.00    -0.065 C  
BRANCH  28  29
HETATM   29  C   UNL     1     -11.794  14.127  69.500  1.00  0.00    -0.322 C  
BRANCH  29  30
HETATM   30  O   UNL     1     -12.171  14.502  68.178  1.00  0.00    -0.234 OA 
BRANCH  30  31
HETATM   31  C   UNL     1     -12.241  15.919  68.045  1.00  0.00     0.715 C  
BRANCH  31  32
HETATM   32  C   UNL     1     -11.136  16.549  68.880  1.00  0.00    -0.300 C  
BRANCH  32  33
HETATM   33  O   UNL     1     -10.204  17.183  68.009  1.00  0.00    -0.299 OA 
BRANCH  33  34
HETATM   34  C   UNL     1      -9.903  16.355  66.889  1.00  0.00    -0.261 C  
BRANCH  34  35
HETATM   35  C   UNL     1      -8.398  16.358  66.664  1.00  0.00    -0.270 C  
BRANCH  35  36
HETATM   36  O   UNL     1      -8.095  17.217  65.568  1.00  0.00    -0.233 OA 
BRANCH  36  37
HETATM   37  C   UNL     1      -7.016  18.093  65.883  1.00  0.00    -0.284 C  
BRANCH  37  38
HETATM   38  C   UNL     1      -7.553  19.274  66.679  1.00  0.00    -0.242 C  
BRANCH  38  39
HETATM   39  O   UNL     1      -6.717  19.492  67.812  1.00  0.00    -0.223 OA 
BRANCH  39  40
HETATM   40  C   UNL     1      -7.072  18.627  68.890  1.00  0.00    -0.293 C  
BRANCH  40  41
HETATM   41  C   UNL     1      -5.804  18.145  69.581  1.00  0.00    -0.243 C  
BRANCH  41  42
HETATM   42  O   UNL     1      -5.334  19.160  70.467  1.00  0.00    -0.204 OA 
HETATM   43  C   UNL     1      -5.930  20.417  70.176  1.00  0.00    -0.321 C  
ENDBRANCH  41  42
ENDBRANCH  40  41
ENDBRANCH  39  40
ENDBRANCH  38  39
ENDBRANCH  37  38
ENDBRANCH  36  37
ENDBRANCH  35  36
ENDBRANCH  34  35
ENDBRANCH  33  34
ENDBRANCH  32  33
ENDBRANCH  31  32
ENDBRANCH  30  31
ENDBRANCH  29  30
ENDBRANCH  28  29
ENDBRANCH  27  28
ENDBRANCH  26  27
ENDBRANCH  25  26
ENDBRANCH  24  25
ENDBRANCH  23  24
ENDBRANCH  22  23
ENDBRANCH  21  22
ENDBRANCH  20  21
ENDBRANCH  19  20
ENDBRANCH  18  19
ENDBRANCH  17  18
ENDBRANCH  16  17
ENDBRANCH  15  16
ENDBRANCH  13  15
ENDBRANCH  10  13
ENDBRANCH   5   7
ENDBRANCH   4   5
ENDBRANCH   3   4
ENDBRANCH   2   3
TORSDOF 33
ENDMDL
MODEL      219
REMARK 921   NORMALIZED FREE ENERGY PREDICTED BY IDOCK:    0.91 KCAL/MOL
REMARK 922        TOTAL FREE ENERGY PREDICTED BY IDOCK:   -0.13 KCAL/MOL
REMARK 923 INTER-LIGAND FREE ENERGY PREDICTED BY IDOCK:   -3.72 KCAL/MOL
REMARK 924 INTRA-LIGAND FREE ENERGY PREDICTED BY IDOCK:    3.58 KCAL/MOL
REMARK 927      BINDING AFFINITY PREDICTED BY RF-SCORE:    0.00 PKD
ROOT
HETATM    1  C   UNL     1      -9.776   2.025  69.034  1.00  0.00     0.043 C  
HETATM    2  C   UNL     1      -9.772   1.754  67.542  1.00  0.00     0.232 C  
ENDROOT
BRANCH   2   3
HETATM    3  C   UNL     1      -8.365   1.467  67.010  1.00  0.00    -0.082 C  
BRANCH   3   4
HETATM    4  C   UNL     1      -8.163   2.196  65.686  1.00  0.00    -0.088 C  
BRANCH   4   5
HETATM    5  N   UNL     1      -6.986   3.056  65.718  1.00  0.00    -0.052 NA 
HETATM    6  H   UNL     1      -6.235   2.948  65.037  1.00  0.00     0.000 HD 
BRANCH   5   7
HETATM    7  C   UNL     1      -6.922   4.040  66.718  1.00  0.00    -0.059 A  
HETATM    8  C   UNL     1      -7.992   4.892  67.024  1.00  0.00    -0.103 A  
HETATM    9  C   UNL     1      -7.869   5.908  67.971  1.00  0.00    -0.104 A  
HETATM   10  C   UNL     1      -6.652   6.127  68.620  1.00  0.00    -0.058 A  
HETATM   11  C   UNL     1      -5.699   4.280  67.363  1.00  0.00    -0.022 A  
HETATM   12  C   UNL     1      -5.560   5.308  68.310  1.00  0.00    -0.012 A  
BRANCH  10  13
HETATM   13  C   UNL     1      -6.591   7.251  69.589  1.00  0.00    -0.040 C  
HETATM   14  O   UNL     1      -7.415   7.413  70.478  1.00  0.00    -0.079 OA 
BRANCH  13  15
HETATM   15  O   UNL     1      -5.539   8.062  69.335  1.00  0.00    -0.026 OA 
BRANCH  15  16
HETATM   16  C   UNL     1      -5.372   8.411  67.949  1.00  0.00    -0.035 C  
BRANCH  16  17
HETATM   17  C   UNL     1      -6.711   8.414  67.211  1.00  0.00    -0.063 C  
BRANCH  17  18
HETATM   18  O   UNL     1      -7.256   9.737  67.228  1.00  0.00    -0.085 OA 
BRANCH  18  19
HETATM   19  C   UNL     1      -7.228  10.325  65.930  1.00  0.00    -0.131 C  
BRANCH  19  20
HETATM   20  C   UNL     1      -6.137  11.386  65.875  1.00  0.00     0.263 C  
BRANCH  20  21
HETATM   21  O   UNL     1      -5.654  11.624  67.197  1.00  0.00    -0.081 OA 
BRANCH  21  22
HETATM   22  C   UNL     1      -6.337  12.715  67.812  1.00  0.00    -0.130 C  
BRANCH  22  23
HETATM   23  C   UNL     1      -6.216  12.590  69.325  1.00  0.00    -0.105 C  
BRANCH  23  24
HETATM   24  O   UNL     1      -7.369  13.165  69.935  1.00  0.00     0.582 OA 
BRANCH  24  25
HETATM   25  C   UNL     1      -8.566  12.569  69.440  1.00  0.00     1.222 C  
BRANCH  25  26
HETATM   26  C   UNL     1      -8.436  11.055  69.517  1.00  0.00     0.322 C  
BRANCH  26  27
HETATM   27  O   UNL     1      -9.687  10.501  69.918  1.00  0.00    -0.086 OA 
BRANCH  27  28
HETATM   28  C   UNL     1     -10.694  10.738  68.938  1.00  0.00    -0.222 C  
BRANCH  28  29
HETATM   29  C   UNL     1     -11.549  11.916  69.381  1.00  0.00    -0.325 C  
BRANCH  29  30
HETATM   30  O   UNL     1     -10.995  13.115  68.846  1.00  0.00    -0.242 OA 
BRANCH  30  31
HETATM   31  C   UNL     1     -11.949  13.812  68.050  1.00  0.00    -0.355 C  
BRANCH  31  32
HETATM   32  C   UNL     1     -12.246  12.993  66.803  1.00  0.00    -0.194 C  
BRANCH  32  33
HETATM   33  O   UNL     1     -11.015  12.585  66.215  1.00  0.00    -0.262 OA 
BRANCH  33  34
HETATM   34  C   UNL     1     -11.050  12.732  64.798  1.00  0.00    -0.302 C  
BRANCH  34  35
HETATM   35  C   UNL     1     -12.000  13.866  64.443  1.00  0.00    -0.450 C  
BRANCH  35  36
HETATM   36  O   UNL     1     -11.834  14.922  65.386  1.00  0.00    -0.299 OA 
BRANCH  36  37
HETATM   37  C   UNL     1     -10.916  15.902  64.906  1.00  0.00    -0.411 C  
BRANCH  37  38
HETATM   38  C   UNL     1     -10.151  16.483  66.086  1.00  0.00    -0.348 C  
BRANCH  38  39
HETATM   39  O   UNL     1     -10.777  17.696  66.497  1.00  0.00    -0.239 OA 
BRANCH  39  40
HETATM   40  C   UNL     1     -10.071  18.834  66.005  1.00  0.00    -0.317 C  
BRANCH  40  41
HETATM   41  C   UNL     1      -8.741  18.949  66.735  1.00  0.00    -0.301 C  
BRANCH  41  42
HETATM   42  O   UNL     1      -7.674  18.810  65.799  1.00  0.00    -0.482 OA 
HETATM   43  C   UNL     1      -6.427  18.634  66.458  1.00  0.00    -0.189 C  
ENDBRANCH  41  42
ENDBRANCH  40  41
ENDBRANCH  39  40
ENDBRANCH  38  39
ENDBRANCH  37  38
ENDBRANCH  36  37
ENDBRANCH  35  36
ENDBRANCH  34  35
ENDBRANCH  33  34
ENDBRANCH  32  33
ENDBRANCH  31  32
ENDBRANCH  30  31
ENDBRANCH  29  30
ENDBRANCH  28  29
ENDBRANCH  27  28
ENDBRANCH  26  27
ENDBRANCH  25  26
ENDBRANCH  24  25
ENDBRANCH  23  24
ENDBRANCH  22  23
ENDBRANCH  21  22
ENDBRANCH  20  21
ENDBRANCH  19  20
ENDBRANCH  18  19
ENDBRANCH  17  18
ENDBRANCH  16  17
ENDBRANCH  15  16
ENDBRANCH  13  15
ENDBRANCH  10  13
ENDBRANCH   5   7
ENDBRANCH   4   5
ENDBRANCH   3   4
ENDBRANCH   2   3
TORSDOF 33
ENDMDL
MODEL      220
REMARK 921   NORMALIZED FREE ENERGY PREDICTED BY IDOCK:    1.53 KCAL/MOL
REMARK 922        TOTAL FREE ENERGY PREDICTED BY IDOCK:    1.69 KCAL/MOL
REMARK 923 INTER-LIGAND FREE ENERGY PREDICTED BY IDOCK:   -3.24 KCAL/MOL
REMARK 924 INTRA-LIGAND FREE ENERGY PREDICTED BY IDOCK:    4.93 KCAL/MOL
REMARK 927      BINDING AFFINITY PREDICTED BY RF-SCORE:    0.00 PKD
ROOT
HETATM    1  C   UNL     1      -6.556  17.751  71.152  1.00  0.00     2.727 C  
HETATM    2  C   UNL     1      -5.759  16.756  71.974  1.00  0.00     1.365 C  
ENDROOT
BRANCH   2   3
HETATM    3  C   UNL     1      -5.126  15.665  71.106  1.00  0.00    -0.151 C  
BRANCH   3   4
HETATM    4  C   UNL     1      -5.736  15.709  69.709  1.00  0.00    -0.132 C  
BRANCH   4   5
HETATM    5  N   UNL     1      -7.101  16.221  69.732  1.00  0.00    -0.031 NA 
HETATM    6  H   UNL     1      -7.329  17.092  70.212  1.00  0.00     0.000 HD 
BRANCH   5   7
HETATM    7  C   UNL     1      -8.092  15.476  69.072  1.00  0.00    -0.220 A  
HETATM    8  C   UNL     1      -9.452  15.554  69.397  1.00  0.00    -0.278 A  
HETATM    9  C   UNL     1     -10.400  14.743  68.773  1.00  0.00    -0.248 A  
HETATM   10  C   UNL     1     -10.008  13.801  67.821  1.00  0.00    -0.242 A  
HETATM   11  C   UNL     1      -7.706  14.514  68.127  1.00  0.00    -0.128 A  
HETATM   12  C   UNL     1      -8.651  13.685  67.500  1.00  0.00    -0.197 A  
BRANCH  10  13
HETATM   13  C   UNL     1     -11.072  12.952  67.225  1.00  0.00    -0.274 C  
HETATM   14  O   UNL     1     -11.945  12.412  67.888  1.00  0.00    -0.404 OA 
BRANCH  13  15
HETATM   15  O   UNL     1     -10.920  12.841  65.886  1.00  0.00    -0.268 OA 
BRANCH  15  16
HETATM   16  C   UNL     1      -9.703  12.192  65.472  1.00  0.00    -0.181 C  
BRANCH  16  17
HETATM   17  C   UNL     1      -9.990  11.031  64.520  1.00  0.00    -0.310 C  
BRANCH  17  18
HETATM   18  O   UNL     1      -8.895  10.110  64.557  1.00  0.00    -0.172 OA 
BRANCH  18  19
HETATM   19  C   UNL     1      -7.836  10.528  63.699  1.00  0.00     0.003 C  
BRANCH  19  20
HETATM   20  C   UNL     1      -7.138   9.305  63.120  1.00  0.00    -0.088 C  
BRANCH  20  21
HETATM   21  O   UNL     1      -8.073   8.563  62.339  1.00  0.00    -0.151 OA 
BRANCH  21  22
HETATM   22  C   UNL     1      -8.377   7.308  62.944  1.00  0.00     0.115 C  
BRANCH  22  23
HETATM   23  C   UNL     1      -7.277   6.953  63.935  1.00  0.00    -0.066 C  
BRANCH  23  24
HETATM   24  O   UNL     1      -7.672   7.368  65.241  1.00  0.00    -0.098 OA 
BRANCH  24  25
HETATM   25  C   UNL     1      -6.671   7.055  66.207  1.00  0.00    -0.053 C  
BRANCH  25  26
HETATM   26  C   UNL     1      -7.331   6.879  67.567  1.00  0.00    -0.096 C  
BRANCH  26  27
HETATM   27  O   UNL     1      -6.435   6.188  68.432  1.00  0.00    -0.048 OA 
BRANCH  27  28
HETATM   28  C   UNL     1      -7.004   6.007  69.727  1.00  0.00    -0.067 C  
BRANCH  28  29
HETATM   29  C   UNL     1      -6.696   7.230  70.578  1.00  0.00    -0.048 C  
BRANCH  29  30
HETATM   30  O   UNL     1      -7.634   8.256  70.268  1.00  0.00    -0.068 OA 
BRANCH  30  31
HETATM   31  C   UNL     1      -8.729   7.741  69.514  1.00  0.00    -0.135 C  
BRANCH  31  32
HETATM   32  C   UNL     1      -9.820   7.289  70.473  1.00  0.00    -0.183 C  
BRANCH  32  33
HETATM   33  O   UNL     1     -11.087   7.661  69.940  1.00  0.00    -0.237 OA 
BRANCH  33  34
HETATM   34  C   UNL     1     -11.740   8.607  70.781  1.00  0.00    -0.210 C  
BRANCH  34  35
HETATM   35  C   UNL     1     -12.113   7.929  72.090  1.00  0.00    -0.326 C  
BRANCH  35  36
HETATM   36  O   UNL     1     -13.508   7.634  72.078  1.00  0.00    -0.262 OA 
BRANCH  36  37
HETATM   37  C   UNL     1     -14.281   8.779  72.426  1.00  0.00    -0.385 C  
BRANCH  37  38
HETATM   38  C   UNL     1     -13.778   9.976  71.631  1.00  0.00    -0.115 C  
BRANCH  38  39
HETATM   39  O   UNL     1     -13.165  10.904  72.522  1.00  0.00    -0.051 OA 
BRANCH  39  40
HETATM   40  C   UNL     1     -12.798  12.105  71.844  1.00  0.00    -0.222 C  
BRANCH  40  41
HETATM   41  C   UNL     1     -13.752  13.219  72.255  1.00  0.00    -0.589 C  
BRANCH  41  42
HETATM   42  O   UNL     1     -13.070  14.470  72.196  1.00  0.00    -0.317 OA 
HETATM   43  C   UNL     1     -13.176  15.057  70.906  1.00  0.00    -0.399 C  
ENDBRANCH  41  42
ENDBRANCH  40  41
ENDBRANCH  39  40
ENDBRANCH  38  39
ENDBRANCH  37  38
ENDBRANCH  36  37
ENDBRANCH  35  36
ENDBRANCH  34  35
ENDBRANCH  33  34
ENDBRANCH  32  33
ENDBRANCH  31  32
ENDBRANCH  30  31
ENDBRANCH  29  30
ENDBRANCH  28  29
ENDBRANCH  27  28
ENDBRANCH  26  27
ENDBRANCH  25  26
ENDBRANCH  24  25
ENDBRANCH  23  24
ENDBRANCH  22  23
ENDBRANCH  21  22
ENDBRANCH  20  21
ENDBRANCH  19  20
ENDBRANCH  18  19
ENDBRANCH  17  18
ENDBRANCH  16  17
ENDBRANCH  15  16
ENDBRANCH  13  15
ENDBRANCH  10  13
ENDBRANCH   5   7
ENDBRANCH   4   5
ENDBRANCH   3   4
ENDBRANCH   2   3
TORSDOF 33
ENDMDL
MODEL      221
REMARK 921   NORMALIZED FREE ENERGY PREDICTED BY IDOCK:    1.55 KCAL/MOL
REMARK 922        TOTAL FREE ENERGY PREDICTED BY IDOCK:    1.75 KCAL/MOL
REMARK 923 INTER-LIGAND FREE ENERGY PREDICTED BY IDOCK:   -3.88 KCAL/MOL
REMARK 924 INTRA-LIGAND FREE ENERGY PREDICTED BY IDOCK:    5.63 KCAL/MOL
REMARK 927      BINDING AFFINITY PREDICTED BY RF-SCORE:    0.00 PKD
ROOT
HETATM    1  C   UNL     1      -9.994   1.723  68.831  1.00  0.00     0.343 C  
HETATM    2  C   UNL     1     -10.000   1.644  67.317  1.00  0.00     0.872 C  
ENDROOT
BRANCH   2   3
HETATM    3  C   UNL     1      -8.592   1.474  66.741  1.00  0.00    -0.105 C  
BRANCH   3   4
HETATM    4  C   UNL     1      -8.440   2.346  65.500  1.00  0.00    -0.104 C  
BRANCH   4   5
HETATM    5  N   UNL     1      -7.310   3.260  65.617  1.00  0.00    -0.071 NA 
HETATM    6  H   UNL     1      -6.515   3.200  64.981  1.00  0.00     0.000 HD 
BRANCH   5   7
HETATM    7  C   UNL     1      -7.352   4.226  66.636  1.00  0.00    -0.080 A  
HETATM    8  C   UNL     1      -8.447   5.077  66.839  1.00  0.00    -0.106 A  
HETATM    9  C   UNL     1      -8.425   6.077  67.810  1.00  0.00    -0.107 A  
HETATM   10  C   UNL     1      -7.285   6.279  68.592  1.00  0.00    -0.085 A  
HETATM   11  C   UNL     1      -6.206   4.450  67.413  1.00  0.00    -0.036 A  
HETATM   12  C   UNL     1      -6.168   5.461  68.387  1.00  0.00    -0.030 A  
BRANCH  10  13
HETATM   13  C   UNL     1      -7.327   7.385  69.582  1.00  0.00    -0.091 C  
HETATM   14  O   UNL     1      -8.296   7.610  70.293  1.00  0.00    -0.128 OA 
BRANCH  13  15
HETATM   15  O   UNL     1      -6.183   8.106  69.561  1.00  0.00    -0.033 OA 
BRANCH  15  16
HETATM   16  C   UNL     1      -5.677   8.391  68.243  1.00  0.00    -0.035 C  
BRANCH  16  17
HETATM   17  C   UNL     1      -6.797   8.378  67.203  1.00  0.00    -0.070 C  
BRANCH  17  18
HETATM   18  O   UNL     1      -7.278   9.713  67.013  1.00  0.00    -0.086 OA 
BRANCH  18  19
HETATM   19  C   UNL     1      -7.443  10.012  65.629  1.00  0.00    -0.137 C  
BRANCH  19  20
HETATM   20  C   UNL     1      -6.320  10.933  65.170  1.00  0.00     0.196 C  
BRANCH  20  21
HETATM   21  O   UNL     1      -5.491  11.246  66.288  1.00  0.00    -0.134 OA 
BRANCH  21  22
HETATM   22  C   UNL     1      -5.976  12.387  66.993  1.00  0.00     0.031 C  
BRANCH  22  23
HETATM   23  C   UNL     1      -5.167  12.565  68.271  1.00  0.00    -0.062 C  
BRANCH  23  24
HETATM   24  O   UNL     1      -5.961  13.254  69.234  1.00  0.00    -0.083 OA 
BRANCH  24  25
HETATM   25  C   UNL     1      -7.340  12.911  69.107  1.00  0.00     0.147 C  
BRANCH  25  26
HETATM   26  C   UNL     1      -7.478  11.395  69.123  1.00  0.00    -0.057 C  
BRANCH  26  27
HETATM   27  O   UNL     1      -8.856  11.057  69.251  1.00  0.00    -0.050 OA 
BRANCH  27  28
HETATM   28  C   UNL     1      -9.657  11.799  68.334  1.00  0.00    -0.191 C  
BRANCH  28  29
HETATM   29  C   UNL     1      -9.994  13.148  68.950  1.00  0.00     0.081 C  
BRANCH  29  30
HETATM   30  O   UNL     1      -9.088  14.125  68.444  1.00  0.00    -0.186 OA 
BRANCH  30  31
HETATM   31  C   UNL     1      -9.605  15.442  68.614  1.00  0.00    -0.204 C  
BRANCH  31  32
HETATM   32  C   UNL     1     -10.683  15.690  67.571  1.00  0.00    -0.303 C  
BRANCH  32  33
HETATM   33  O   UNL     1     -10.401  14.901  66.419  1.00  0.00    -0.271 OA 
BRANCH  33  34
HETATM   34  C   UNL     1     -10.547  15.665  65.226  1.00  0.00    -0.426 C  
BRANCH  34  35
HETATM   35  C   UNL     1     -10.294  17.131  65.544  1.00  0.00    -0.115 C  
BRANCH  35  36
HETATM   36  O   UNL     1      -8.953  17.281  66.003  1.00  0.00    -0.486 OA 
BRANCH  36  37
HETATM   37  C   UNL     1      -8.546  18.646  65.972  1.00  0.00    -0.001 C  
BRANCH  37  38
HETATM   38  C   UNL     1      -7.032  18.709  65.830  1.00  0.00    -0.270 C  
BRANCH  38  39
HETATM   39  O   UNL     1      -6.481  19.338  66.984  1.00  0.00    -0.190 OA 
BRANCH  39  40
HETATM   40  C   UNL     1      -6.865  18.657  68.178  1.00  0.00    -0.230 C  
BRANCH  40  41
HETATM   41  C   UNL     1      -6.902  19.653  69.329  1.00  0.00    -0.355 C  
BRANCH  41  42
HETATM   42  O   UNL     1      -5.862  20.612  69.157  1.00  0.00    -0.335 OA 
HETATM   43  C   UNL     1      -5.153  20.829  70.370  1.00  0.00    -0.298 C  
ENDBRANCH  41  42
ENDBRANCH  40  41
ENDBRANCH  39  40
ENDBRANCH  38  39
ENDBRANCH  37  38
ENDBRANCH  36  37
ENDBRANCH  35  36
ENDBRANCH  34  35
ENDBRANCH  33  34
ENDBRANCH  32  33
ENDBRANCH  31  32
ENDBRANCH  30  31
ENDBRANCH  29  30
ENDBRANCH  28  29
ENDBRANCH  27  28
ENDBRANCH  26  27
ENDBRANCH  25  26
ENDBRANCH  24  25
ENDBRANCH  23  24
ENDBRANCH  22  23
ENDBRANCH  21  22
ENDBRANCH  20  21
ENDBRANCH  19  20
ENDBRANCH  18  19
ENDBRANCH  17  18
ENDBRANCH  16  17
ENDBRANCH  15  16
ENDBRANCH  13  15
ENDBRANCH  10  13
ENDBRANCH   5   7
ENDBRANCH   4   5
ENDBRANCH   3   4
ENDBRANCH   2   3
TORSDOF 33
ENDMDL
MODEL      222
REMARK 921   NORMALIZED FREE ENERGY PREDICTED BY IDOCK:    3.73 KCAL/MOL
REMARK 922        TOTAL FREE ENERGY PREDICTED BY IDOCK:    8.14 KCAL/MOL
REMARK 923 INTER-LIGAND FREE ENERGY PREDICTED BY IDOCK:    0.50 KCAL/MOL
REMARK 924 INTRA-LIGAND FREE ENERGY PREDICTED BY IDOCK:    7.63 KCAL/MOL
REMARK 927      BINDING AFFINITY PREDICTED BY RF-SCORE:    0.00 PKD
ROOT
HETATM    1  C   UNL     1      -7.369   5.830  69.113  1.00  0.00    -0.083 C  
HETATM    2  C   UNL     1      -7.541   5.582  70.599  1.00  0.00    -0.089 C  
ENDROOT
BRANCH   2   3
HETATM    3  C   UNL     1      -6.355   6.108  71.413  1.00  0.00    -0.049 C  
BRANCH   3   4
HETATM    4  C   UNL     1      -6.106   7.571  71.062  1.00  0.00    -0.035 C  
BRANCH   4   5
HETATM    5  N   UNL     1      -7.049   8.053  70.060  1.00  0.00    -0.049 NA 
HETATM    6  H   UNL     1      -7.652   7.408  69.550  1.00  0.00     0.000 HD 
BRANCH   5   7
HETATM    7  C   UNL     1      -7.100   9.436  69.821  1.00  0.00    -0.068 A  
HETATM    8  C   UNL     1      -8.280  10.186  69.917  1.00  0.00    -0.128 A  
HETATM    9  C   UNL     1      -8.310  11.544  69.599  1.00  0.00     0.991 A  
HETATM   10  C   UNL     1      -7.160  12.189  69.140  1.00  0.00    -0.015 A  
HETATM   11  C   UNL     1      -5.955  10.089  69.342  1.00  0.00    -0.037 A  
HETATM   12  C   UNL     1      -5.977  11.453  69.008  1.00  0.00    -0.051 A  
BRANCH  10  13
HETATM   13  C   UNL     1      -7.281  13.627  68.789  1.00  0.00    -0.100 C  
HETATM   14  O   UNL     1      -8.142  14.359  69.256  1.00  0.00    -0.047 OA 
BRANCH  13  15
HETATM   15  O   UNL     1      -6.347  13.991  67.882  1.00  0.00    -0.134 OA 
BRANCH  15  16
HETATM   16  C   UNL     1      -6.069  15.403  67.841  1.00  0.00    -0.150 C  
BRANCH  16  17
HETATM   17  C   UNL     1      -5.228  15.769  66.618  1.00  0.00     1.251 C  
BRANCH  17  18
HETATM   18  O   UNL     1      -5.231  17.190  66.451  1.00  0.00    -0.268 OA 
BRANCH  18  19
HETATM   19  C   UNL     1      -6.474  17.757  66.859  1.00  0.00    -0.170 C  
BRANCH  19  20
HETATM   20  C   UNL     1      -7.620  16.938  66.281  1.00  0.00    -0.277 C  
BRANCH  20  21
HETATM   21  O   UNL     1      -8.756  17.059  67.136  1.00  0.00    -0.201 OA 
BRANCH  21  22
HETATM   22  C   UNL     1      -8.449  17.813  68.306  1.00  0.00    -0.277 C  
BRANCH  22  23
HETATM   23  C   UNL     1      -9.586  17.666  69.308  1.00  0.00     0.063 C  
BRANCH  23  24
HETATM   24  O   UNL     1     -10.647  16.928  68.705  1.00  0.00    -0.321 OA 
BRANCH  24  25
HETATM   25  C   UNL     1     -10.609  17.037  67.284  1.00  0.00    -0.267 C  
BRANCH  25  26
HETATM   26  C   UNL     1     -10.845  15.664  66.673  1.00  0.00    -0.266 C  
BRANCH  26  27
HETATM   27  O   UNL     1     -12.124  15.187  67.084  1.00  0.00    -0.069 OA 
BRANCH  27  28
HETATM   28  C   UNL     1     -12.003  14.191  68.096  1.00  0.00    -0.332 C  
BRANCH  28  29
HETATM   29  C   UNL     1     -10.601  13.601  68.046  1.00  0.00    -0.249 C  
BRANCH  29  30
HETATM   30  O   UNL     1     -10.469  12.827  66.857  1.00  0.00    -0.239 OA 
BRANCH  30  31
HETATM   31  C   UNL     1      -9.307  13.204  66.123  1.00  0.00    -0.072 C  
BRANCH  31  32
HETATM   32  C   UNL     1      -9.036  12.158  65.053  1.00  0.00     0.658 C  
BRANCH  32  33
HETATM   33  O   UNL     1      -9.568  12.616  63.814  1.00  0.00    -0.112 OA 
BRANCH  33  34
HETATM   34  C   UNL     1     -10.988  12.499  63.792  1.00  0.00    -0.447 C  
BRANCH  34  35
HETATM   35  C   UNL     1     -11.372  11.070  64.149  1.00  0.00     0.374 C  
BRANCH  35  36
HETATM   36  O   UNL     1     -10.269  10.443  64.800  1.00  0.00    -0.345 OA 
BRANCH  36  37
HETATM   37  C   UNL     1     -10.575   9.097  65.151  1.00  0.00     2.580 C  
BRANCH  37  38
HETATM   38  C   UNL     1      -9.379   8.488  65.869  1.00  0.00    -0.163 C  
BRANCH  38  39
HETATM   39  O   UNL     1      -8.207   8.705  65.089  1.00  0.00    -0.133 OA 
BRANCH  39  40
HETATM   40  C   UNL     1      -7.334   7.577  65.142  1.00  0.00    -0.073 C  
BRANCH  40  41
HETATM   41  C   UNL     1      -6.099   7.863  64.300  1.00  0.00    -0.053 C  
BRANCH  41  42
HETATM   42  O   UNL     1      -5.331   6.669  64.165  1.00  0.00    -0.025 OA 
HETATM   43  C   UNL     1      -6.157   5.514  64.226  1.00  0.00    -0.022 C  
ENDBRANCH  41  42
ENDBRANCH  40  41
ENDBRANCH  39  40
ENDBRANCH  38  39
ENDBRANCH  37  38
ENDBRANCH  36  37
ENDBRANCH  35  36
ENDBRANCH  34  35
ENDBRANCH  33  34
ENDBRANCH  32  33
ENDBRANCH  31  32
ENDBRANCH  30  31
ENDBRANCH  29  30
ENDBRANCH  28  29
ENDBRANCH  27  28
ENDBRANCH  26  27
ENDBRANCH  25  26
ENDBRANCH  24  25
ENDBRANCH  23  24
ENDBRANCH  22  23
ENDBRANCH  21  22
ENDBRANCH  20  21
ENDBRANCH  19  20
ENDBRANCH  18  19
ENDBRANCH  17  18
ENDBRANCH  16  17
ENDBRANCH  15  16
ENDBRANCH  13  15
ENDBRANCH  10  13
ENDBRANCH   5   7
ENDBRANCH   4   5
ENDBRANCH   3   4
ENDBRANCH   2   3
TORSDOF 33
ENDMDL
MODEL      223
REMARK 921   NORMALIZED FREE ENERGY PREDICTED BY IDOCK:    4.99 KCAL/MOL
REMARK 922        TOTAL FREE ENERGY PREDICTED BY IDOCK:   11.83 KCAL/MOL
REMARK 923 INTER-LIGAND FREE ENERGY PREDICTED BY IDOCK:    2.68 KCAL/MOL
REMARK 924 INTRA-LIGAND FREE ENERGY PREDICTED BY IDOCK:    9.15 KCAL/MOL
REMARK 927      BINDING AFFINITY PREDICTED BY RF-SCORE:    0.00 PKD
ROOT
HETATM    1  C   UNL     1      -7.615   3.742  70.270  1.00  0.00    -0.044 C  
HETATM    2  C   UNL     1      -8.850   3.787  69.391  1.00  0.00    -0.146 C  
ENDROOT
BRANCH   2   3
HETATM    3  C   UNL     1      -8.978   2.542  68.509  1.00  0.00    -0.179 C  
BRANCH   3   4
HETATM    4  C   UNL     1      -9.674   2.912  67.204  1.00  0.00     0.276 C  
BRANCH   4   5
HETATM    5  N   UNL     1     -10.591   4.032  67.381  1.00  0.00     0.553 NA 
HETATM    6  H   UNL     1     -11.602   3.897  67.346  1.00  0.00     0.000 HD 
BRANCH   5   7
HETATM    7  C   UNL     1     -10.037   5.304  67.602  1.00  0.00    -0.171 A  
HETATM    8  C   UNL     1      -9.940   6.281  66.602  1.00  0.00    -0.207 A  
HETATM    9  C   UNL     1      -9.314   7.505  66.836  1.00  0.00    -0.197 A  
HETATM   10  C   UNL     1      -8.733   7.778  68.076  1.00  0.00    -0.125 A  
HETATM   11  C   UNL     1      -9.435   5.580  68.839  1.00  0.00    -0.165 A  
HETATM   12  C   UNL     1      -8.792   6.806  69.081  1.00  0.00    -0.134 A  
BRANCH  10  13
HETATM   13  C   UNL     1      -8.056   9.090  68.236  1.00  0.00    -0.109 C  
HETATM   14  O   UNL     1      -8.586  10.055  68.768  1.00  0.00    -0.119 OA 
BRANCH  13  15
HETATM   15  O   UNL     1      -6.817   9.072  67.696  1.00  0.00    -0.069 OA 
BRANCH  15  16
HETATM   16  C   UNL     1      -5.779   9.575  68.558  1.00  0.00    -0.040 C  
BRANCH  16  17
HETATM   17  C   UNL     1      -5.391  11.006  68.184  1.00  0.00    -0.039 C  
BRANCH  17  18
HETATM   18  O   UNL     1      -6.475  11.886  68.499  1.00  0.00    -0.052 OA 
BRANCH  18  19
HETATM   19  C   UNL     1      -6.150  13.239  68.190  1.00  0.00    -0.108 C  
BRANCH  19  20
HETATM   20  C   UNL     1      -5.127  13.758  69.191  1.00  0.00    -0.074 C  
BRANCH  20  21
HETATM   21  O   UNL     1      -5.559  15.026  69.683  1.00  0.00    -0.094 OA 
BRANCH  21  22
HETATM   22  C   UNL     1      -6.146  14.909  70.977  1.00  0.00     0.107 C  
BRANCH  22  23
HETATM   23  C   UNL     1      -7.348  15.840  71.066  1.00  0.00     2.544 C  
BRANCH  23  24
HETATM   24  O   UNL     1      -8.352  15.395  70.155  1.00  0.00     0.134 OA 
BRANCH  24  25
HETATM   25  C   UNL     1      -8.714  16.428  69.241  1.00  0.00    -0.108 C  
BRANCH  25  26
HETATM   26  C   UNL     1      -9.143  15.798  67.924  1.00  0.00    -0.186 C  
BRANCH  26  27
HETATM   27  O   UNL     1      -8.682  14.451  67.882  1.00  0.00    -0.154 OA 
BRANCH  27  28
HETATM   28  C   UNL     1      -9.258  13.742  66.788  1.00  0.00    -0.244 C  
BRANCH  28  29
HETATM   29  C   UNL     1      -9.548  14.722  65.661  1.00  0.00    -0.200 C  
BRANCH  29  30
HETATM   30  O   UNL     1     -10.398  14.090  64.707  1.00  0.00    -0.423 OA 
BRANCH  30  31
HETATM   31  C   UNL     1     -10.330  12.671  64.819  1.00  0.00    -0.312 C  
BRANCH  31  32
HETATM   32  C   UNL     1      -8.883  12.261  65.045  1.00  0.00     0.987 C  
BRANCH  32  33
HETATM   33  O   UNL     1      -8.528  11.271  64.085  1.00  0.00     0.243 OA 
BRANCH  33  34
HETATM   34  C   UNL     1      -9.582  10.330  63.904  1.00  0.00    -0.293 C  
BRANCH  34  35
HETATM   35  C   UNL     1      -9.554   9.331  65.052  1.00  0.00     0.050 C  
BRANCH  35  36
HETATM   36  O   UNL     1      -9.962   9.989  66.249  1.00  0.00    -0.218 OA 
BRANCH  36  37
HETATM   37  C   UNL     1     -11.382  10.083  66.328  1.00  0.00     1.176 C  
BRANCH  37  38
HETATM   38  C   UNL     1     -11.803   9.996  67.788  1.00  0.00     1.563 C  
BRANCH  38  39
HETATM   39  O   UNL     1     -12.542  11.165  68.131  1.00  0.00     0.156 OA 
BRANCH  39  40
HETATM   40  C   UNL     1     -11.982  11.816  69.270  1.00  0.00    -0.291 C  
BRANCH  40  41
HETATM   41  C   UNL     1     -12.239  13.313  69.165  1.00  0.00    -0.124 C  
BRANCH  41  42
HETATM   42  O   UNL     1     -12.541  13.833  70.458  1.00  0.00    -0.327 OA 
HETATM   43  C   UNL     1     -13.083  12.829  71.305  1.00  0.00    -0.157 C  
ENDBRANCH  41  42
ENDBRANCH  40  41
ENDBRANCH  39  40
ENDBRANCH  38  39
ENDBRANCH  37  38
ENDBRANCH  36  37
ENDBRANCH  35  36
ENDBRANCH  34  35
ENDBRANCH  33  34
ENDBRANCH  32  33
ENDBRANCH  31  32
ENDBRANCH  30  31
ENDBRANCH  29  30
ENDBRANCH  28  29
ENDBRANCH  27  28
ENDBRANCH  26  27
ENDBRANCH  25  26
ENDBRANCH  24  25
ENDBRANCH  23  24
ENDBRANCH  22  23
ENDBRANCH  21  22
ENDBRANCH  20  21
ENDBRANCH  19  20
ENDBRANCH  18  19
ENDBRANCH  17  18
ENDBRANCH  16  17
ENDBRANCH  15  16
ENDBRANCH  13  15
ENDBRANCH  10  13
ENDBRANCH   5   7
ENDBRANCH   4   5
ENDBRANCH   3   4
ENDBRANCH   2   3
TORSDOF 33
ENDMDL
MODEL      224
REMARK 921   NORMALIZED FREE ENERGY PREDICTED BY IDOCK:    5.80 KCAL/MOL
REMARK 922        TOTAL FREE ENERGY PREDICTED BY IDOCK:   14.20 KCAL/MOL
REMARK 923 INTER-LIGAND FREE ENERGY PREDICTED BY IDOCK:    5.58 KCAL/MOL
REMARK 924 INTRA-LIGAND FREE ENERGY PREDICTED BY IDOCK:    8.61 KCAL/MOL
REMARK 927      BINDING AFFINITY PREDICTED BY RF-SCORE:    0.00 PKD
ROOT
HETATM    1  C   UNL     1      -6.574  17.630  71.932  1.00  0.00     4.443 C  
HETATM    2  C   UNL     1      -5.898  16.770  72.982  1.00  0.00     3.190 C  
ENDROOT
BRANCH   2   3
HETATM    3  C   UNL     1      -5.136  15.595  72.364  1.00  0.00     0.381 C  
BRANCH   3   4
HETATM    4  C   UNL     1      -5.463  15.502  70.878  1.00  0.00    -0.059 C  
BRANCH   4   5
HETATM    5  N   UNL     1      -6.745  16.125  70.568  1.00  0.00     0.665 NA 
HETATM    6  H   UNL     1      -6.973  17.058  70.909  1.00  0.00     0.000 HD 
BRANCH   5   7
HETATM    7  C   UNL     1      -7.654  15.396  69.783  1.00  0.00    -0.091 A  
HETATM    8  C   UNL     1      -9.044  15.529  69.901  1.00  0.00     0.088 A  
HETATM    9  C   UNL     1      -9.918  14.735  69.160  1.00  0.00    -0.184 A  
HETATM   10  C   UNL     1      -9.426  13.753  68.298  1.00  0.00    -0.214 A  
HETATM   11  C   UNL     1      -7.169  14.395  68.929  1.00  0.00    -0.125 A  
HETATM   12  C   UNL     1      -8.041  13.582  68.186  1.00  0.00    -0.154 A  
BRANCH  10  13
HETATM   13  C   UNL     1     -10.421  12.926  67.569  1.00  0.00    -0.223 C  
HETATM   14  O   UNL     1     -11.274  12.256  68.133  1.00  0.00    -0.232 OA 
BRANCH  13  15
HETATM   15  O   UNL     1     -10.231  12.994  66.232  1.00  0.00    -0.274 OA 
BRANCH  15  16
HETATM   16  C   UNL     1      -9.043  12.332  65.760  1.00  0.00     0.122 C  
BRANCH  16  17
HETATM   17  C   UNL     1      -9.383  11.224  64.764  1.00  0.00    -0.145 C  
BRANCH  17  18
HETATM   18  O   UNL     1      -8.309  10.278  64.726  1.00  0.00    -0.164 OA 
BRANCH  18  19
HETATM   19  C   UNL     1      -7.303  10.673  63.796  1.00  0.00     0.217 C  
BRANCH  19  20
HETATM   20  C   UNL     1      -6.791   9.448  63.050  1.00  0.00    -0.098 C  
BRANCH  20  21
HETATM   21  O   UNL     1      -7.890   8.804  62.406  1.00  0.00    -0.123 OA 
BRANCH  21  22
HETATM   22  C   UNL     1      -8.389   7.721  63.188  1.00  0.00     0.086 C  
BRANCH  22  23
HETATM   23  C   UNL     1      -7.277   7.202  64.091  1.00  0.00    -0.069 C  
BRANCH  23  24
HETATM   24  O   UNL     1      -7.332   7.887  65.341  1.00  0.00    -0.072 OA 
BRANCH  24  25
HETATM   25  C   UNL     1      -6.140   7.681  66.096  1.00  0.00    -0.038 C  
BRANCH  25  26
HETATM   26  C   UNL     1      -6.386   8.102  67.537  1.00  0.00    -0.056 C  
BRANCH  26  27
HETATM   27  O   UNL     1      -5.134   8.205  68.210  1.00  0.00    -0.030 OA 
BRANCH  27  28
HETATM   28  C   UNL     1      -5.313   8.543  69.583  1.00  0.00    -0.030 C  
BRANCH  28  29
HETATM   29  C   UNL     1      -5.379  10.057  69.716  1.00  0.00    -0.037 C  
BRANCH  29  30
HETATM   30  O   UNL     1      -6.650  10.506  69.253  1.00  0.00    -0.048 OA 
BRANCH  30  31
HETATM   31  C   UNL     1      -7.548   9.413  69.076  1.00  0.00    -0.074 C  
BRANCH  31  32
HETATM   32  C   UNL     1      -8.209   9.095  70.408  1.00  0.00    -0.171 C  
BRANCH  32  33
HETATM   33  O   UNL     1      -9.588   8.817  70.185  1.00  0.00    -0.163 OA 
BRANCH  33  34
HETATM   34  C   UNL     1      -9.755   7.841  69.160  1.00  0.00    -0.161 C  
BRANCH  34  35
HETATM   35  C   UNL     1      -9.963   8.552  67.831  1.00  0.00    -0.181 C  
BRANCH  35  36
HETATM   36  O   UNL     1     -11.270   8.254  67.346  1.00  0.00     0.212 OA 
BRANCH  36  37
HETATM   37  C   UNL     1     -11.390   6.878  66.995  1.00  0.00     0.159 C  
BRANCH  37  38
HETATM   38  C   UNL     1     -10.752   6.032  68.088  1.00  0.00    -0.278 C  
BRANCH  38  39
HETATM   39  O   UNL     1      -9.423   5.695  67.702  1.00  0.00    -0.112 OA 
BRANCH  39  40
HETATM   40  C   UNL     1      -9.039   4.424  68.224  1.00  0.00    -0.127 C  
BRANCH  40  41
HETATM   41  C   UNL     1      -7.723   4.570  68.976  1.00  0.00    -0.070 C  
BRANCH  41  42
HETATM   42  O   UNL     1      -7.948   5.289  70.187  1.00  0.00    -0.078 OA 
HETATM   43  C   UNL     1      -8.439   4.436  71.211  1.00  0.00    -0.098 C  
ENDBRANCH  41  42
ENDBRANCH  40  41
ENDBRANCH  39  40
ENDBRANCH  38  39
ENDBRANCH  37  38
ENDBRANCH  36  37
ENDBRANCH  35  36
ENDBRANCH  34  35
ENDBRANCH  33  34
ENDBRANCH  32  33
ENDBRANCH  31  32
ENDBRANCH  30  31
ENDBRANCH  29  30
ENDBRANCH  28  29
ENDBRANCH  27  28
ENDBRANCH  26  27
ENDBRANCH  25  26
ENDBRANCH  24  25
ENDBRANCH  23  24
ENDBRANCH  22  23
ENDBRANCH  21  22
ENDBRANCH  20  21
ENDBRANCH  19  20
ENDBRANCH  18  19
ENDBRANCH  17  18
ENDBRANCH  16  17
ENDBRANCH  15  16
ENDBRANCH  13  15
ENDBRANCH  10  13
ENDBRANCH   5   7
ENDBRANCH   4   5
ENDBRANCH   3   4
ENDBRANCH   2   3
TORSDOF 33
ENDMDL
MODEL      225
REMARK 921   NORMALIZED FREE ENERGY PREDICTED BY IDOCK:    7.46 KCAL/MOL
REMARK 922        TOTAL FREE ENERGY PREDICTED BY IDOCK:   19.04 KCAL/MOL
REMARK 923 INTER-LIGAND FREE ENERGY PREDICTED BY IDOCK:    6.11 KCAL/MOL
REMARK 924 INTRA-LIGAND FREE ENERGY PREDICTED BY IDOCK:   12.93 KCAL/MOL
REMARK 927      BINDING AFFINITY PREDICTED BY RF-SCORE:    0.00 PKD
ROOT
HETATM    1  C   UNL     1      -7.111   5.725  69.804  1.00  0.00    -0.068 C  
HETATM    2  C   UNL     1      -7.146   5.481  71.300  1.00  0.00    -0.071 C  
ENDROOT
BRANCH   2   3
HETATM    3  C   UNL     1      -5.867   5.960  71.994  1.00  0.00    -0.031 C  
BRANCH   3   4
HETATM    4  C   UNL     1      -5.613   7.421  71.640  1.00  0.00    -0.036 C  
BRANCH   4   5
HETATM    5  N   UNL     1      -6.752   8.015  70.949  1.00  0.00    -0.037 NA 
HETATM    6  H   UNL     1      -7.568   7.455  70.700  1.00  0.00     0.000 HD 
BRANCH   5   7
HETATM    7  C   UNL     1      -6.688   9.382  70.636  1.00  0.00    -0.097 A  
HETATM    8  C   UNL     1      -7.572  10.331  71.168  1.00  0.00     1.689 A  
HETATM    9  C   UNL     1      -7.529  11.669  70.777  1.00  0.00     3.776 A  
HETATM   10  C   UNL     1      -6.615  12.095  69.811  1.00  0.00     0.016 A  
HETATM   11  C   UNL     1      -5.787   9.817  69.653  1.00  0.00    -0.037 A  
HETATM   12  C   UNL     1      -5.742  11.160  69.244  1.00  0.00    -0.042 A  
BRANCH  10  13
HETATM   13  C   UNL     1      -6.654  13.528  69.423  1.00  0.00    -0.082 C  
HETATM   14  O   UNL     1      -7.087  14.407  70.154  1.00  0.00    -0.010 OA 
BRANCH  13  15
HETATM   15  O   UNL     1      -6.183  13.711  68.169  1.00  0.00    -0.090 OA 
BRANCH  15  16
HETATM   16  C   UNL     1      -5.775  15.059  67.871  1.00  0.00    -0.130 C  
BRANCH  16  17
HETATM   17  C   UNL     1      -5.260  15.180  66.437  1.00  0.00     3.152 C  
BRANCH  17  18
HETATM   18  O   UNL     1      -5.134  16.564  66.096  1.00  0.00    -0.069 OA 
BRANCH  18  19
HETATM   19  C   UNL     1      -6.138  17.348  66.737  1.00  0.00    -0.190 C  
BRANCH  19  20
HETATM   20  C   UNL     1      -7.506  16.729  66.485  1.00  0.00    -0.287 C  
BRANCH  20  21
HETATM   21  O   UNL     1      -8.315  16.899  67.648  1.00  0.00    -0.181 OA 
BRANCH  21  22
HETATM   22  C   UNL     1      -7.547  17.375  68.751  1.00  0.00    -0.252 C  
BRANCH  22  23
HETATM   23  C   UNL     1      -8.360  17.218  70.029  1.00  0.00     2.028 C  
BRANCH  23  24
HETATM   24  O   UNL     1      -9.673  16.771  69.696  1.00  0.00    -0.036 OA 
BRANCH  24  25
HETATM   25  C   UNL     1     -10.002  17.096  68.348  1.00  0.00    -0.310 C  
BRANCH  25  26
HETATM   26  C   UNL     1     -10.512  15.847  67.644  1.00  0.00    -0.289 C  
BRANCH  26  27
HETATM   27  O   UNL     1     -11.649  15.351  68.347  1.00  0.00    -0.341 OA 
BRANCH  27  28
HETATM   28  C   UNL     1     -11.318  14.195  69.112  1.00  0.00    -0.279 C  
BRANCH  28  29
HETATM   29  C   UNL     1     -10.023  13.601  68.579  1.00  0.00    -0.208 C  
BRANCH  29  30
HETATM   30  O   UNL     1     -10.256  13.086  67.271  1.00  0.00    -0.235 OA 
BRANCH  30  31
HETATM   31  C   UNL     1      -9.338  13.636  66.330  1.00  0.00    -0.133 C  
BRANCH  31  32
HETATM   32  C   UNL     1      -9.427  12.846  65.032  1.00  0.00     0.369 C  
BRANCH  32  33
HETATM   33  O   UNL     1      -9.944  13.694  64.011  1.00  0.00     0.016 OA 
BRANCH  33  34
HETATM   34  C   UNL     1     -11.313  14.006  64.247  1.00  0.00    -0.262 C  
BRANCH  34  35
HETATM   35  C   UNL     1     -11.955  12.862  65.018  1.00  0.00    -0.405 C  
BRANCH  35  36
HETATM   36  O   UNL     1     -10.928  12.043  65.571  1.00  0.00    -0.282 OA 
BRANCH  36  37
HETATM   37  C   UNL     1     -11.415  10.738  65.874  1.00  0.00     0.785 C  
BRANCH  37  38
HETATM   38  C   UNL     1     -10.283   9.913  66.469  1.00  0.00    -0.222 C  
BRANCH  38  39
HETATM   39  O   UNL     1     -10.729   9.319  67.685  1.00  0.00    -0.269 OA 
BRANCH  39  40
HETATM   40  C   UNL     1     -10.083   8.068  67.917  1.00  0.00    -0.194 C  
BRANCH  40  41
HETATM   41  C   UNL     1     -10.080   7.778  69.412  1.00  0.00    -0.195 C  
BRANCH  41  42
HETATM   42  O   UNL     1     -11.109   6.837  69.712  1.00  0.00    -0.281 OA 
HETATM   43  C   UNL     1     -10.974   5.657  68.933  1.00  0.00    -0.066 C  
ENDBRANCH  41  42
ENDBRANCH  40  41
ENDBRANCH  39  40
ENDBRANCH  38  39
ENDBRANCH  37  38
ENDBRANCH  36  37
ENDBRANCH  35  36
ENDBRANCH  34  35
ENDBRANCH  33  34
ENDBRANCH  32  33
ENDBRANCH  31  32
ENDBRANCH  30  31
ENDBRANCH  29  30
ENDBRANCH  28  29
ENDBRANCH  27  28
ENDBRANCH  26  27
ENDBRANCH  25  26
ENDBRANCH  24  25
ENDBRANCH  23  24
ENDBRANCH  22  23
ENDBRANCH  21  22
ENDBRANCH  20  21
ENDBRANCH  19  20
ENDBRANCH  18  19
ENDBRANCH  17  18
ENDBRANCH  16  17
ENDBRANCH  15  16
ENDBRANCH  13  15
ENDBRANCH  10  13
ENDBRANCH   5   7
ENDBRANCH   4   5
ENDBRANCH   3   4
ENDBRANCH   2   3
TORSDOF 33
ENDMDL
MODEL      226
REMARK 921   NORMALIZED FREE ENERGY PREDICTED BY IDOCK:    8.59 KCAL/MOL
REMARK 922        TOTAL FREE ENERGY PREDICTED BY IDOCK:   22.35 KCAL/MOL
REMARK 923 INTER-LIGAND FREE ENERGY PREDICTED BY IDOCK:    5.12 KCAL/MOL
REMARK 924 INTRA-LIGAND FREE ENERGY PREDICTED BY IDOCK:   17.23 KCAL/MOL
REMARK 927      BINDING AFFINITY PREDICTED BY RF-SCORE:    0.00 PKD
ROOT
HETATM    1  C   UNL     1      -7.646   3.732  70.275  1.00  0.00    -0.044 C  
HETATM    2  C   UNL     1      -8.916   3.756  69.445  1.00  0.00    -0.175 C  
ENDROOT
BRANCH   2   3
HETATM    3  C   UNL     1      -9.107   2.467  68.643  1.00  0.00    -0.200 C  
BRANCH   3   4
HETATM    4  C   UNL     1      -9.823   2.783  67.334  1.00  0.00     0.554 C  
BRANCH   4   5
HETATM    5  N   UNL     1     -10.700   3.941  67.465  1.00  0.00     1.149 NA 
HETATM    6  H   UNL     1     -11.708   3.856  67.335  1.00  0.00     0.000 HD 
BRANCH   5   7
HETATM    7  C   UNL     1     -10.110   5.177  67.776  1.00  0.00    -0.144 A  
HETATM    8  C   UNL     1      -9.758   6.123  66.804  1.00  0.00    -0.191 A  
HETATM    9  C   UNL     1      -9.105   7.308  67.142  1.00  0.00    -0.144 A  
HETATM   10  C   UNL     1      -8.751   7.568  68.467  1.00  0.00    -0.128 A  
HETATM   11  C   UNL     1      -9.735   5.439  69.102  1.00  0.00    -0.217 A  
HETATM   12  C   UNL     1      -9.066   6.625  69.452  1.00  0.00    -0.143 A  
BRANCH  10  13
HETATM   13  C   UNL     1      -8.027   8.836  68.741  1.00  0.00    -0.106 C  
HETATM   14  O   UNL     1      -8.568   9.827  69.211  1.00  0.00    -0.134 OA 
BRANCH  13  15
HETATM   15  O   UNL     1      -6.728   8.748  68.378  1.00  0.00    -0.062 OA 
BRANCH  15  16
HETATM   16  C   UNL     1      -5.793   9.192  69.378  1.00  0.00    -0.034 C  
BRANCH  16  17
HETATM   17  C   UNL     1      -5.250  10.584  69.052  1.00  0.00    -0.041 C  
BRANCH  17  18
HETATM   18  O   UNL     1      -6.323  11.531  69.100  1.00  0.00    -0.062 OA 
BRANCH  18  19
HETATM   19  C   UNL     1      -5.853  12.857  68.870  1.00  0.00    -0.075 C  
BRANCH  19  20
HETATM   20  C   UNL     1      -5.154  13.373  70.121  1.00  0.00    -0.088 C  
BRANCH  20  21
HETATM   21  O   UNL     1      -5.599  14.703  70.386  1.00  0.00    -0.120 OA 
BRANCH  21  22
HETATM   22  C   UNL     1      -6.406  14.758  71.560  1.00  0.00     0.579 C  
BRANCH  22  23
HETATM   23  C   UNL     1      -7.601  15.666  71.303  1.00  0.00     3.471 C  
BRANCH  23  24
HETATM   24  O   UNL     1      -8.397  15.106  70.259  1.00  0.00     0.319 OA 
BRANCH  24  25
HETATM   25  C   UNL     1      -8.366  15.924  69.092  1.00  0.00    -0.253 C  
BRANCH  25  26
HETATM   26  C   UNL     1      -8.467  15.036  67.860  1.00  0.00    -0.147 C  
BRANCH  26  27
HETATM   27  O   UNL     1      -8.145  13.697  68.226  1.00  0.00    -0.141 OA 
BRANCH  27  28
HETATM   28  C   UNL     1      -8.455  12.786  67.174  1.00  0.00    -0.181 C  
BRANCH  28  29
HETATM   29  C   UNL     1      -8.453  13.538  65.851  1.00  0.00     1.504 C  
BRANCH  29  30
HETATM   30  O   UNL     1      -9.105  12.739  64.867  1.00  0.00     0.658 OA 
BRANCH  30  31
HETATM   31  C   UNL     1      -9.130  11.367  65.251  1.00  0.00    -0.074 C  
BRANCH  31  32
HETATM   32  C   UNL     1      -7.721  10.932  65.625  1.00  0.00     0.012 C  
BRANCH  32  33
HETATM   33  O   UNL     1      -7.484   9.632  65.095  1.00  0.00    -0.105 OA 
BRANCH  33  34
HETATM   34  C   UNL     1      -8.426   9.314  64.075  1.00  0.00    -0.193 C  
BRANCH  34  35
HETATM   35  C   UNL     1      -9.717   8.839  64.726  1.00  0.00     1.122 C  
BRANCH  35  36
HETATM   36  O   UNL     1     -10.403   9.964  65.269  1.00  0.00    -0.186 OA 
BRANCH  36  37
HETATM   37  C   UNL     1     -10.533  11.004  64.304  1.00  0.00    -0.359 C  
BRANCH  37  38
HETATM   38  C   UNL     1     -11.988  11.448  64.247  1.00  0.00     0.243 C  
BRANCH  38  39
HETATM   39  O   UNL     1     -12.171  12.303  63.121  1.00  0.00    -0.443 OA 
BRANCH  39  40
HETATM   40  C   UNL     1     -12.685  13.574  63.516  1.00  0.00     0.248 C  
BRANCH  40  41
HETATM   41  C   UNL     1     -12.092  13.953  64.866  1.00  0.00    -0.414 C  
BRANCH  41  42
HETATM   42  O   UNL     1     -12.302  15.345  65.101  1.00  0.00     0.195 OA 
HETATM   43  C   UNL     1     -11.154  16.106  64.753  1.00  0.00    -0.333 C  
ENDBRANCH  41  42
ENDBRANCH  40  41
ENDBRANCH  39  40
ENDBRANCH  38  39
ENDBRANCH  37  38
ENDBRANCH  36  37
ENDBRANCH  35  36
ENDBRANCH  34  35
ENDBRANCH  33  34
ENDBRANCH  32  33
ENDBRANCH  31  32
ENDBRANCH  30  31
ENDBRANCH  29  30
ENDBRANCH  28  29
ENDBRANCH  27  28
ENDBRANCH  26  27
ENDBRANCH  25  26
ENDBRANCH  24  25
ENDBRANCH  23  24
ENDBRANCH  22  23
ENDBRANCH  21  22
ENDBRANCH  20  21
ENDBRANCH  19  20
ENDBRANCH  18  19
ENDBRANCH  17  18
ENDBRANCH  16  17
ENDBRANCH  15  16
ENDBRANCH  13  15
ENDBRANCH  10  13
ENDBRANCH   5   7
ENDBRANCH   4   5
ENDBRANCH   3   4
ENDBRANCH   2   3
TORSDOF 33
ENDMDL
MODEL      227
REMARK 921   NORMALIZED FREE ENERGY PREDICTED BY IDOCK:   10.63 KCAL/MOL
REMARK 922        TOTAL FREE ENERGY PREDICTED BY IDOCK:   28.34 KCAL/MOL
REMARK 923 INTER-LIGAND FREE ENERGY PREDICTED BY IDOCK:    7.70 KCAL/MOL
REMARK 924 INTRA-LIGAND FREE ENERGY PREDICTED BY IDOCK:   20.64 KCAL/MOL
REMARK 927      BINDING AFFINITY PREDICTED BY RF-SCORE:    0.00 PKD
ROOT
HETATM    1  C   UNL     1      -7.655   3.736  70.271  1.00  0.00    -0.044 C  
HETATM    2  C   UNL     1      -8.917   3.757  69.430  1.00  0.00    -0.175 C  
ENDROOT
BRANCH   2   3
HETATM    3  C   UNL     1      -9.109   2.457  68.644  1.00  0.00    -0.200 C  
BRANCH   3   4
HETATM    4  C   UNL     1      -9.810   2.759  67.324  1.00  0.00     0.581 C  
BRANCH   4   5
HETATM    5  N   UNL     1     -10.682   3.924  67.431  1.00  0.00     1.062 NA 
HETATM    6  H   UNL     1     -11.687   3.846  67.277  1.00  0.00     0.000 HD 
BRANCH   5   7
HETATM    7  C   UNL     1     -10.091   5.157  67.752  1.00  0.00    -0.144 A  
HETATM    8  C   UNL     1      -9.707   6.096  66.785  1.00  0.00    -0.191 A  
HETATM    9  C   UNL     1      -9.053   7.277  67.135  1.00  0.00    -0.144 A  
HETATM   10  C   UNL     1      -8.731   7.541  68.467  1.00  0.00    -0.128 A  
HETATM   11  C   UNL     1      -9.747   5.422  69.086  1.00  0.00    -0.217 A  
HETATM   12  C   UNL     1      -9.079   6.604  69.447  1.00  0.00    -0.143 A  
BRANCH  10  13
HETATM   13  C   UNL     1      -8.005   8.804  68.755  1.00  0.00    -0.106 C  
HETATM   14  O   UNL     1      -8.552   9.806  69.192  1.00  0.00    -0.133 OA 
BRANCH  13  15
HETATM   15  O   UNL     1      -6.693   8.698  68.443  1.00  0.00    -0.062 OA 
BRANCH  15  16
HETATM   16  C   UNL     1      -5.793   9.142  69.475  1.00  0.00    -0.033 C  
BRANCH  16  17
HETATM   17  C   UNL     1      -5.215  10.520  69.154  1.00  0.00    -0.038 C  
BRANCH  17  18
HETATM   18  O   UNL     1      -6.275  11.482  69.133  1.00  0.00    -0.058 OA 
BRANCH  18  19
HETATM   19  C   UNL     1      -5.775  12.798  68.907  1.00  0.00    -0.072 C  
BRANCH  19  20
HETATM   20  C   UNL     1      -5.149  13.331  70.189  1.00  0.00    -0.090 C  
BRANCH  20  21
HETATM   21  O   UNL     1      -5.573  14.679  70.387  1.00  0.00    -0.120 OA 
BRANCH  21  22
HETATM   22  C   UNL     1      -6.462  14.788  71.497  1.00  0.00     0.752 C  
BRANCH  22  23
HETATM   23  C   UNL     1      -7.624  15.697  71.117  1.00  0.00     3.074 C  
BRANCH  23  24
HETATM   24  O   UNL     1      -8.355  15.099  70.048  1.00  0.00     0.022 OA 
BRANCH  24  25
HETATM   25  C   UNL     1      -8.197  15.839  68.839  1.00  0.00    -0.210 C  
BRANCH  25  26
HETATM   26  C   UNL     1      -8.216  14.875  67.661  1.00  0.00    -0.172 C  
BRANCH  26  27
HETATM   27  O   UNL     1      -7.976  13.554  68.138  1.00  0.00    -0.128 OA 
BRANCH  27  28
HETATM   28  C   UNL     1      -8.229  12.586  67.123  1.00  0.00    -0.168 C  
BRANCH  28  29
HETATM   29  C   UNL     1      -8.056  13.239  65.761  1.00  0.00     2.612 C  
BRANCH  29  30
HETATM   30  O   UNL     1      -9.296  13.823  65.369  1.00  0.00     0.148 OA 
BRANCH  30  31
HETATM   31  C   UNL     1     -10.396  13.013  65.774  1.00  0.00    -0.286 C  
BRANCH  31  32
HETATM   32  C   UNL     1     -10.164  11.588  65.296  1.00  0.00    -0.267 C  
BRANCH  32  33
HETATM   33  O   UNL     1     -11.394  11.056  64.814  1.00  0.00     0.002 OA 
BRANCH  33  34
HETATM   34  C   UNL     1     -12.332  12.095  64.545  1.00  0.00    -0.307 C  
BRANCH  34  35
HETATM   35  C   UNL     1     -12.966  12.537  65.855  1.00  0.00     1.442 C  
BRANCH  35  36
HETATM   36  O   UNL     1     -12.010  13.284  66.604  1.00  0.00    -0.381 OA 
BRANCH  36  37
HETATM   37  C   UNL     1     -11.501  14.378  65.846  1.00  0.00    -0.341 C  
BRANCH  37  38
HETATM   38  C   UNL     1     -11.597  15.647  66.681  1.00  0.00     0.260 C  
BRANCH  38  39
HETATM   39  O   UNL     1     -12.096  16.705  65.867  1.00  0.00     1.861 OA 
BRANCH  39  40
HETATM   40  C   UNL     1     -11.187  17.804  65.834  1.00  0.00     0.816 C  
BRANCH  40  41
HETATM   41  C   UNL     1      -9.761  17.271  65.864  1.00  0.00    -0.086 C  
BRANCH  41  42
HETATM   42  O   UNL     1      -9.267  17.318  67.201  1.00  0.00    -0.227 OA 
HETATM   43  C   UNL     1      -8.483  18.482  67.423  1.00  0.00    -0.257 C  
ENDBRANCH  41  42
ENDBRANCH  40  41
ENDBRANCH  39  40
ENDBRANCH  38  39
ENDBRANCH  37  38
ENDBRANCH  36  37
ENDBRANCH  35  36
ENDBRANCH  34  35
ENDBRANCH  33  34
ENDBRANCH  32  33
ENDBRANCH  31  32
ENDBRANCH  30  31
ENDBRANCH  29  30
ENDBRANCH  28  29
ENDBRANCH  27  28
ENDBRANCH  26  27
ENDBRANCH  25  26
ENDBRANCH  24  25
ENDBRANCH  23  24
ENDBRANCH  22  23
ENDBRANCH  21  22
ENDBRANCH  20  21
ENDBRANCH  19  20
ENDBRANCH  18  19
ENDBRANCH  17  18
ENDBRANCH  16  17
ENDBRANCH  15  16
ENDBRANCH  13  15
ENDBRANCH  10  13
ENDBRANCH   5   7
ENDBRANCH   4   5
ENDBRANCH   3   4
ENDBRANCH   2   3
TORSDOF 33
ENDMDL
MODEL      228
REMARK 921   NORMALIZED FREE ENERGY PREDICTED BY IDOCK:   18.33 KCAL/MOL
REMARK 922        TOTAL FREE ENERGY PREDICTED BY IDOCK:   50.90 KCAL/MOL
REMARK 923 INTER-LIGAND FREE ENERGY PREDICTED BY IDOCK:   36.83 KCAL/MOL
REMARK 924 INTRA-LIGAND FREE ENERGY PREDICTED BY IDOCK:   14.07 KCAL/MOL
REMARK 927      BINDING AFFINITY PREDICTED BY RF-SCORE:    0.00 PKD
ROOT
HETATM    1  C   UNL     1      -8.996  13.190  73.174  1.00  0.00    18.374 C  
HETATM    2  C   UNL     1      -7.954  14.249  72.870  1.00  0.00     7.789 C  
ENDROOT
BRANCH   2   3
HETATM    3  C   UNL     1      -7.337  14.070  71.481  1.00  0.00     3.679 C  
BRANCH   3   4
HETATM    4  C   UNL     1      -5.930  13.498  71.619  1.00  0.00     0.369 C  
BRANCH   4   5
HETATM    5  N   UNL     1      -5.953  12.053  71.818  1.00  0.00     0.286 NA 
HETATM    6  H   UNL     1      -5.284  11.596  72.437  1.00  0.00     0.000 HD 
BRANCH   5   7
HETATM    7  C   UNL     1      -6.928  11.313  71.130  1.00  0.00     2.902 A  
HETATM    8  C   UNL     1      -7.053   9.922  71.244  1.00  0.00     0.539 A  
HETATM    9  C   UNL     1      -7.983   9.209  70.488  1.00  0.00    -0.170 A  
HETATM   10  C   UNL     1      -8.799   9.866  69.564  1.00  0.00    -0.208 A  
HETATM   11  C   UNL     1      -7.739  11.962  70.187  1.00  0.00     2.223 A  
HETATM   12  C   UNL     1      -8.671  11.252  69.413  1.00  0.00     0.405 A  
BRANCH  10  13
HETATM   13  C   UNL     1      -9.740   9.033  68.773  1.00  0.00    -0.159 C  
HETATM   14  O   UNL     1     -10.659   8.402  69.275  1.00  0.00    -0.223 OA 
BRANCH  13  15
HETATM   15  O   UNL     1      -9.422   9.048  67.459  1.00  0.00    -0.134 OA 
BRANCH  15  16
HETATM   16  C   UNL     1      -8.289   9.870  67.124  1.00  0.00    -0.121 C  
BRANCH  16  17
HETATM   17  C   UNL     1      -7.007   9.336  67.763  1.00  0.00    -0.081 C  
BRANCH  17  18
HETATM   18  O   UNL     1      -6.057  10.401  67.874  1.00  0.00    -0.048 OA 
BRANCH  18  19
HETATM   19  C   UNL     1      -5.131  10.384  66.790  1.00  0.00    -0.041 C  
BRANCH  19  20
HETATM   20  C   UNL     1      -5.873  10.631  65.483  1.00  0.00    -0.130 C  
BRANCH  20  21
HETATM   21  O   UNL     1      -7.276  10.534  65.720  1.00  0.00    -0.141 OA 
BRANCH  21  22
HETATM   22  C   UNL     1      -7.969  10.072  64.563  1.00  0.00    -0.148 C  
BRANCH  22  23
HETATM   23  C   UNL     1      -7.403  10.768  63.332  1.00  0.00     0.278 C  
BRANCH  23  24
HETATM   24  O   UNL     1      -8.311  11.783  62.910  1.00  0.00     0.205 OA 
BRANCH  24  25
HETATM   25  C   UNL     1      -8.606  12.686  63.973  1.00  0.00     3.260 C  
BRANCH  25  26
HETATM   26  C   UNL     1      -9.183  11.904  65.145  1.00  0.00     0.148 C  
BRANCH  26  27
HETATM   27  O   UNL     1     -10.168  10.998  64.657  1.00  0.00    -0.284 OA 
BRANCH  27  28
HETATM   28  C   UNL     1     -11.286  10.927  65.540  1.00  0.00     0.271 C  
BRANCH  28  29
HETATM   29  C   UNL     1     -12.375  11.861  65.034  1.00  0.00     0.233 C  
BRANCH  29  30
HETATM   30  O   UNL     1     -11.786  12.838  64.181  1.00  0.00    -0.356 OA 
BRANCH  30  31
HETATM   31  C   UNL     1     -12.600  14.005  64.095  1.00  0.00    -0.078 C  
BRANCH  31  32
HETATM   32  C   UNL     1     -13.261  14.246  65.444  1.00  0.00     0.138 C  
BRANCH  32  33
HETATM   33  O   UNL     1     -12.625  15.352  66.078  1.00  0.00     0.793 OA 
BRANCH  33  34
HETATM   34  C   UNL     1     -11.419  15.704  65.407  1.00  0.00     0.025 C  
BRANCH  34  35
HETATM   35  C   UNL     1     -10.240  15.126  66.176  1.00  0.00    -0.295 C  
BRANCH  35  36
HETATM   36  O   UNL     1      -9.990  15.940  67.320  1.00  0.00    -0.234 OA 
BRANCH  36  37
HETATM   37  C   UNL     1      -9.871  15.150  68.499  1.00  0.00    -0.220 C  
BRANCH  37  38
HETATM   38  C   UNL     1     -11.236  14.578  68.852  1.00  0.00    -0.262 C  
BRANCH  38  39
HETATM   39  O   UNL     1     -11.251  14.221  70.232  1.00  0.00    -0.144 OA 
BRANCH  39  40
HETATM   40  C   UNL     1     -11.348  15.377  71.063  1.00  0.00    -0.367 C  
BRANCH  40  41
HETATM   41  C   UNL     1     -12.811  15.778  71.189  1.00  0.00    -0.410 C  
BRANCH  41  42
HETATM   42  O   UNL     1     -13.235  15.604  72.539  1.00  0.00    -0.423 OA 
HETATM   43  C   UNL     1     -12.210  15.020  73.331  1.00  0.00    -0.408 C  
ENDBRANCH  41  42
ENDBRANCH  40  41
ENDBRANCH  39  40
ENDBRANCH  38  39
ENDBRANCH  37  38
ENDBRANCH  36  37
ENDBRANCH  35  36
ENDBRANCH  34  35
ENDBRANCH  33  34
ENDBRANCH  32  33
ENDBRANCH  31  32
ENDBRANCH  30  31
ENDBRANCH  29  30
ENDBRANCH  28  29
ENDBRANCH  27  28
ENDBRANCH  26  27
ENDBRANCH  25  26
ENDBRANCH  24  25
ENDBRANCH  23  24
ENDBRANCH  22  23
ENDBRANCH  21  22
ENDBRANCH  20  21
ENDBRANCH  19  20
ENDBRANCH  18  19
ENDBRANCH  17  18
ENDBRANCH  16  17
ENDBRANCH  15  16
ENDBRANCH  13  15
ENDBRANCH  10  13
ENDBRANCH   5   7
ENDBRANCH   4   5
ENDBRANCH   3   4
ENDBRANCH   2   3
TORSDOF 33
ENDMDL
