MODEL        1
REMARK 921   NORMALIZED FREE ENERGY PREDICTED BY IDOCK:   -5.06 KCAL/MOL
REMARK 922        TOTAL FREE ENERGY PREDICTED BY IDOCK:  -10.38 KCAL/MOL
REMARK 923 INTER-LIGAND FREE ENERGY PREDICTED BY IDOCK:   -8.90 KCAL/MOL
REMARK 924 INTRA-LIGAND FREE ENERGY PREDICTED BY IDOCK:   -1.47 KCAL/MOL
REMARK 927      BINDING AFFINITY PREDICTED BY RF-SCORE:    0.00 PKD
ROOT
HETATM    1  C   UNL     1     -12.395  15.284  74.417  1.00  0.00    -0.710 C  
HETATM    2  C   UNL     1     -12.542  16.405  73.402  1.00  0.00    -0.484 C  
ENDROOT
BRANCH   2   3
HETATM    3  C   UNL     1     -11.929  16.012  72.060  1.00  0.00    -0.622 C  
BRANCH   3   4
HETATM    4  C   UNL     1     -12.952  15.309  71.173  1.00  0.00    -0.521 C  
BRANCH   4   5
HETATM    5  C   UNL     1     -12.562  13.850  70.956  1.00  0.00    -0.444 C  
BRANCH   5   6
HETATM    6  C   UNL     1     -13.347  12.938  71.889  1.00  0.00    -0.530 C  
BRANCH   6   7
HETATM    7  C   UNL     1     -12.858  11.497  71.792  1.00  0.00    -0.441 C  
BRANCH   7   8
HETATM    8  C   UNL     1     -12.627  11.125  70.333  1.00  0.00    -0.328 C  
BRANCH   8   9
HETATM    9  C   UNL     1     -11.188  10.688  70.081  1.00  0.00    -0.378 C  
BRANCH   9  10
HETATM   10  C   UNL     1     -10.614  11.282  68.794  1.00  0.00    -0.234 C  
BRANCH  10  11
HETATM   11  C   UNL     1     -11.648  11.923  67.860  1.00  0.00    -0.393 C  
BRANCH  11  12
HETATM   12  C   UNL     1     -11.266  11.813  66.379  1.00  0.00    -0.323 C  
BRANCH  12  13
HETATM   13  N   UNL     1     -11.213  13.170  65.651  1.00  0.00    -0.281 N  
HETATM   14  C   UNL     1     -10.970  12.972  64.160  1.00  0.00    -0.408 C  
HETATM   15  C   UNL     1     -12.512  13.942  65.853  1.00  0.00    -0.481 C  
BRANCH  13  16
HETATM   16  C   UNL     1     -10.030  13.981  66.283  1.00  0.00    -0.307 C  
BRANCH  16  17
HETATM   17  C   UNL     1     -10.372  15.389  66.703  1.00  0.00    -0.281 A  
HETATM   18  C   UNL     1     -10.239  16.455  65.798  1.00  0.00    -0.370 A  
HETATM   19  C   UNL     1     -10.350  17.773  66.240  1.00  0.00    -0.358 A  
HETATM   20  C   UNL     1     -10.623  18.037  67.580  1.00  0.00    -0.413 A  
HETATM   21  C   UNL     1     -10.833  16.988  68.470  1.00  0.00    -0.310 A  
HETATM   22  C   UNL     1     -10.724  15.668  68.032  1.00  0.00    -0.287 A  
ENDBRANCH  16  17
ENDBRANCH  13  16
ENDBRANCH  12  13
ENDBRANCH  11  12
ENDBRANCH  10  11
ENDBRANCH   9  10
ENDBRANCH   8   9
ENDBRANCH   7   8
ENDBRANCH   6   7
ENDBRANCH   5   6
ENDBRANCH   4   5
ENDBRANCH   3   4
ENDBRANCH   2   3
TORSDOF 13
ENDMDL
MODEL        2
REMARK 921   NORMALIZED FREE ENERGY PREDICTED BY IDOCK:   -4.87 KCAL/MOL
REMARK 922        TOTAL FREE ENERGY PREDICTED BY IDOCK:  -10.04 KCAL/MOL
REMARK 923 INTER-LIGAND FREE ENERGY PREDICTED BY IDOCK:   -8.69 KCAL/MOL
REMARK 924 INTRA-LIGAND FREE ENERGY PREDICTED BY IDOCK:   -1.35 KCAL/MOL
REMARK 927      BINDING AFFINITY PREDICTED BY RF-SCORE:    0.00 PKD
ROOT
HETATM    1  C   UNL     1     -11.911   8.658  72.132  1.00  0.00    -0.449 C  
HETATM    2  C   UNL     1     -12.178   9.899  71.297  1.00  0.00    -0.480 C  
ENDROOT
BRANCH   2   3
HETATM    3  C   UNL     1     -13.125  10.852  72.021  1.00  0.00    -0.462 C  
BRANCH   3   4
HETATM    4  C   UNL     1     -12.936  12.287  71.538  1.00  0.00    -0.390 C  
BRANCH   4   5
HETATM    5  C   UNL     1     -13.784  13.248  72.366  1.00  0.00    -0.678 C  
BRANCH   5   6
HETATM    6  C   UNL     1     -12.968  14.466  72.781  1.00  0.00    -0.555 C  
BRANCH   6   7
HETATM    7  C   UNL     1     -13.031  15.558  71.718  1.00  0.00    -0.528 C  
BRANCH   7   8
HETATM    8  C   UNL     1     -11.643  16.149  71.501  1.00  0.00    -0.502 C  
BRANCH   8   9
HETATM    9  C   UNL     1     -10.948  15.530  70.292  1.00  0.00    -0.352 C  
BRANCH   9  10
HETATM   10  C   UNL     1     -11.772  15.670  69.011  1.00  0.00    -0.408 C  
BRANCH  10  11
HETATM   11  C   UNL     1     -12.034  14.358  68.263  1.00  0.00    -0.323 C  
BRANCH  11  12
HETATM   12  C   UNL     1     -10.828  13.884  67.444  1.00  0.00    -0.285 C  
BRANCH  12  13
HETATM   13  N   UNL     1     -11.147  13.646  65.955  1.00  0.00    -0.284 N  
HETATM   14  C   UNL     1     -10.928  12.184  65.584  1.00  0.00    -0.295 C  
HETATM   15  C   UNL     1     -12.587  14.037  65.642  1.00  0.00    -0.512 C  
BRANCH  13  16
HETATM   16  C   UNL     1     -10.177  14.558  65.129  1.00  0.00    -0.389 C  
BRANCH  16  17
HETATM   17  C   UNL     1      -9.776  15.845  65.807  1.00  0.00    -0.360 A  
HETATM   18  C   UNL     1     -10.607  16.976  65.742  1.00  0.00    -0.218 A  
HETATM   19  C   UNL     1     -10.147  18.215  66.184  1.00  0.00    -0.338 A  
HETATM   20  C   UNL     1      -8.866  18.332  66.721  1.00  0.00    -0.283 A  
HETATM   21  C   UNL     1      -8.063  17.204  66.862  1.00  0.00    -0.247 A  
HETATM   22  C   UNL     1      -8.520  15.962  66.422  1.00  0.00    -0.348 A  
ENDBRANCH  16  17
ENDBRANCH  13  16
ENDBRANCH  12  13
ENDBRANCH  11  12
ENDBRANCH  10  11
ENDBRANCH   9  10
ENDBRANCH   8   9
ENDBRANCH   7   8
ENDBRANCH   6   7
ENDBRANCH   5   6
ENDBRANCH   4   5
ENDBRANCH   3   4
ENDBRANCH   2   3
TORSDOF 13
ENDMDL
MODEL        3
REMARK 921   NORMALIZED FREE ENERGY PREDICTED BY IDOCK:   -4.83 KCAL/MOL
REMARK 922        TOTAL FREE ENERGY PREDICTED BY IDOCK:   -9.98 KCAL/MOL
REMARK 923 INTER-LIGAND FREE ENERGY PREDICTED BY IDOCK:   -8.25 KCAL/MOL
REMARK 924 INTRA-LIGAND FREE ENERGY PREDICTED BY IDOCK:   -1.72 KCAL/MOL
REMARK 927      BINDING AFFINITY PREDICTED BY RF-SCORE:    0.00 PKD
ROOT
HETATM    1  C   UNL     1     -12.663  15.978  73.595  1.00  0.00    -0.715 C  
HETATM    2  C   UNL     1     -13.717  15.340  72.705  1.00  0.00    -0.608 C  
ENDROOT
BRANCH   2   3
HETATM    3  C   UNL     1     -13.405  15.581  71.230  1.00  0.00    -0.588 C  
BRANCH   3   4
HETATM    4  C   UNL     1     -11.907  15.761  71.006  1.00  0.00    -0.460 C  
BRANCH   4   5
HETATM    5  C   UNL     1     -11.562  15.612  69.527  1.00  0.00    -0.366 C  
BRANCH   5   6
HETATM    6  C   UNL     1     -11.257  14.159  69.190  1.00  0.00    -0.307 C  
BRANCH   6   7
HETATM    7  C   UNL     1     -11.940  13.739  67.892  1.00  0.00    -0.391 C  
BRANCH   7   8
HETATM    8  C   UNL     1     -10.941  13.785  66.743  1.00  0.00    -0.307 C  
BRANCH   8   9
HETATM    9  C   UNL     1     -11.135  15.024  65.875  1.00  0.00    -0.334 C  
BRANCH   9  10
HETATM   10  C   UNL     1      -9.878  15.894  65.812  1.00  0.00    -0.380 C  
BRANCH  10  11
HETATM   11  C   UNL     1      -8.689  15.374  66.629  1.00  0.00    -0.332 C  
BRANCH  11  12
HETATM   12  C   UNL     1      -7.556  16.400  66.757  1.00  0.00    -0.255 C  
BRANCH  12  13
HETATM   13  N   UNL     1      -7.013  16.545  68.192  1.00  0.00    -0.140 N  
HETATM   14  C   UNL     1      -7.792  15.657  69.154  1.00  0.00    -0.220 C  
HETATM   15  C   UNL     1      -5.535  16.179  68.249  1.00  0.00    -0.107 C  
BRANCH  13  16
HETATM   16  C   UNL     1      -7.185  18.050  68.594  1.00  0.00    -0.273 C  
BRANCH  16  17
HETATM   17  C   UNL     1      -8.364  18.750  67.965  1.00  0.00    -0.315 A  
HETATM   18  C   UNL     1      -9.671  18.485  68.406  1.00  0.00    -0.395 A  
HETATM   19  C   UNL     1     -10.767  18.967  67.693  1.00  0.00    -0.469 A  
HETATM   20  C   UNL     1     -10.570  19.740  66.551  1.00  0.00    -0.580 A  
HETATM   21  C   UNL     1      -9.280  20.074  66.148  1.00  0.00    -0.389 A  
HETATM   22  C   UNL     1      -8.181  19.595  66.859  1.00  0.00    -0.323 A  
ENDBRANCH  16  17
ENDBRANCH  13  16
ENDBRANCH  12  13
ENDBRANCH  11  12
ENDBRANCH  10  11
ENDBRANCH   9  10
ENDBRANCH   8   9
ENDBRANCH   7   8
ENDBRANCH   6   7
ENDBRANCH   5   6
ENDBRANCH   4   5
ENDBRANCH   3   4
ENDBRANCH   2   3
TORSDOF 13
ENDMDL
MODEL        4
REMARK 921   NORMALIZED FREE ENERGY PREDICTED BY IDOCK:   -4.82 KCAL/MOL
REMARK 922        TOTAL FREE ENERGY PREDICTED BY IDOCK:   -9.95 KCAL/MOL
REMARK 923 INTER-LIGAND FREE ENERGY PREDICTED BY IDOCK:   -8.95 KCAL/MOL
REMARK 924 INTRA-LIGAND FREE ENERGY PREDICTED BY IDOCK:   -1.00 KCAL/MOL
REMARK 927      BINDING AFFINITY PREDICTED BY RF-SCORE:    0.00 PKD
ROOT
HETATM    1  C   UNL     1     -10.252   8.650  72.114  1.00  0.00    -0.394 C  
HETATM    2  C   UNL     1     -11.579   8.814  71.393  1.00  0.00    -0.366 C  
ENDROOT
BRANCH   2   3
HETATM    3  C   UNL     1     -11.740  10.235  70.858  1.00  0.00    -0.472 C  
BRANCH   3   4
HETATM    4  C   UNL     1     -12.978  10.906  71.444  1.00  0.00    -0.527 C  
BRANCH   4   5
HETATM    5  C   UNL     1     -12.902  12.420  71.267  1.00  0.00    -0.337 C  
BRANCH   5   6
HETATM    6  C   UNL     1     -13.614  13.132  72.409  1.00  0.00    -0.667 C  
BRANCH   6   7
HETATM    7  C   UNL     1     -13.968  14.566  72.029  1.00  0.00    -0.587 C  
BRANCH   7   8
HETATM    8  C   UNL     1     -13.225  15.540  72.935  1.00  0.00    -0.633 C  
BRANCH   8   9
HETATM    9  C   UNL     1     -11.845  15.884  72.383  1.00  0.00    -0.618 C  
BRANCH   9  10
HETATM   10  C   UNL     1     -11.852  16.060  70.863  1.00  0.00    -0.409 C  
BRANCH  10  11
HETATM   11  C   UNL     1     -10.708  15.356  70.125  1.00  0.00    -0.326 C  
BRANCH  11  12
HETATM   12  C   UNL     1     -11.057  15.010  68.672  1.00  0.00    -0.264 C  
BRANCH  12  13
HETATM   13  N   UNL     1      -9.854  15.089  67.712  1.00  0.00    -0.219 N  
HETATM   14  C   UNL     1      -8.597  15.520  68.458  1.00  0.00    -0.176 C  
HETATM   15  C   UNL     1      -9.608  13.741  67.043  1.00  0.00    -0.251 C  
BRANCH  13  16
HETATM   16  C   UNL     1     -10.215  16.148  66.615  1.00  0.00    -0.287 C  
BRANCH  16  17
HETATM   17  C   UNL     1      -9.858  17.573  66.958  1.00  0.00    -0.295 A  
HETATM   18  C   UNL     1     -10.753  18.379  67.680  1.00  0.00    -0.390 A  
HETATM   19  C   UNL     1     -10.518  19.747  67.815  1.00  0.00    -0.555 A  
HETATM   20  C   UNL     1      -9.375  20.316  67.258  1.00  0.00    -0.538 A  
HETATM   21  C   UNL     1      -8.442  19.513  66.607  1.00  0.00    -0.352 A  
HETATM   22  C   UNL     1      -8.673  18.145  66.471  1.00  0.00    -0.286 A  
ENDBRANCH  16  17
ENDBRANCH  13  16
ENDBRANCH  12  13
ENDBRANCH  11  12
ENDBRANCH  10  11
ENDBRANCH   9  10
ENDBRANCH   8   9
ENDBRANCH   7   8
ENDBRANCH   6   7
ENDBRANCH   5   6
ENDBRANCH   4   5
ENDBRANCH   3   4
ENDBRANCH   2   3
TORSDOF 13
ENDMDL
MODEL        5
REMARK 921   NORMALIZED FREE ENERGY PREDICTED BY IDOCK:   -4.81 KCAL/MOL
REMARK 922        TOTAL FREE ENERGY PREDICTED BY IDOCK:   -9.94 KCAL/MOL
REMARK 923 INTER-LIGAND FREE ENERGY PREDICTED BY IDOCK:   -9.33 KCAL/MOL
REMARK 924 INTRA-LIGAND FREE ENERGY PREDICTED BY IDOCK:   -0.61 KCAL/MOL
REMARK 927      BINDING AFFINITY PREDICTED BY RF-SCORE:    0.00 PKD
ROOT
HETATM    1  C   UNL     1     -10.327   8.213  72.469  1.00  0.00    -0.401 C  
HETATM    2  C   UNL     1     -11.766   8.532  72.095  1.00  0.00    -0.448 C  
ENDROOT
BRANCH   2   3
HETATM    3  C   UNL     1     -11.834   9.729  71.151  1.00  0.00    -0.466 C  
BRANCH   3   4
HETATM    4  C   UNL     1     -13.142  10.494  71.326  1.00  0.00    -0.478 C  
BRANCH   4   5
HETATM    5  C   UNL     1     -12.898  11.998  71.259  1.00  0.00    -0.364 C  
BRANCH   5   6
HETATM    6  C   UNL     1     -13.547  12.702  72.443  1.00  0.00    -0.435 C  
BRANCH   6   7
HETATM    7  C   UNL     1     -14.123  14.053  72.032  1.00  0.00    -0.600 C  
BRANCH   7   8
HETATM    8  C   UNL     1     -13.442  15.167  72.816  1.00  0.00    -0.603 C  
BRANCH   8   9
HETATM    9  C   UNL     1     -12.433  15.926  71.960  1.00  0.00    -0.534 C  
BRANCH   9  10
HETATM   10  C   UNL     1     -12.549  15.577  70.475  1.00  0.00    -0.462 C  
BRANCH  10  11
HETATM   11  C   UNL     1     -11.227  15.209  69.791  1.00  0.00    -0.298 C  
BRANCH  11  12
HETATM   12  C   UNL     1     -11.060  15.869  68.417  1.00  0.00    -0.345 C  
BRANCH  12  13
HETATM   13  N   UNL     1     -10.608  14.893  67.313  1.00  0.00    -0.268 N  
HETATM   14  C   UNL     1     -10.442  15.622  65.985  1.00  0.00    -0.331 C  
HETATM   15  C   UNL     1      -9.292  14.223  67.690  1.00  0.00    -0.201 C  
BRANCH  13  16
HETATM   16  C   UNL     1     -11.723  13.799  67.187  1.00  0.00    -0.385 C  
BRANCH  16  17
HETATM   17  C   UNL     1     -11.666  12.968  65.929  1.00  0.00    -0.442 A  
HETATM   18  C   UNL     1     -10.845  11.829  65.863  1.00  0.00    -0.339 A  
HETATM   19  C   UNL     1     -10.631  11.186  64.645  1.00  0.00    -0.386 A  
HETATM   20  C   UNL     1     -11.253  11.654  63.490  1.00  0.00    -0.462 A  
HETATM   21  C   UNL     1     -12.128  12.734  63.558  1.00  0.00    -0.642 A  
HETATM   22  C   UNL     1     -12.347  13.380  64.774  1.00  0.00    -0.444 A  
ENDBRANCH  16  17
ENDBRANCH  13  16
ENDBRANCH  12  13
ENDBRANCH  11  12
ENDBRANCH  10  11
ENDBRANCH   9  10
ENDBRANCH   8   9
ENDBRANCH   7   8
ENDBRANCH   6   7
ENDBRANCH   5   6
ENDBRANCH   4   5
ENDBRANCH   3   4
ENDBRANCH   2   3
TORSDOF 13
ENDMDL
MODEL        6
REMARK 921   NORMALIZED FREE ENERGY PREDICTED BY IDOCK:   -4.80 KCAL/MOL
REMARK 922        TOTAL FREE ENERGY PREDICTED BY IDOCK:   -9.92 KCAL/MOL
REMARK 923 INTER-LIGAND FREE ENERGY PREDICTED BY IDOCK:   -8.49 KCAL/MOL
REMARK 924 INTRA-LIGAND FREE ENERGY PREDICTED BY IDOCK:   -1.43 KCAL/MOL
REMARK 927      BINDING AFFINITY PREDICTED BY RF-SCORE:    0.00 PKD
ROOT
HETATM    1  C   UNL     1     -10.315   9.271  71.003  1.00  0.00    -0.388 C  
HETATM    2  C   UNL     1     -10.618  10.135  69.790  1.00  0.00    -0.298 C  
ENDROOT
BRANCH   2   3
HETATM    3  C   UNL     1     -11.671  11.190  70.118  1.00  0.00    -0.439 C  
BRANCH   3   4
HETATM    4  C   UNL     1     -12.735  10.631  71.057  1.00  0.00    -0.512 C  
BRANCH   4   5
HETATM    5  C   UNL     1     -13.259  11.723  71.986  1.00  0.00    -0.460 C  
BRANCH   5   6
HETATM    6  C   UNL     1     -12.809  13.097  71.507  1.00  0.00    -0.401 C  
BRANCH   6   7
HETATM    7  C   UNL     1     -13.677  14.200  72.104  1.00  0.00    -0.587 C  
BRANCH   7   8
HETATM    8  C   UNL     1     -13.313  15.541  71.480  1.00  0.00    -0.593 C  
BRANCH   8   9
HETATM    9  C   UNL     1     -12.520  15.367  70.189  1.00  0.00    -0.370 C  
BRANCH   9  10
HETATM   10  C   UNL     1     -11.141  16.024  70.258  1.00  0.00    -0.380 C  
BRANCH  10  11
HETATM   11  C   UNL     1     -10.768  16.876  69.039  1.00  0.00    -0.308 C  
BRANCH  11  12
HETATM   12  C   UNL     1      -9.326  16.651  68.570  1.00  0.00    -0.236 C  
BRANCH  12  13
HETATM   13  N   UNL     1      -9.139  16.809  67.048  1.00  0.00    -0.218 N  
HETATM   14  C   UNL     1     -10.385  17.413  66.413  1.00  0.00    -0.317 C  
HETATM   15  C   UNL     1      -7.936  17.695  66.742  1.00  0.00    -0.239 C  
BRANCH  13  16
HETATM   16  C   UNL     1      -8.882  15.377  66.468  1.00  0.00    -0.312 C  
BRANCH  16  17
HETATM   17  C   UNL     1     -10.124  14.579  66.159  1.00  0.00    -0.319 A  
HETATM   18  C   UNL     1     -10.737  13.797  67.153  1.00  0.00    -0.283 A  
HETATM   19  C   UNL     1     -11.752  12.903  66.820  1.00  0.00    -0.445 A  
HETATM   20  C   UNL     1     -12.186  12.800  65.500  1.00  0.00    -0.519 A  
HETATM   21  C   UNL     1     -11.640  13.625  64.520  1.00  0.00    -0.415 A  
HETATM   22  C   UNL     1     -10.624  14.522  64.849  1.00  0.00    -0.450 A  
ENDBRANCH  16  17
ENDBRANCH  13  16
ENDBRANCH  12  13
ENDBRANCH  11  12
ENDBRANCH  10  11
ENDBRANCH   9  10
ENDBRANCH   8   9
ENDBRANCH   7   8
ENDBRANCH   6   7
ENDBRANCH   5   6
ENDBRANCH   4   5
ENDBRANCH   3   4
ENDBRANCH   2   3
TORSDOF 13
ENDMDL
MODEL        7
REMARK 921   NORMALIZED FREE ENERGY PREDICTED BY IDOCK:   -4.76 KCAL/MOL
REMARK 922        TOTAL FREE ENERGY PREDICTED BY IDOCK:   -9.84 KCAL/MOL
REMARK 923 INTER-LIGAND FREE ENERGY PREDICTED BY IDOCK:   -8.31 KCAL/MOL
REMARK 924 INTRA-LIGAND FREE ENERGY PREDICTED BY IDOCK:   -1.54 KCAL/MOL
REMARK 927      BINDING AFFINITY PREDICTED BY RF-SCORE:    0.00 PKD
ROOT
HETATM    1  C   UNL     1     -12.731  16.050  73.586  1.00  0.00    -0.715 C  
HETATM    2  C   UNL     1     -11.898  15.633  72.385  1.00  0.00    -0.584 C  
ENDROOT
BRANCH   2   3
HETATM    3  C   UNL     1     -12.703  14.739  71.445  1.00  0.00    -0.401 C  
BRANCH   3   4
HETATM    4  C   UNL     1     -13.702  13.885  72.220  1.00  0.00    -0.660 C  
BRANCH   4   5
HETATM    5  C   UNL     1     -13.339  12.407  72.116  1.00  0.00    -0.508 C  
BRANCH   5   6
HETATM    6  C   UNL     1     -12.516  12.141  70.863  1.00  0.00    -0.374 C  
BRANCH   6   7
HETATM    7  C   UNL     1     -12.406  10.646  70.583  1.00  0.00    -0.462 C  
BRANCH   7   8
HETATM    8  C   UNL     1     -11.350  10.395  69.515  1.00  0.00    -0.325 C  
BRANCH   8   9
HETATM    9  C   UNL     1     -11.641  11.177  68.238  1.00  0.00    -0.359 C  
BRANCH   9  10
HETATM   10  C   UNL     1     -10.406  11.320  67.347  1.00  0.00    -0.233 C  
BRANCH  10  11
HETATM   11  C   UNL     1      -9.255  12.128  67.960  1.00  0.00    -0.194 C  
BRANCH  11  12
HETATM   12  C   UNL     1      -8.608  13.098  66.964  1.00  0.00    -0.162 C  
BRANCH  12  13
HETATM   13  N   UNL     1      -8.773  14.581  67.349  1.00  0.00    -0.187 N  
HETATM   14  C   UNL     1      -9.613  14.719  68.613  1.00  0.00    -0.218 C  
HETATM   15  C   UNL     1      -7.415  15.237  67.570  1.00  0.00    -0.190 C  
BRANCH  13  16
HETATM   16  C   UNL     1      -9.493  15.286  66.148  1.00  0.00    -0.326 C  
BRANCH  16  17
HETATM   17  C   UNL     1     -10.581  14.474  65.489  1.00  0.00    -0.364 A  
HETATM   18  C   UNL     1     -11.874  14.435  66.037  1.00  0.00    -0.379 A  
HETATM   19  C   UNL     1     -12.816  13.528  65.555  1.00  0.00    -0.406 A  
HETATM   20  C   UNL     1     -12.488  12.674  64.505  1.00  0.00    -0.525 A  
HETATM   21  C   UNL     1     -11.235  12.757  63.903  1.00  0.00    -0.491 A  
HETATM   22  C   UNL     1     -10.290  13.664  64.381  1.00  0.00    -0.242 A  
ENDBRANCH  16  17
ENDBRANCH  13  16
ENDBRANCH  12  13
ENDBRANCH  11  12
ENDBRANCH  10  11
ENDBRANCH   9  10
ENDBRANCH   8   9
ENDBRANCH   7   8
ENDBRANCH   6   7
ENDBRANCH   5   6
ENDBRANCH   4   5
ENDBRANCH   3   4
ENDBRANCH   2   3
TORSDOF 13
ENDMDL
MODEL        8
REMARK 921   NORMALIZED FREE ENERGY PREDICTED BY IDOCK:   -4.75 KCAL/MOL
REMARK 922        TOTAL FREE ENERGY PREDICTED BY IDOCK:   -9.84 KCAL/MOL
REMARK 923 INTER-LIGAND FREE ENERGY PREDICTED BY IDOCK:   -8.31 KCAL/MOL
REMARK 924 INTRA-LIGAND FREE ENERGY PREDICTED BY IDOCK:   -1.53 KCAL/MOL
REMARK 927      BINDING AFFINITY PREDICTED BY RF-SCORE:    0.00 PKD
ROOT
HETATM    1  C   UNL     1      -9.946  18.635  68.645  1.00  0.00    -0.431 C  
HETATM    2  C   UNL     1     -10.808  18.935  67.431  1.00  0.00    -0.449 C  
ENDROOT
BRANCH   2   3
HETATM    3  C   UNL     1     -10.076  19.849  66.452  1.00  0.00    -0.615 C  
BRANCH   3   4
HETATM    4  C   UNL     1      -8.760  20.346  67.042  1.00  0.00    -0.385 C  
BRANCH   4   5
HETATM    5  C   UNL     1      -7.607  20.090  66.076  1.00  0.00    -0.326 C  
BRANCH   5   6
HETATM    6  C   UNL     1      -6.517  19.264  66.747  1.00  0.00    -0.191 C  
BRANCH   6   7
HETATM    7  C   UNL     1      -6.747  17.771  66.531  1.00  0.00    -0.259 C  
BRANCH   7   8
HETATM    8  C   UNL     1      -6.773  17.052  67.874  1.00  0.00    -0.158 C  
BRANCH   8   9
HETATM    9  C   UNL     1      -7.520  15.725  67.790  1.00  0.00    -0.162 C  
BRANCH   9  10
HETATM   10  C   UNL     1      -8.485  15.673  66.604  1.00  0.00    -0.323 C  
BRANCH  10  11
HETATM   11  C   UNL     1      -9.670  14.715  66.775  1.00  0.00    -0.267 C  
BRANCH  11  12
HETATM   12  C   UNL     1      -9.988  14.412  68.244  1.00  0.00    -0.232 C  
BRANCH  12  13
HETATM   13  N   UNL     1     -11.491  14.224  68.526  1.00  0.00    -0.280 N  
HETATM   14  C   UNL     1     -12.244  13.909  67.239  1.00  0.00    -0.289 C  
HETATM   15  C   UNL     1     -11.716  13.100  69.531  1.00  0.00    -0.319 C  
BRANCH  13  16
HETATM   16  C   UNL     1     -12.013  15.570  69.135  1.00  0.00    -0.309 C  
BRANCH  16  17
HETATM   17  C   UNL     1     -12.372  15.513  70.599  1.00  0.00    -0.462 A  
HETATM   18  C   UNL     1     -13.690  15.241  71.001  1.00  0.00    -0.452 A  
HETATM   19  C   UNL     1     -14.066  15.394  72.335  1.00  0.00    -0.645 A  
HETATM   20  C   UNL     1     -13.126  15.791  73.283  1.00  0.00    -0.692 A  
HETATM   21  C   UNL     1     -11.799  15.989  72.910  1.00  0.00    -0.555 A  
HETATM   22  C   UNL     1     -11.418  15.836  71.577  1.00  0.00    -0.504 A  
ENDBRANCH  16  17
ENDBRANCH  13  16
ENDBRANCH  12  13
ENDBRANCH  11  12
ENDBRANCH  10  11
ENDBRANCH   9  10
ENDBRANCH   8   9
ENDBRANCH   7   8
ENDBRANCH   6   7
ENDBRANCH   5   6
ENDBRANCH   4   5
ENDBRANCH   3   4
ENDBRANCH   2   3
TORSDOF 13
ENDMDL
MODEL        9
REMARK 921   NORMALIZED FREE ENERGY PREDICTED BY IDOCK:   -4.75 KCAL/MOL
REMARK 922        TOTAL FREE ENERGY PREDICTED BY IDOCK:   -9.83 KCAL/MOL
REMARK 923 INTER-LIGAND FREE ENERGY PREDICTED BY IDOCK:   -8.44 KCAL/MOL
REMARK 924 INTRA-LIGAND FREE ENERGY PREDICTED BY IDOCK:   -1.39 KCAL/MOL
REMARK 927      BINDING AFFINITY PREDICTED BY RF-SCORE:    0.00 PKD
ROOT
HETATM    1  C   UNL     1     -11.111   6.300  70.005  1.00  0.00    -0.455 C  
HETATM    2  C   UNL     1     -11.390   6.501  71.485  1.00  0.00    -0.339 C  
ENDROOT
BRANCH   2   3
HETATM    3  C   UNL     1     -12.502   7.524  71.698  1.00  0.00    -0.371 C  
BRANCH   3   4
HETATM    4  C   UNL     1     -11.945   8.944  71.729  1.00  0.00    -0.429 C  
BRANCH   4   5
HETATM    5  C   UNL     1     -13.079   9.966  71.704  1.00  0.00    -0.538 C  
BRANCH   5   6
HETATM    6  C   UNL     1     -12.579  11.311  71.194  1.00  0.00    -0.501 C  
BRANCH   6   7
HETATM    7  C   UNL     1     -13.270  12.464  71.915  1.00  0.00    -0.486 C  
BRANCH   7   8
HETATM    8  C   UNL     1     -12.745  13.793  71.387  1.00  0.00    -0.450 C  
BRANCH   8   9
HETATM    9  C   UNL     1     -12.112  13.644  70.007  1.00  0.00    -0.417 C  
BRANCH   9  10
HETATM   10  C   UNL     1     -11.719  14.990  69.397  1.00  0.00    -0.351 C  
BRANCH  10  11
HETATM   11  C   UNL     1     -11.249  14.927  67.939  1.00  0.00    -0.324 C  
BRANCH  11  12
HETATM   12  C   UNL     1     -12.152  14.055  67.056  1.00  0.00    -0.420 C  
BRANCH  12  13
HETATM   13  N   UNL     1     -11.471  13.575  65.760  1.00  0.00    -0.310 N  
HETATM   14  C   UNL     1     -12.377  12.613  65.001  1.00  0.00    -0.497 C  
HETATM   15  C   UNL     1     -11.125  14.758  64.862  1.00  0.00    -0.407 C  
BRANCH  13  16
HETATM   16  C   UNL     1     -10.149  12.846  66.181  1.00  0.00    -0.276 C  
BRANCH  16  17
HETATM   17  C   UNL     1     -10.298  11.376  66.483  1.00  0.00    -0.277 A  
HETATM   18  C   UNL     1     -10.832  10.949  67.710  1.00  0.00    -0.309 A  
HETATM   19  C   UNL     1     -10.776   9.605  68.074  1.00  0.00    -0.284 A  
HETATM   20  C   UNL     1     -10.214   8.671  67.207  1.00  0.00    -0.337 A  
HETATM   21  C   UNL     1      -9.751   9.070  65.956  1.00  0.00    -0.339 A  
HETATM   22  C   UNL     1      -9.807  10.414  65.587  1.00  0.00    -0.321 A  
ENDBRANCH  16  17
ENDBRANCH  13  16
ENDBRANCH  12  13
ENDBRANCH  11  12
ENDBRANCH  10  11
ENDBRANCH   9  10
ENDBRANCH   8   9
ENDBRANCH   7   8
ENDBRANCH   6   7
ENDBRANCH   5   6
ENDBRANCH   4   5
ENDBRANCH   3   4
ENDBRANCH   2   3
TORSDOF 13
ENDMDL
MODEL       10
REMARK 921   NORMALIZED FREE ENERGY PREDICTED BY IDOCK:   -4.74 KCAL/MOL
REMARK 922        TOTAL FREE ENERGY PREDICTED BY IDOCK:   -9.82 KCAL/MOL
REMARK 923 INTER-LIGAND FREE ENERGY PREDICTED BY IDOCK:   -8.53 KCAL/MOL
REMARK 924 INTRA-LIGAND FREE ENERGY PREDICTED BY IDOCK:   -1.29 KCAL/MOL
REMARK 927      BINDING AFFINITY PREDICTED BY RF-SCORE:    0.00 PKD
ROOT
HETATM    1  C   UNL     1     -12.422  16.064  72.543  1.00  0.00    -0.558 C  
HETATM    2  C   UNL     1     -13.854  15.621  72.797  1.00  0.00    -0.628 C  
ENDROOT
BRANCH   2   3
HETATM    3  C   UNL     1     -14.159  14.314  72.069  1.00  0.00    -0.618 C  
BRANCH   3   4
HETATM    4  C   UNL     1     -13.077  13.272  72.332  1.00  0.00    -0.443 C  
BRANCH   4   5
HETATM    5  C   UNL     1     -13.575  11.877  71.964  1.00  0.00    -0.190 C  
BRANCH   5   6
HETATM    6  C   UNL     1     -12.414  10.981  71.557  1.00  0.00    -0.389 C  
BRANCH   6   7
HETATM    7  C   UNL     1     -12.501  10.602  70.082  1.00  0.00    -0.342 C  
BRANCH   7   8
HETATM    8  C   UNL     1     -11.353  11.242  69.313  1.00  0.00    -0.354 C  
BRANCH   8   9
HETATM    9  C   UNL     1     -11.835  12.385  68.425  1.00  0.00    -0.361 C  
BRANCH   9  10
HETATM   10  C   UNL     1     -11.992  13.696  69.195  1.00  0.00    -0.394 C  
BRANCH  10  11
HETATM   11  C   UNL     1     -11.620  14.958  68.408  1.00  0.00    -0.348 C  
BRANCH  11  12
HETATM   12  C   UNL     1     -10.440  14.742  67.453  1.00  0.00    -0.256 C  
BRANCH  12  13
HETATM   13  N   UNL     1     -10.122  15.967  66.574  1.00  0.00    -0.273 N  
HETATM   14  C   UNL     1     -10.624  17.246  67.233  1.00  0.00    -0.283 C  
HETATM   15  C   UNL     1      -8.623  16.080  66.327  1.00  0.00    -0.328 C  
BRANCH  13  16
HETATM   16  C   UNL     1     -10.853  15.748  65.205  1.00  0.00    -0.428 C  
BRANCH  16  17
HETATM   17  C   UNL     1     -11.170  14.311  64.872  1.00  0.00    -0.381 A  
HETATM   18  C   UNL     1     -10.180  13.464  64.346  1.00  0.00    -0.262 A  
HETATM   19  C   UNL     1     -10.520  12.209  63.845  1.00  0.00    -0.442 A  
HETATM   20  C   UNL     1     -11.843  11.775  63.890  1.00  0.00    -0.449 A  
HETATM   21  C   UNL     1     -12.820  12.574  64.478  1.00  0.00    -0.352 A  
HETATM   22  C   UNL     1     -12.484  13.830  64.982  1.00  0.00    -0.449 A  
ENDBRANCH  16  17
ENDBRANCH  13  16
ENDBRANCH  12  13
ENDBRANCH  11  12
ENDBRANCH  10  11
ENDBRANCH   9  10
ENDBRANCH   8   9
ENDBRANCH   7   8
ENDBRANCH   6   7
ENDBRANCH   5   6
ENDBRANCH   4   5
ENDBRANCH   3   4
ENDBRANCH   2   3
TORSDOF 13
ENDMDL
MODEL       11
REMARK 921   NORMALIZED FREE ENERGY PREDICTED BY IDOCK:   -4.74 KCAL/MOL
REMARK 922        TOTAL FREE ENERGY PREDICTED BY IDOCK:   -9.81 KCAL/MOL
REMARK 923 INTER-LIGAND FREE ENERGY PREDICTED BY IDOCK:   -8.01 KCAL/MOL
REMARK 924 INTRA-LIGAND FREE ENERGY PREDICTED BY IDOCK:   -1.80 KCAL/MOL
REMARK 927      BINDING AFFINITY PREDICTED BY RF-SCORE:    0.00 PKD
ROOT
HETATM    1  C   UNL     1     -14.391  14.206  72.095  1.00  0.00    -0.606 C  
HETATM    2  C   UNL     1     -13.209  14.675  72.926  1.00  0.00    -0.609 C  
ENDROOT
BRANCH   2   3
HETATM    3  C   UNL     1     -11.983  14.914  72.048  1.00  0.00    -0.428 C  
BRANCH   3   4
HETATM    4  C   UNL     1     -12.346  15.723  70.806  1.00  0.00    -0.435 C  
BRANCH   4   5
HETATM    5  C   UNL     1     -11.151  15.822  69.862  1.00  0.00    -0.333 C  
BRANCH   5   6
HETATM    6  C   UNL     1     -10.863  14.473  69.217  1.00  0.00    -0.270 C  
BRANCH   6   7
HETATM    7  C   UNL     1     -12.032  14.015  68.351  1.00  0.00    -0.378 C  
BRANCH   7   8
HETATM    8  C   UNL     1     -11.779  14.392  66.897  1.00  0.00    -0.422 C  
BRANCH   8   9
HETATM    9  C   UNL     1     -11.540  13.163  66.027  1.00  0.00    -0.393 C  
BRANCH   9  10
HETATM   10  C   UNL     1     -11.658  11.858  66.816  1.00  0.00    -0.341 C  
BRANCH  10  11
HETATM   11  C   UNL     1     -10.498  10.875  66.621  1.00  0.00    -0.307 C  
BRANCH  11  12
HETATM   12  C   UNL     1      -9.499  10.888  67.785  1.00  0.00    -0.157 C  
BRANCH  12  13
HETATM   13  N   UNL     1      -9.276   9.503  68.424  1.00  0.00    -0.130 N  
HETATM   14  C   UNL     1     -10.338   8.517  67.953  1.00  0.00    -0.223 C  
HETATM   15  C   UNL     1      -7.894   8.964  68.074  1.00  0.00    -0.102 C  
BRANCH  13  16
HETATM   16  C   UNL     1      -9.374   9.696  69.976  1.00  0.00    -0.241 C  
BRANCH  16  17
HETATM   17  C   UNL     1     -10.777   9.753  70.526  1.00  0.00    -0.381 A  
HETATM   18  C   UNL     1     -11.574  10.894  70.336  1.00  0.00    -0.418 A  
HETATM   19  C   UNL     1     -12.782  11.032  71.016  1.00  0.00    -0.485 A  
HETATM   20  C   UNL     1     -13.221  10.022  71.870  1.00  0.00    -0.557 A  
HETATM   21  C   UNL     1     -12.478   8.853  72.008  1.00  0.00    -0.461 A  
HETATM   22  C   UNL     1     -11.268   8.710  71.327  1.00  0.00    -0.338 A  
ENDBRANCH  16  17
ENDBRANCH  13  16
ENDBRANCH  12  13
ENDBRANCH  11  12
ENDBRANCH  10  11
ENDBRANCH   9  10
ENDBRANCH   8   9
ENDBRANCH   7   8
ENDBRANCH   6   7
ENDBRANCH   5   6
ENDBRANCH   4   5
ENDBRANCH   3   4
ENDBRANCH   2   3
TORSDOF 13
ENDMDL
MODEL       12
REMARK 921   NORMALIZED FREE ENERGY PREDICTED BY IDOCK:   -4.74 KCAL/MOL
REMARK 922        TOTAL FREE ENERGY PREDICTED BY IDOCK:   -9.81 KCAL/MOL
REMARK 923 INTER-LIGAND FREE ENERGY PREDICTED BY IDOCK:   -8.43 KCAL/MOL
REMARK 924 INTRA-LIGAND FREE ENERGY PREDICTED BY IDOCK:   -1.38 KCAL/MOL
REMARK 927      BINDING AFFINITY PREDICTED BY RF-SCORE:    0.00 PKD
ROOT
HETATM    1  C   UNL     1     -11.876  15.947  71.794  1.00  0.00    -0.579 C  
HETATM    2  C   UNL     1     -12.947  15.620  70.767  1.00  0.00    -0.413 C  
ENDROOT
BRANCH   2   3
HETATM    3  C   UNL     1     -14.132  14.911  71.418  1.00  0.00    -0.552 C  
BRANCH   3   4
HETATM    4  C   UNL     1     -13.670  13.984  72.538  1.00  0.00    -0.651 C  
BRANCH   4   5
HETATM    5  C   UNL     1     -13.754  12.526  72.097  1.00  0.00    -0.338 C  
BRANCH   5   6
HETATM    6  C   UNL     1     -12.456  12.090  71.429  1.00  0.00    -0.240 C  
BRANCH   6   7
HETATM    7  C   UNL     1     -12.660  10.828  70.598  1.00  0.00    -0.446 C  
BRANCH   7   8
HETATM    8  C   UNL     1     -12.002  10.994  69.234  1.00  0.00    -0.410 C  
BRANCH   8   9
HETATM    9  C   UNL     1     -11.519  12.423  69.010  1.00  0.00    -0.352 C  
BRANCH   9  10
HETATM   10  C   UNL     1     -11.972  12.987  67.662  1.00  0.00    -0.353 C  
BRANCH  10  11
HETATM   11  C   UNL     1     -11.647  14.468  67.437  1.00  0.00    -0.406 C  
BRANCH  11  12
HETATM   12  C   UNL     1     -10.463  14.684  66.487  1.00  0.00    -0.290 C  
BRANCH  12  13
HETATM   13  N   UNL     1      -9.177  15.150  67.197  1.00  0.00    -0.204 N  
HETATM   14  C   UNL     1      -9.489  15.648  68.602  1.00  0.00    -0.204 C  
HETATM   15  C   UNL     1      -8.164  14.014  67.276  1.00  0.00    -0.171 C  
BRANCH  13  16
HETATM   16  C   UNL     1      -8.577  16.314  66.337  1.00  0.00    -0.326 C  
BRANCH  16  17
HETATM   17  C   UNL     1      -9.043  17.697  66.718  1.00  0.00    -0.273 A  
HETATM   18  C   UNL     1     -10.252  18.207  66.217  1.00  0.00    -0.401 A  
HETATM   19  C   UNL     1     -10.579  19.550  66.397  1.00  0.00    -0.571 A  
HETATM   20  C   UNL     1      -9.718  20.389  67.102  1.00  0.00    -0.601 A  
HETATM   21  C   UNL     1      -8.554  19.877  67.669  1.00  0.00    -0.385 A  
HETATM   22  C   UNL     1      -8.224  18.534  67.493  1.00  0.00    -0.262 A  
ENDBRANCH  16  17
ENDBRANCH  13  16
ENDBRANCH  12  13
ENDBRANCH  11  12
ENDBRANCH  10  11
ENDBRANCH   9  10
ENDBRANCH   8   9
ENDBRANCH   7   8
ENDBRANCH   6   7
ENDBRANCH   5   6
ENDBRANCH   4   5
ENDBRANCH   3   4
ENDBRANCH   2   3
TORSDOF 13
ENDMDL
MODEL       13
REMARK 921   NORMALIZED FREE ENERGY PREDICTED BY IDOCK:   -4.70 KCAL/MOL
REMARK 922        TOTAL FREE ENERGY PREDICTED BY IDOCK:   -9.75 KCAL/MOL
REMARK 923 INTER-LIGAND FREE ENERGY PREDICTED BY IDOCK:   -8.44 KCAL/MOL
REMARK 924 INTRA-LIGAND FREE ENERGY PREDICTED BY IDOCK:   -1.31 KCAL/MOL
REMARK 927      BINDING AFFINITY PREDICTED BY RF-SCORE:    0.00 PKD
ROOT
HETATM    1  C   UNL     1     -10.395   5.475  69.237  1.00  0.00    -0.335 C  
HETATM    2  C   UNL     1     -11.409   6.428  69.847  1.00  0.00    -0.500 C  
ENDROOT
BRANCH   2   3
HETATM    3  C   UNL     1     -11.554   6.188  71.347  1.00  0.00    -0.283 C  
BRANCH   3   4
HETATM    4  C   UNL     1     -10.596   7.072  72.141  1.00  0.00    -0.240 C  
BRANCH   4   5
HETATM    5  C   UNL     1     -11.037   8.531  72.078  1.00  0.00    -0.412 C  
BRANCH   5   6
HETATM    6  C   UNL     1     -12.525   8.657  72.379  1.00  0.00    -0.428 C  
BRANCH   6   7
HETATM    7  C   UNL     1     -13.228   9.514  71.331  1.00  0.00    -0.448 C  
BRANCH   7   8
HETATM    8  C   UNL     1     -13.194  10.978  71.751  1.00  0.00    -0.505 C  
BRANCH   8   9
HETATM    9  C   UNL     1     -12.171  11.774  70.946  1.00  0.00    -0.378 C  
BRANCH   9  10
HETATM   10  C   UNL     1     -12.159  11.381  69.468  1.00  0.00    -0.370 C  
BRANCH  10  11
HETATM   11  C   UNL     1     -11.638  12.463  68.515  1.00  0.00    -0.358 C  
BRANCH  11  12
HETATM   12  C   UNL     1     -10.954  13.625  69.245  1.00  0.00    -0.144 C  
BRANCH  12  13
HETATM   13  N   UNL     1     -10.906  14.929  68.423  1.00  0.00    -0.244 N  
HETATM   14  C   UNL     1      -9.530  15.576  68.523  1.00  0.00    -0.200 C  
HETATM   15  C   UNL     1     -11.232  14.657  66.960  1.00  0.00    -0.344 C  
BRANCH  13  16
HETATM   16  C   UNL     1     -11.993  15.886  69.022  1.00  0.00    -0.230 C  
BRANCH  16  17
HETATM   17  C   UNL     1     -12.387  15.594  70.449  1.00  0.00    -0.427 A  
HETATM   18  C   UNL     1     -13.684  15.151  70.755  1.00  0.00    -0.244 A  
HETATM   19  C   UNL     1     -14.111  15.083  72.080  1.00  0.00    -0.633 A  
HETATM   20  C   UNL     1     -13.241  15.428  73.112  1.00  0.00    -0.636 A  
HETATM   21  C   UNL     1     -11.929  15.795  72.825  1.00  0.00    -0.598 A  
HETATM   22  C   UNL     1     -11.497  15.863  71.500  1.00  0.00    -0.484 A  
ENDBRANCH  16  17
ENDBRANCH  13  16
ENDBRANCH  12  13
ENDBRANCH  11  12
ENDBRANCH  10  11
ENDBRANCH   9  10
ENDBRANCH   8   9
ENDBRANCH   7   8
ENDBRANCH   6   7
ENDBRANCH   5   6
ENDBRANCH   4   5
ENDBRANCH   3   4
ENDBRANCH   2   3
TORSDOF 13
ENDMDL
MODEL       14
REMARK 921   NORMALIZED FREE ENERGY PREDICTED BY IDOCK:   -4.69 KCAL/MOL
REMARK 922        TOTAL FREE ENERGY PREDICTED BY IDOCK:   -9.72 KCAL/MOL
REMARK 923 INTER-LIGAND FREE ENERGY PREDICTED BY IDOCK:   -7.80 KCAL/MOL
REMARK 924 INTRA-LIGAND FREE ENERGY PREDICTED BY IDOCK:   -1.92 KCAL/MOL
REMARK 927      BINDING AFFINITY PREDICTED BY RF-SCORE:    0.00 PKD
ROOT
HETATM    1  C   UNL     1     -10.829  19.092  67.539  1.00  0.00    -0.512 C  
HETATM    2  C   UNL     1     -10.429  19.608  66.167  1.00  0.00    -0.624 C  
ENDROOT
BRANCH   2   3
HETATM    3  C   UNL     1      -8.928  19.879  66.099  1.00  0.00    -0.373 C  
BRANCH   3   4
HETATM    4  C   UNL     1      -8.450  20.638  67.332  1.00  0.00    -0.299 C  
BRANCH   4   5
HETATM    5  C   UNL     1      -7.036  20.208  67.713  1.00  0.00    -0.330 C  
BRANCH   5   6
HETATM    6  C   UNL     1      -7.059  19.327  68.956  1.00  0.00    -0.391 C  
BRANCH   6   7
HETATM    7  C   UNL     1      -6.767  17.872  68.604  1.00  0.00    -0.239 C  
BRANCH   7   8
HETATM    8  C   UNL     1      -8.072  17.095  68.487  1.00  0.00    -0.260 C  
BRANCH   8   9
HETATM    9  C   UNL     1      -7.964  15.958  67.477  1.00  0.00    -0.166 C  
BRANCH   9  10
HETATM   10  C   UNL     1      -8.677  16.276  66.162  1.00  0.00    -0.353 C  
BRANCH  10  11
HETATM   11  C   UNL     1      -9.899  15.400  65.859  1.00  0.00    -0.387 C  
BRANCH  11  12
HETATM   12  C   UNL     1      -9.685  13.927  66.227  1.00  0.00    -0.289 C  
BRANCH  12  13
HETATM   13  N   UNL     1     -10.911  13.272  66.894  1.00  0.00    -0.275 N  
HETATM   14  C   UNL     1     -12.134  14.173  66.774  1.00  0.00    -0.442 C  
HETATM   15  C   UNL     1     -11.214  11.921  66.256  1.00  0.00    -0.337 C  
BRANCH  13  16
HETATM   16  C   UNL     1     -10.549  13.057  68.403  1.00  0.00    -0.251 C  
BRANCH  16  17
HETATM   17  C   UNL     1     -11.243  13.988  69.366  1.00  0.00    -0.283 A  
HETATM   18  C   UNL     1     -10.850  15.333  69.468  1.00  0.00    -0.275 A  
HETATM   19  C   UNL     1     -11.343  16.135  70.496  1.00  0.00    -0.392 A  
HETATM   20  C   UNL     1     -12.252  15.613  71.414  1.00  0.00    -0.477 A  
HETATM   21  C   UNL     1     -12.707  14.304  71.277  1.00  0.00    -0.427 A  
HETATM   22  C   UNL     1     -12.218  13.498  70.249  1.00  0.00    -0.417 A  
ENDBRANCH  16  17
ENDBRANCH  13  16
ENDBRANCH  12  13
ENDBRANCH  11  12
ENDBRANCH  10  11
ENDBRANCH   9  10
ENDBRANCH   8   9
ENDBRANCH   7   8
ENDBRANCH   6   7
ENDBRANCH   5   6
ENDBRANCH   4   5
ENDBRANCH   3   4
ENDBRANCH   2   3
TORSDOF 13
ENDMDL
MODEL       15
REMARK 921   NORMALIZED FREE ENERGY PREDICTED BY IDOCK:   -4.68 KCAL/MOL
REMARK 922        TOTAL FREE ENERGY PREDICTED BY IDOCK:   -9.72 KCAL/MOL
REMARK 923 INTER-LIGAND FREE ENERGY PREDICTED BY IDOCK:   -8.39 KCAL/MOL
REMARK 924 INTRA-LIGAND FREE ENERGY PREDICTED BY IDOCK:   -1.33 KCAL/MOL
REMARK 927      BINDING AFFINITY PREDICTED BY RF-SCORE:    0.00 PKD
ROOT
HETATM    1  C   UNL     1     -12.624  15.632  73.816  1.00  0.00    -0.743 C  
HETATM    2  C   UNL     1     -12.058  16.008  72.457  1.00  0.00    -0.635 C  
ENDROOT
BRANCH   2   3
HETATM    3  C   UNL     1     -12.912  15.433  71.330  1.00  0.00    -0.541 C  
BRANCH   3   4
HETATM    4  C   UNL     1     -13.566  14.121  71.750  1.00  0.00    -0.483 C  
BRANCH   4   5
HETATM    5  C   UNL     1     -12.784  12.931  71.201  1.00  0.00    -0.366 C  
BRANCH   5   6
HETATM    6  C   UNL     1     -13.193  11.646  71.907  1.00  0.00    -0.475 C  
BRANCH   6   7
HETATM    7  C   UNL     1     -13.013  10.435  70.996  1.00  0.00    -0.490 C  
BRANCH   7   8
HETATM    8  C   UNL     1     -11.631   9.831  71.205  1.00  0.00    -0.465 C  
BRANCH   8   9
HETATM    9  C   UNL     1     -10.999   9.395  69.887  1.00  0.00    -0.251 C  
BRANCH   9  10
HETATM   10  C   UNL     1      -9.923  10.369  69.405  1.00  0.00    -0.240 C  
BRANCH  10  11
HETATM   11  C   UNL     1     -10.449  11.585  68.633  1.00  0.00    -0.224 C  
BRANCH  11  12
HETATM   12  C   UNL     1     -11.155  11.204  67.325  1.00  0.00    -0.302 C  
BRANCH  12  13
HETATM   13  N   UNL     1     -10.802  12.125  66.141  1.00  0.00    -0.271 N  
HETATM   14  C   UNL     1      -9.376  12.647  66.272  1.00  0.00    -0.160 C  
HETATM   15  C   UNL     1     -10.948  11.382  64.818  1.00  0.00    -0.234 C  
BRANCH  13  16
HETATM   16  C   UNL     1     -11.815  13.320  66.174  1.00  0.00    -0.390 C  
BRANCH  16  17
HETATM   17  C   UNL     1     -11.233  14.640  66.613  1.00  0.00    -0.349 A  
HETATM   18  C   UNL     1     -11.360  15.070  67.944  1.00  0.00    -0.344 A  
HETATM   19  C   UNL     1     -11.011  16.372  68.301  1.00  0.00    -0.355 A  
HETATM   20  C   UNL     1     -10.506  17.246  67.342  1.00  0.00    -0.338 A  
HETATM   21  C   UNL     1     -10.304  16.808  66.036  1.00  0.00    -0.346 A  
HETATM   22  C   UNL     1     -10.650  15.506  65.675  1.00  0.00    -0.389 A  
ENDBRANCH  16  17
ENDBRANCH  13  16
ENDBRANCH  12  13
ENDBRANCH  11  12
ENDBRANCH  10  11
ENDBRANCH   9  10
ENDBRANCH   8   9
ENDBRANCH   7   8
ENDBRANCH   6   7
ENDBRANCH   5   6
ENDBRANCH   4   5
ENDBRANCH   3   4
ENDBRANCH   2   3
TORSDOF 13
ENDMDL
MODEL       16
REMARK 921   NORMALIZED FREE ENERGY PREDICTED BY IDOCK:   -4.67 KCAL/MOL
REMARK 922        TOTAL FREE ENERGY PREDICTED BY IDOCK:   -9.69 KCAL/MOL
REMARK 923 INTER-LIGAND FREE ENERGY PREDICTED BY IDOCK:   -7.50 KCAL/MOL
REMARK 924 INTRA-LIGAND FREE ENERGY PREDICTED BY IDOCK:   -2.19 KCAL/MOL
REMARK 927      BINDING AFFINITY PREDICTED BY RF-SCORE:    0.00 PKD
ROOT
HETATM    1  C   UNL     1     -10.019   9.153  68.832  1.00  0.00    -0.189 C  
HETATM    2  C   UNL     1      -9.409   9.593  70.153  1.00  0.00    -0.294 C  
ENDROOT
BRANCH   2   3
HETATM    3  C   UNL     1      -9.959   8.765  71.312  1.00  0.00    -0.333 C  
BRANCH   3   4
HETATM    4  C   UNL     1     -11.402   8.345  71.052  1.00  0.00    -0.303 C  
BRANCH   4   5
HETATM    5  C   UNL     1     -12.369   9.236  71.826  1.00  0.00    -0.454 C  
BRANCH   5   6
HETATM    6  C   UNL     1     -13.020  10.255  70.900  1.00  0.00    -0.456 C  
BRANCH   6   7
HETATM    7  C   UNL     1     -12.549  11.670  71.220  1.00  0.00    -0.425 C  
BRANCH   7   8
HETATM    8  C   UNL     1     -11.868  12.277  70.000  1.00  0.00    -0.372 C  
BRANCH   8   9
HETATM    9  C   UNL     1     -12.340  13.705  69.741  1.00  0.00    -0.285 C  
BRANCH   9  10
HETATM   10  C   UNL     1     -11.827  14.688  70.795  1.00  0.00    -0.372 C  
BRANCH  10  11
HETATM   11  C   UNL     1     -11.165  15.952  70.232  1.00  0.00    -0.388 C  
BRANCH  11  12
HETATM   12  C   UNL     1     -11.474  16.180  68.748  1.00  0.00    -0.340 C  
BRANCH  12  13
HETATM   13  N   UNL     1     -10.306  16.807  67.962  1.00  0.00    -0.302 N  
HETATM   14  C   UNL     1     -10.529  18.303  67.770  1.00  0.00    -0.410 C  
HETATM   15  C   UNL     1      -8.985  16.583  68.689  1.00  0.00    -0.236 C  
BRANCH  13  16
HETATM   16  C   UNL     1     -10.255  16.091  66.570  1.00  0.00    -0.293 C  
BRANCH  16  17
HETATM   17  C   UNL     1     -10.581  14.618  66.596  1.00  0.00    -0.289 A  
HETATM   18  C   UNL     1      -9.622  13.681  67.016  1.00  0.00    -0.251 A  
HETATM   19  C   UNL     1      -9.846  12.317  66.843  1.00  0.00    -0.216 A  
HETATM   20  C   UNL     1     -11.040  11.873  66.277  1.00  0.00    -0.364 A  
HETATM   21  C   UNL     1     -12.029  12.787  65.928  1.00  0.00    -0.506 A  
HETATM   22  C   UNL     1     -11.809  14.154  66.101  1.00  0.00    -0.420 A  
ENDBRANCH  16  17
ENDBRANCH  13  16
ENDBRANCH  12  13
ENDBRANCH  11  12
ENDBRANCH  10  11
ENDBRANCH   9  10
ENDBRANCH   8   9
ENDBRANCH   7   8
ENDBRANCH   6   7
ENDBRANCH   5   6
ENDBRANCH   4   5
ENDBRANCH   3   4
ENDBRANCH   2   3
TORSDOF 13
ENDMDL
MODEL       17
REMARK 921   NORMALIZED FREE ENERGY PREDICTED BY IDOCK:   -4.66 KCAL/MOL
REMARK 922        TOTAL FREE ENERGY PREDICTED BY IDOCK:   -9.67 KCAL/MOL
REMARK 923 INTER-LIGAND FREE ENERGY PREDICTED BY IDOCK:   -7.97 KCAL/MOL
REMARK 924 INTRA-LIGAND FREE ENERGY PREDICTED BY IDOCK:   -1.71 KCAL/MOL
REMARK 927      BINDING AFFINITY PREDICTED BY RF-SCORE:    0.00 PKD
ROOT
HETATM    1  C   UNL     1     -11.346   6.244  69.225  1.00  0.00    -0.411 C  
HETATM    2  C   UNL     1     -10.425   5.943  70.396  1.00  0.00    -0.324 C  
ENDROOT
BRANCH   2   3
HETATM    3  C   UNL     1     -11.177   6.030  71.721  1.00  0.00    -0.333 C  
BRANCH   3   4
HETATM    4  C   UNL     1     -12.432   6.887  71.586  1.00  0.00    -0.418 C  
BRANCH   4   5
HETATM    5  C   UNL     1     -12.219   8.255  72.227  1.00  0.00    -0.428 C  
BRANCH   5   6
HETATM    6  C   UNL     1     -13.085   9.308  71.549  1.00  0.00    -0.430 C  
BRANCH   6   7
HETATM    7  C   UNL     1     -12.237  10.277  70.732  1.00  0.00    -0.447 C  
BRANCH   7   8
HETATM    8  C   UNL     1     -10.804   9.766  70.648  1.00  0.00    -0.396 C  
BRANCH   8   9
HETATM    9  C   UNL     1     -10.092  10.281  69.401  1.00  0.00    -0.255 C  
BRANCH   9  10
HETATM   10  C   UNL     1     -10.972  10.204  68.153  1.00  0.00    -0.313 C  
BRANCH  10  11
HETATM   11  C   UNL     1     -10.387  10.876  66.905  1.00  0.00    -0.285 C  
BRANCH  11  12
HETATM   12  C   UNL     1     -11.385  11.803  66.201  1.00  0.00    -0.280 C  
BRANCH  12  13
HETATM   13  N   UNL     1     -10.888  13.256  66.064  1.00  0.00    -0.272 N  
HETATM   14  C   UNL     1      -9.558  13.440  66.784  1.00  0.00    -0.262 C  
HETATM   15  C   UNL     1     -10.725  13.634  64.596  1.00  0.00    -0.421 C  
BRANCH  13  16
HETATM   16  C   UNL     1     -11.980  14.174  66.712  1.00  0.00    -0.447 C  
BRANCH  16  17
HETATM   17  C   UNL     1     -11.759  14.499  68.169  1.00  0.00    -0.369 A  
HETATM   18  C   UNL     1     -12.159  13.598  69.170  1.00  0.00    -0.361 A  
HETATM   19  C   UNL     1     -12.149  13.983  70.510  1.00  0.00    -0.424 A  
HETATM   20  C   UNL     1     -11.714  15.258  70.865  1.00  0.00    -0.386 A  
HETATM   21  C   UNL     1     -11.244  16.132  69.890  1.00  0.00    -0.349 A  
HETATM   22  C   UNL     1     -11.251  15.751  68.548  1.00  0.00    -0.354 A  
ENDBRANCH  16  17
ENDBRANCH  13  16
ENDBRANCH  12  13
ENDBRANCH  11  12
ENDBRANCH  10  11
ENDBRANCH   9  10
ENDBRANCH   8   9
ENDBRANCH   7   8
ENDBRANCH   6   7
ENDBRANCH   5   6
ENDBRANCH   4   5
ENDBRANCH   3   4
ENDBRANCH   2   3
TORSDOF 13
ENDMDL
MODEL       18
REMARK 921   NORMALIZED FREE ENERGY PREDICTED BY IDOCK:   -4.65 KCAL/MOL
REMARK 922        TOTAL FREE ENERGY PREDICTED BY IDOCK:   -9.66 KCAL/MOL
REMARK 923 INTER-LIGAND FREE ENERGY PREDICTED BY IDOCK:   -7.73 KCAL/MOL
REMARK 924 INTRA-LIGAND FREE ENERGY PREDICTED BY IDOCK:   -1.94 KCAL/MOL
REMARK 927      BINDING AFFINITY PREDICTED BY RF-SCORE:    0.00 PKD
ROOT
HETATM    1  C   UNL     1     -12.027  16.072  72.310  1.00  0.00    -0.633 C  
HETATM    2  C   UNL     1     -13.176  15.478  71.512  1.00  0.00    -0.589 C  
ENDROOT
BRANCH   2   3
HETATM    3  C   UNL     1     -13.355  13.996  71.831  1.00  0.00    -0.489 C  
BRANCH   3   4
HETATM    4  C   UNL     1     -12.581  13.124  70.846  1.00  0.00    -0.377 C  
BRANCH   4   5
HETATM    5  C   UNL     1     -12.803  11.645  71.150  1.00  0.00    -0.392 C  
BRANCH   5   6
HETATM    6  C   UNL     1     -11.709  10.796  70.518  1.00  0.00    -0.449 C  
BRANCH   6   7
HETATM    7  C   UNL     1     -11.614  11.047  69.016  1.00  0.00    -0.392 C  
BRANCH   7   8
HETATM    8  C   UNL     1     -10.683  10.024  68.378  1.00  0.00    -0.271 C  
BRANCH   8   9
HETATM    9  C   UNL     1      -9.738  10.671  67.371  1.00  0.00    -0.192 C  
BRANCH   9  10
HETATM   10  C   UNL     1     -10.027  10.232  65.934  1.00  0.00    -0.321 C  
BRANCH  10  11
HETATM   11  C   UNL     1     -10.636  11.315  65.036  1.00  0.00    -0.353 C  
BRANCH  11  12
HETATM   12  C   UNL     1     -10.184  12.731  65.415  1.00  0.00    -0.283 C  
BRANCH  12  13
HETATM   13  N   UNL     1     -11.316  13.776  65.362  1.00  0.00    -0.304 N  
HETATM   14  C   UNL     1     -10.768  15.142  64.969  1.00  0.00    -0.430 C  
HETATM   15  C   UNL     1     -12.391  13.357  64.366  1.00  0.00    -0.341 C  
BRANCH  13  16
HETATM   16  C   UNL     1     -11.943  13.842  66.796  1.00  0.00    -0.438 C  
BRANCH  16  17
HETATM   17  C   UNL     1     -11.158  14.649  67.801  1.00  0.00    -0.306 A  
HETATM   18  C   UNL     1     -11.581  15.937  68.169  1.00  0.00    -0.224 A  
HETATM   19  C   UNL     1     -10.752  16.760  68.930  1.00  0.00    -0.333 A  
HETATM   20  C   UNL     1      -9.509  16.297  69.354  1.00  0.00    -0.161 A  
HETATM   21  C   UNL     1      -9.111  14.996  69.061  1.00  0.00    -0.205 A  
HETATM   22  C   UNL     1      -9.938  14.168  68.301  1.00  0.00    -0.241 A  
ENDBRANCH  16  17
ENDBRANCH  13  16
ENDBRANCH  12  13
ENDBRANCH  11  12
ENDBRANCH  10  11
ENDBRANCH   9  10
ENDBRANCH   8   9
ENDBRANCH   7   8
ENDBRANCH   6   7
ENDBRANCH   5   6
ENDBRANCH   4   5
ENDBRANCH   3   4
ENDBRANCH   2   3
TORSDOF 13
ENDMDL
MODEL       19
REMARK 921   NORMALIZED FREE ENERGY PREDICTED BY IDOCK:   -4.63 KCAL/MOL
REMARK 922        TOTAL FREE ENERGY PREDICTED BY IDOCK:   -9.63 KCAL/MOL
REMARK 923 INTER-LIGAND FREE ENERGY PREDICTED BY IDOCK:   -7.34 KCAL/MOL
REMARK 924 INTRA-LIGAND FREE ENERGY PREDICTED BY IDOCK:   -2.28 KCAL/MOL
REMARK 927      BINDING AFFINITY PREDICTED BY RF-SCORE:    0.00 PKD
ROOT
HETATM    1  C   UNL     1     -13.194   9.857  71.857  1.00  0.00    -0.558 C  
HETATM    2  C   UNL     1     -12.483   8.539  71.592  1.00  0.00    -0.370 C  
ENDROOT
BRANCH   2   3
HETATM    3  C   UNL     1     -11.030   8.599  72.055  1.00  0.00    -0.432 C  
BRANCH   3   4
HETATM    4  C   UNL     1     -10.106   9.014  70.915  1.00  0.00    -0.329 C  
BRANCH   4   5
HETATM    5  C   UNL     1     -10.575   8.406  69.596  1.00  0.00    -0.219 C  
BRANCH   5   6
HETATM    6  C   UNL     1     -10.532   9.443  68.481  1.00  0.00    -0.239 C  
BRANCH   6   7
HETATM    7  C   UNL     1     -10.431  10.856  69.046  1.00  0.00    -0.244 C  
BRANCH   7   8
HETATM    8  C   UNL     1     -11.787  11.545  68.965  1.00  0.00    -0.408 C  
BRANCH   8   9
HETATM    9  C   UNL     1     -11.941  12.619  70.037  1.00  0.00    -0.377 C  
BRANCH   9  10
HETATM   10  C   UNL     1     -12.230  13.998  69.443  1.00  0.00    -0.336 C  
BRANCH  10  11
HETATM   11  C   UNL     1     -11.176  15.069  69.748  1.00  0.00    -0.301 C  
BRANCH  11  12
HETATM   12  C   UNL     1      -9.889  14.891  68.932  1.00  0.00    -0.230 C  
BRANCH  12  13
HETATM   13  N   UNL     1      -9.579  16.080  68.001  1.00  0.00    -0.215 N  
HETATM   14  C   UNL     1     -10.703  17.107  68.048  1.00  0.00    -0.372 C  
HETATM   15  C   UNL     1      -8.267  16.747  68.397  1.00  0.00    -0.224 C  
BRANCH  13  16
HETATM   16  C   UNL     1      -9.443  15.500  66.552  1.00  0.00    -0.273 C  
BRANCH  16  17
HETATM   17  C   UNL     1     -10.446  14.432  66.193  1.00  0.00    -0.295 A  
HETATM   18  C   UNL     1     -10.046  13.092  66.059  1.00  0.00    -0.286 A  
HETATM   19  C   UNL     1     -10.919  12.145  65.527  1.00  0.00    -0.343 A  
HETATM   20  C   UNL     1     -12.207  12.519  65.150  1.00  0.00    -0.509 A  
HETATM   21  C   UNL     1     -12.641  13.826  65.350  1.00  0.00    -0.534 A  
HETATM   22  C   UNL     1     -11.771  14.777  65.883  1.00  0.00    -0.248 A  
ENDBRANCH  16  17
ENDBRANCH  13  16
ENDBRANCH  12  13
ENDBRANCH  11  12
ENDBRANCH  10  11
ENDBRANCH   9  10
ENDBRANCH   8   9
ENDBRANCH   7   8
ENDBRANCH   6   7
ENDBRANCH   5   6
ENDBRANCH   4   5
ENDBRANCH   3   4
ENDBRANCH   2   3
TORSDOF 13
ENDMDL
MODEL       20
REMARK 921   NORMALIZED FREE ENERGY PREDICTED BY IDOCK:   -4.63 KCAL/MOL
REMARK 922        TOTAL FREE ENERGY PREDICTED BY IDOCK:   -9.62 KCAL/MOL
REMARK 923 INTER-LIGAND FREE ENERGY PREDICTED BY IDOCK:   -7.94 KCAL/MOL
REMARK 924 INTRA-LIGAND FREE ENERGY PREDICTED BY IDOCK:   -1.68 KCAL/MOL
REMARK 927      BINDING AFFINITY PREDICTED BY RF-SCORE:    0.00 PKD
ROOT
HETATM    1  C   UNL     1     -12.477  12.428  64.828  1.00  0.00    -0.480 C  
HETATM    2  C   UNL     1     -11.747  12.791  63.545  1.00  0.00    -0.597 C  
ENDROOT
BRANCH   2   3
HETATM    3  C   UNL     1     -10.432  12.025  63.428  1.00  0.00    -0.474 C  
BRANCH   3   4
HETATM    4  C   UNL     1     -10.367  10.885  64.441  1.00  0.00    -0.430 C  
BRANCH   4   5
HETATM    5  C   UNL     1      -8.917  10.541  64.769  1.00  0.00    -0.227 C  
BRANCH   5   6
HETATM    6  C   UNL     1      -8.849   9.519  65.896  1.00  0.00    -0.193 C  
BRANCH   6   7
HETATM    7  C   UNL     1     -10.245   9.121  66.364  1.00  0.00    -0.300 C  
BRANCH   7   8
HETATM    8  C   UNL     1     -10.377   9.361  67.862  1.00  0.00    -0.276 C  
BRANCH   8   9
HETATM    9  C   UNL     1     -11.064  10.689  68.163  1.00  0.00    -0.343 C  
BRANCH   9  10
HETATM   10  C   UNL     1     -10.067  11.797  68.507  1.00  0.00    -0.212 C  
BRANCH  10  11
HETATM   11  C   UNL     1     -10.036  12.969  67.518  1.00  0.00    -0.212 C  
BRANCH  11  12
HETATM   12  C   UNL     1      -9.640  14.297  68.176  1.00  0.00    -0.218 C  
BRANCH  12  13
HETATM   13  N   UNL     1     -10.842  15.198  68.522  1.00  0.00    -0.239 N  
HETATM   14  C   UNL     1     -10.663  16.586  67.919  1.00  0.00    -0.337 C  
HETATM   15  C   UNL     1     -12.140  14.587  68.008  1.00  0.00    -0.198 C  
BRANCH  13  16
HETATM   16  C   UNL     1     -10.903  15.296  70.084  1.00  0.00    -0.281 C  
BRANCH  16  17
HETATM   17  C   UNL     1     -12.152  14.729  70.713  1.00  0.00    -0.374 A  
HETATM   18  C   UNL     1     -13.187  15.579  71.136  1.00  0.00    -0.576 A  
HETATM   19  C   UNL     1     -14.240  15.080  71.901  1.00  0.00    -0.649 A  
HETATM   20  C   UNL     1     -14.286  13.726  72.226  1.00  0.00    -0.563 A  
HETATM   21  C   UNL     1     -13.306  12.860  71.747  1.00  0.00    -0.451 A  
HETATM   22  C   UNL     1     -12.251  13.355  70.980  1.00  0.00    -0.312 A  
ENDBRANCH  16  17
ENDBRANCH  13  16
ENDBRANCH  12  13
ENDBRANCH  11  12
ENDBRANCH  10  11
ENDBRANCH   9  10
ENDBRANCH   8   9
ENDBRANCH   7   8
ENDBRANCH   6   7
ENDBRANCH   5   6
ENDBRANCH   4   5
ENDBRANCH   3   4
ENDBRANCH   2   3
TORSDOF 13
ENDMDL
MODEL       21
REMARK 921   NORMALIZED FREE ENERGY PREDICTED BY IDOCK:   -4.61 KCAL/MOL
REMARK 922        TOTAL FREE ENERGY PREDICTED BY IDOCK:   -9.59 KCAL/MOL
REMARK 923 INTER-LIGAND FREE ENERGY PREDICTED BY IDOCK:   -8.23 KCAL/MOL
REMARK 924 INTRA-LIGAND FREE ENERGY PREDICTED BY IDOCK:   -1.35 KCAL/MOL
REMARK 927      BINDING AFFINITY PREDICTED BY RF-SCORE:    0.00 PKD
ROOT
HETATM    1  C   UNL     1     -10.627  19.519  66.911  1.00  0.00    -0.602 C  
HETATM    2  C   UNL     1     -10.154  18.474  67.908  1.00  0.00    -0.398 C  
ENDROOT
BRANCH   2   3
HETATM    3  C   UNL     1     -10.519  17.067  67.442  1.00  0.00    -0.322 C  
BRANCH   3   4
HETATM    4  C   UNL     1      -9.895  16.758  66.085  1.00  0.00    -0.330 C  
BRANCH   4   5
HETATM    5  C   UNL     1     -10.320  15.374  65.602  1.00  0.00    -0.395 C  
BRANCH   5   6
HETATM    6  C   UNL     1     -11.321  14.751  66.567  1.00  0.00    -0.344 C  
BRANCH   6   7
HETATM    7  C   UNL     1     -12.467  14.083  65.815  1.00  0.00    -0.523 C  
BRANCH   7   8
HETATM    8  C   UNL     1     -12.082  13.881  64.355  1.00  0.00    -0.477 C  
BRANCH   8   9
HETATM    9  C   UNL     1     -12.004  12.402  63.991  1.00  0.00    -0.546 C  
BRANCH   9  10
HETATM   10  C   UNL     1     -10.565  11.884  63.957  1.00  0.00    -0.422 C  
BRANCH  10  11
HETATM   11  C   UNL     1     -10.231  10.830  65.019  1.00  0.00    -0.373 C  
BRANCH  11  12
HETATM   12  C   UNL     1      -9.762  11.443  66.344  1.00  0.00    -0.204 C  
BRANCH  12  13
HETATM   13  N   UNL     1     -10.287  10.701  67.589  1.00  0.00    -0.197 N  
HETATM   14  C   UNL     1     -10.349   9.200  67.334  1.00  0.00    -0.264 C  
HETATM   15  C   UNL     1      -9.396  10.973  68.795  1.00  0.00    -0.179 C  
BRANCH  13  16
HETATM   16  C   UNL     1     -11.724  11.255  67.877  1.00  0.00    -0.214 C  
BRANCH  16  17
HETATM   17  C   UNL     1     -12.014  11.560  69.326  1.00  0.00    -0.397 A  
HETATM   18  C   UNL     1     -12.444  10.545  70.197  1.00  0.00    -0.297 A  
HETATM   19  C   UNL     1     -12.910  10.861  71.472  1.00  0.00    -0.560 A  
HETATM   20  C   UNL     1     -12.925  12.187  71.900  1.00  0.00    -0.419 A  
HETATM   21  C   UNL     1     -12.430  13.192  71.074  1.00  0.00    -0.406 A  
HETATM   22  C   UNL     1     -11.961  12.880  69.798  1.00  0.00    -0.365 A  
ENDBRANCH  16  17
ENDBRANCH  13  16
ENDBRANCH  12  13
ENDBRANCH  11  12
ENDBRANCH  10  11
ENDBRANCH   9  10
ENDBRANCH   8   9
ENDBRANCH   7   8
ENDBRANCH   6   7
ENDBRANCH   5   6
ENDBRANCH   4   5
ENDBRANCH   3   4
ENDBRANCH   2   3
TORSDOF 13
ENDMDL
MODEL       22
REMARK 921   NORMALIZED FREE ENERGY PREDICTED BY IDOCK:   -4.58 KCAL/MOL
REMARK 922        TOTAL FREE ENERGY PREDICTED BY IDOCK:   -9.54 KCAL/MOL
REMARK 923 INTER-LIGAND FREE ENERGY PREDICTED BY IDOCK:   -8.44 KCAL/MOL
REMARK 924 INTRA-LIGAND FREE ENERGY PREDICTED BY IDOCK:   -1.10 KCAL/MOL
REMARK 927      BINDING AFFINITY PREDICTED BY RF-SCORE:    0.00 PKD
ROOT
HETATM    1  C   UNL     1      -9.795   7.086  73.980  1.00  0.00    -0.345 C  
HETATM    2  C   UNL     1     -10.900   7.460  73.005  1.00  0.00    -0.423 C  
ENDROOT
BRANCH   2   3
HETATM    3  C   UNL     1     -10.459   8.600  72.090  1.00  0.00    -0.411 C  
BRANCH   3   4
HETATM    4  C   UNL     1     -11.660   9.379  71.564  1.00  0.00    -0.467 C  
BRANCH   4   5
HETATM    5  C   UNL     1     -11.269  10.213  70.348  1.00  0.00    -0.402 C  
BRANCH   5   6
HETATM    6  C   UNL     1     -12.117  11.475  70.264  1.00  0.00    -0.444 C  
BRANCH   6   7
HETATM    7  C   UNL     1     -12.891  11.705  71.558  1.00  0.00    -0.469 C  
BRANCH   7   8
HETATM    8  C   UNL     1     -13.177  13.191  71.733  1.00  0.00    -0.494 C  
BRANCH   8   9
HETATM    9  C   UNL     1     -12.497  14.028  70.655  1.00  0.00    -0.435 C  
BRANCH   9  10
HETATM   10  C   UNL     1     -11.576  15.098  71.242  1.00  0.00    -0.406 C  
BRANCH  10  11
HETATM   11  C   UNL     1     -11.093  16.156  70.243  1.00  0.00    -0.375 C  
BRANCH  11  12
HETATM   12  C   UNL     1      -9.759  15.790  69.581  1.00  0.00    -0.248 C  
BRANCH  12  13
HETATM   13  N   UNL     1      -9.480  16.567  68.279  1.00  0.00    -0.215 N  
HETATM   14  C   UNL     1     -10.691  17.402  67.882  1.00  0.00    -0.351 C  
HETATM   15  C   UNL     1      -8.269  17.479  68.444  1.00  0.00    -0.278 C  
BRANCH  13  16
HETATM   16  C   UNL     1      -9.174  15.504  67.170  1.00  0.00    -0.214 C  
BRANCH  16  17
HETATM   17  C   UNL     1     -10.388  14.850  66.558  1.00  0.00    -0.295 A  
HETATM   18  C   UNL     1     -11.047  13.803  67.223  1.00  0.00    -0.319 A  
HETATM   19  C   UNL     1     -12.033  13.064  66.572  1.00  0.00    -0.457 A  
HETATM   20  C   UNL     1     -12.389  13.379  65.262  1.00  0.00    -0.513 A  
HETATM   21  C   UNL     1     -11.797  14.462  64.619  1.00  0.00    -0.460 A  
HETATM   22  C   UNL     1     -10.812  15.206  65.268  1.00  0.00    -0.414 A  
ENDBRANCH  16  17
ENDBRANCH  13  16
ENDBRANCH  12  13
ENDBRANCH  11  12
ENDBRANCH  10  11
ENDBRANCH   9  10
ENDBRANCH   8   9
ENDBRANCH   7   8
ENDBRANCH   6   7
ENDBRANCH   5   6
ENDBRANCH   4   5
ENDBRANCH   3   4
ENDBRANCH   2   3
TORSDOF 13
ENDMDL
MODEL       23
REMARK 921   NORMALIZED FREE ENERGY PREDICTED BY IDOCK:   -4.57 KCAL/MOL
REMARK 922        TOTAL FREE ENERGY PREDICTED BY IDOCK:   -9.51 KCAL/MOL
REMARK 923 INTER-LIGAND FREE ENERGY PREDICTED BY IDOCK:   -7.18 KCAL/MOL
REMARK 924 INTRA-LIGAND FREE ENERGY PREDICTED BY IDOCK:   -2.33 KCAL/MOL
REMARK 927      BINDING AFFINITY PREDICTED BY RF-SCORE:    0.00 PKD
ROOT
HETATM    1  C   UNL     1     -10.379  19.899  66.117  1.00  0.00    -0.604 C  
HETATM    2  C   UNL     1     -10.368  19.285  67.508  1.00  0.00    -0.542 C  
ENDROOT
BRANCH   2   3
HETATM    3  C   UNL     1     -10.344  17.761  67.433  1.00  0.00    -0.370 C  
BRANCH   3   4
HETATM    4  C   UNL     1      -9.035  17.261  66.830  1.00  0.00    -0.269 C  
BRANCH   4   5
HETATM    5  C   UNL     1      -9.293  16.098  65.876  1.00  0.00    -0.316 C  
BRANCH   5   6
HETATM    6  C   UNL     1     -10.770  16.017  65.514  1.00  0.00    -0.374 C  
BRANCH   6   7
HETATM    7  C   UNL     1     -11.080  14.735  64.747  1.00  0.00    -0.393 C  
BRANCH   7   8
HETATM    8  C   UNL     1     -12.292  14.046  65.360  1.00  0.00    -0.495 C  
BRANCH   8   9
HETATM    9  C   UNL     1     -12.378  12.581  64.945  1.00  0.00    -0.539 C  
BRANCH   9  10
HETATM   10  C   UNL     1     -11.421  12.241  63.802  1.00  0.00    -0.545 C  
BRANCH  10  11
HETATM   11  C   UNL     1     -10.411  11.129  64.112  1.00  0.00    -0.442 C  
BRANCH  11  12
HETATM   12  C   UNL     1     -10.595  10.526  65.510  1.00  0.00    -0.068 C  
BRANCH  12  13
HETATM   13  N   UNL     1      -9.299   9.942  66.106  1.00  0.00    -0.170 N  
HETATM   14  C   UNL     1      -9.275   8.425  65.958  1.00  0.00    -0.187 C  
HETATM   15  C   UNL     1      -8.074  10.536  65.421  1.00  0.00    -0.141 C  
BRANCH  13  16
HETATM   16  C   UNL     1      -9.279  10.332  67.623  1.00  0.00    -0.144 C  
BRANCH  16  17
HETATM   17  C   UNL     1     -10.012  11.606  67.966  1.00  0.00    -0.194 A  
HETATM   18  C   UNL     1      -9.348  12.843  67.930  1.00  0.00    -0.208 A  
HETATM   19  C   UNL     1      -9.959  13.986  68.445  1.00  0.00    -0.236 A  
HETATM   20  C   UNL     1     -11.246  13.910  68.974  1.00  0.00    -0.312 A  
HETATM   21  C   UNL     1     -11.942  12.705  68.945  1.00  0.00    -0.284 A  
HETATM   22  C   UNL     1     -11.336  11.560  68.430  1.00  0.00    -0.342 A  
ENDBRANCH  16  17
ENDBRANCH  13  16
ENDBRANCH  12  13
ENDBRANCH  11  12
ENDBRANCH  10  11
ENDBRANCH   9  10
ENDBRANCH   8   9
ENDBRANCH   7   8
ENDBRANCH   6   7
ENDBRANCH   5   6
ENDBRANCH   4   5
ENDBRANCH   3   4
ENDBRANCH   2   3
TORSDOF 13
ENDMDL
MODEL       24
REMARK 921   NORMALIZED FREE ENERGY PREDICTED BY IDOCK:   -4.56 KCAL/MOL
REMARK 922        TOTAL FREE ENERGY PREDICTED BY IDOCK:   -9.49 KCAL/MOL
REMARK 923 INTER-LIGAND FREE ENERGY PREDICTED BY IDOCK:   -8.41 KCAL/MOL
REMARK 924 INTRA-LIGAND FREE ENERGY PREDICTED BY IDOCK:   -1.09 KCAL/MOL
REMARK 927      BINDING AFFINITY PREDICTED BY RF-SCORE:    0.00 PKD
ROOT
HETATM    1  C   UNL     1     -12.543  16.230  73.973  1.00  0.00    -0.633 C  
HETATM    2  C   UNL     1     -12.318  15.088  72.996  1.00  0.00    -0.483 C  
ENDROOT
BRANCH   2   3
HETATM    3  C   UNL     1     -13.645  14.479  72.551  1.00  0.00    -0.586 C  
BRANCH   3   4
HETATM    4  C   UNL     1     -13.493  12.993  72.243  1.00  0.00    -0.645 C  
BRANCH   4   5
HETATM    5  C   UNL     1     -12.479  12.778  71.122  1.00  0.00    -0.335 C  
BRANCH   5   6
HETATM    6  C   UNL     1     -12.387  11.303  70.756  1.00  0.00    -0.495 C  
BRANCH   6   7
HETATM    7  C   UNL     1     -13.123  10.436  71.772  1.00  0.00    -0.567 C  
BRANCH   7   8
HETATM    8  C   UNL     1     -12.448   9.074  71.877  1.00  0.00    -0.454 C  
BRANCH   8   9
HETATM    9  C   UNL     1     -10.952   9.162  71.595  1.00  0.00    -0.445 C  
BRANCH   9  10
HETATM   10  C   UNL     1     -10.473   8.066  70.641  1.00  0.00    -0.219 C  
BRANCH  10  11
HETATM   11  C   UNL     1      -9.466   8.526  69.580  1.00  0.00    -0.165 C  
BRANCH  11  12
HETATM   12  C   UNL     1      -9.300  10.050  69.533  1.00  0.00    -0.229 C  
BRANCH  12  13
HETATM   13  N   UNL     1      -9.309  10.629  68.104  1.00  0.00    -0.147 N  
HETATM   14  C   UNL     1      -8.655  12.005  68.077  1.00  0.00    -0.170 C  
HETATM   15  C   UNL     1      -8.576   9.702  67.142  1.00  0.00    -0.132 C  
BRANCH  13  16
HETATM   16  C   UNL     1     -10.810  10.740  67.667  1.00  0.00    -0.279 C  
BRANCH  16  17
HETATM   17  C   UNL     1     -11.131  11.913  66.773  1.00  0.00    -0.359 A  
HETATM   18  C   UNL     1     -11.784  13.045  67.288  1.00  0.00    -0.429 A  
HETATM   19  C   UNL     1     -12.266  14.031  66.429  1.00  0.00    -0.492 A  
HETATM   20  C   UNL     1     -12.075  13.912  65.054  1.00  0.00    -0.422 A  
HETATM   21  C   UNL     1     -11.363  12.833  64.539  1.00  0.00    -0.378 A  
HETATM   22  C   UNL     1     -10.877  11.844  65.395  1.00  0.00    -0.343 A  
ENDBRANCH  16  17
ENDBRANCH  13  16
ENDBRANCH  12  13
ENDBRANCH  11  12
ENDBRANCH  10  11
ENDBRANCH   9  10
ENDBRANCH   8   9
ENDBRANCH   7   8
ENDBRANCH   6   7
ENDBRANCH   5   6
ENDBRANCH   4   5
ENDBRANCH   3   4
ENDBRANCH   2   3
TORSDOF 13
ENDMDL
MODEL       25
REMARK 921   NORMALIZED FREE ENERGY PREDICTED BY IDOCK:   -4.56 KCAL/MOL
REMARK 922        TOTAL FREE ENERGY PREDICTED BY IDOCK:   -9.49 KCAL/MOL
REMARK 923 INTER-LIGAND FREE ENERGY PREDICTED BY IDOCK:   -8.55 KCAL/MOL
REMARK 924 INTRA-LIGAND FREE ENERGY PREDICTED BY IDOCK:   -0.94 KCAL/MOL
REMARK 927      BINDING AFFINITY PREDICTED BY RF-SCORE:    0.00 PKD
ROOT
HETATM    1  C   UNL     1     -12.806  15.865  73.511  1.00  0.00    -0.705 C  
HETATM    2  C   UNL     1     -13.808  15.332  72.500  1.00  0.00    -0.626 C  
ENDROOT
BRANCH   2   3
HETATM    3  C   UNL     1     -13.239  15.386  71.085  1.00  0.00    -0.583 C  
BRANCH   3   4
HETATM    4  C   UNL     1     -11.787  15.853  71.093  1.00  0.00    -0.483 C  
BRANCH   4   5
HETATM    5  C   UNL     1     -10.994  15.160  69.988  1.00  0.00    -0.291 C  
BRANCH   5   6
HETATM    6  C   UNL     1     -11.837  14.086  69.313  1.00  0.00    -0.389 C  
BRANCH   6   7
HETATM    7  C   UNL     1     -11.175  13.591  68.032  1.00  0.00    -0.300 C  
BRANCH   7   8
HETATM    8  C   UNL     1     -12.120  13.783  66.853  1.00  0.00    -0.454 C  
BRANCH   8   9
HETATM    9  C   UNL     1     -11.488  14.630  65.753  1.00  0.00    -0.338 C  
BRANCH   9  10
HETATM   10  C   UNL     1      -9.988  14.837  65.966  1.00  0.00    -0.336 C  
BRANCH  10  11
HETATM   11  C   UNL     1      -9.529  16.300  65.962  1.00  0.00    -0.369 C  
BRANCH  11  12
HETATM   12  C   UNL     1     -10.501  17.234  66.693  1.00  0.00    -0.257 C  
BRANCH  12  13
HETATM   13  N   UNL     1      -9.937  18.649  66.931  1.00  0.00    -0.325 N  
HETATM   14  C   UNL     1     -10.697  19.677  66.102  1.00  0.00    -0.416 C  
HETATM   15  C   UNL     1     -10.025  19.023  68.406  1.00  0.00    -0.408 C  
BRANCH  13  16
HETATM   16  C   UNL     1      -8.431  18.619  66.498  1.00  0.00    -0.291 C  
BRANCH  16  17
HETATM   17  C   UNL     1      -7.491  19.378  67.400  1.00  0.00    -0.259 A  
HETATM   18  C   UNL     1      -7.095  20.687  67.080  1.00  0.00    -0.385 A  
HETATM   19  C   UNL     1      -6.072  21.309  67.794  1.00  0.00    -0.402 A  
HETATM   20  C   UNL     1      -5.454  20.642  68.850  1.00  0.00    -0.365 A  
HETATM   21  C   UNL     1      -5.889  19.374  69.225  1.00  0.00    -0.277 A  
HETATM   22  C   UNL     1      -6.914  18.749  68.515  1.00  0.00    -0.288 A  
ENDBRANCH  16  17
ENDBRANCH  13  16
ENDBRANCH  12  13
ENDBRANCH  11  12
ENDBRANCH  10  11
ENDBRANCH   9  10
ENDBRANCH   8   9
ENDBRANCH   7   8
ENDBRANCH   6   7
ENDBRANCH   5   6
ENDBRANCH   4   5
ENDBRANCH   3   4
ENDBRANCH   2   3
TORSDOF 13
ENDMDL
MODEL       26
REMARK 921   NORMALIZED FREE ENERGY PREDICTED BY IDOCK:   -4.56 KCAL/MOL
REMARK 922        TOTAL FREE ENERGY PREDICTED BY IDOCK:   -9.49 KCAL/MOL
REMARK 923 INTER-LIGAND FREE ENERGY PREDICTED BY IDOCK:   -7.99 KCAL/MOL
REMARK 924 INTRA-LIGAND FREE ENERGY PREDICTED BY IDOCK:   -1.50 KCAL/MOL
REMARK 927      BINDING AFFINITY PREDICTED BY RF-SCORE:    0.00 PKD
ROOT
HETATM    1  C   UNL     1     -10.698  19.541  65.967  1.00  0.00    -0.529 C  
HETATM    2  C   UNL     1     -10.770  19.223  67.451  1.00  0.00    -0.594 C  
ENDROOT
BRANCH   2   3
HETATM    3  C   UNL     1      -9.556  19.782  68.189  1.00  0.00    -0.483 C  
BRANCH   3   4
HETATM    4  C   UNL     1      -8.525  20.338  67.211  1.00  0.00    -0.415 C  
BRANCH   4   5
HETATM    5  C   UNL     1      -7.126  20.283  67.818  1.00  0.00    -0.339 C  
BRANCH   5   6
HETATM    6  C   UNL     1      -7.038  19.185  68.870  1.00  0.00    -0.372 C  
BRANCH   6   7
HETATM    7  C   UNL     1      -6.341  17.946  68.316  1.00  0.00    -0.187 C  
BRANCH   7   8
HETATM    8  C   UNL     1      -7.374  16.881  67.973  1.00  0.00    -0.175 C  
BRANCH   8   9
HETATM    9  C   UNL     1      -7.605  16.780  66.469  1.00  0.00    -0.334 C  
BRANCH   9  10
HETATM   10  C   UNL     1      -8.932  16.101  66.127  1.00  0.00    -0.372 C  
BRANCH  10  11
HETATM   11  C   UNL     1      -9.846  15.824  67.327  1.00  0.00    -0.230 C  
BRANCH  11  12
HETATM   12  C   UNL     1     -10.929  14.781  67.027  1.00  0.00    -0.324 C  
BRANCH  12  13
HETATM   13  N   UNL     1     -11.020  13.661  68.082  1.00  0.00    -0.246 N  
HETATM   14  C   UNL     1      -9.628  13.206  68.503  1.00  0.00    -0.117 C  
HETATM   15  C   UNL     1     -11.789  14.137  69.309  1.00  0.00    -0.338 C  
BRANCH  13  16
HETATM   16  C   UNL     1     -11.795  12.472  67.419  1.00  0.00    -0.312 C  
BRANCH  16  17
HETATM   17  C   UNL     1     -11.547  12.290  65.942  1.00  0.00    -0.450 A  
HETATM   18  C   UNL     1     -10.414  11.595  65.489  1.00  0.00    -0.321 A  
HETATM   19  C   UNL     1     -10.074  11.607  64.137  1.00  0.00    -0.338 A  
HETATM   20  C   UNL     1     -10.876  12.286  63.222  1.00  0.00    -0.359 A  
HETATM   21  C   UNL     1     -12.044  12.913  63.649  1.00  0.00    -0.611 A  
HETATM   22  C   UNL     1     -12.388  12.903  65.001  1.00  0.00    -0.541 A  
ENDBRANCH  16  17
ENDBRANCH  13  16
ENDBRANCH  12  13
ENDBRANCH  11  12
ENDBRANCH  10  11
ENDBRANCH   9  10
ENDBRANCH   8   9
ENDBRANCH   7   8
ENDBRANCH   6   7
ENDBRANCH   5   6
ENDBRANCH   4   5
ENDBRANCH   3   4
ENDBRANCH   2   3
TORSDOF 13
ENDMDL
MODEL       27
REMARK 921   NORMALIZED FREE ENERGY PREDICTED BY IDOCK:   -4.55 KCAL/MOL
REMARK 922        TOTAL FREE ENERGY PREDICTED BY IDOCK:   -9.48 KCAL/MOL
REMARK 923 INTER-LIGAND FREE ENERGY PREDICTED BY IDOCK:   -8.43 KCAL/MOL
REMARK 924 INTRA-LIGAND FREE ENERGY PREDICTED BY IDOCK:   -1.05 KCAL/MOL
REMARK 927      BINDING AFFINITY PREDICTED BY RF-SCORE:    0.00 PKD
ROOT
HETATM    1  C   UNL     1     -12.517  15.577  74.275  1.00  0.00    -0.792 C  
HETATM    2  C   UNL     1     -12.162  16.109  72.896  1.00  0.00    -0.640 C  
ENDROOT
BRANCH   2   3
HETATM    3  C   UNL     1     -13.124  15.573  71.839  1.00  0.00    -0.539 C  
BRANCH   3   4
HETATM    4  C   UNL     1     -13.725  14.238  72.267  1.00  0.00    -0.592 C  
BRANCH   4   5
HETATM    5  C   UNL     1     -12.902  13.077  71.716  1.00  0.00    -0.351 C  
BRANCH   5   6
HETATM    6  C   UNL     1     -12.121  13.510  70.482  1.00  0.00    -0.409 C  
BRANCH   6   7
HETATM    7  C   UNL     1     -11.735  12.309  69.625  1.00  0.00    -0.386 C  
BRANCH   7   8
HETATM    8  C   UNL     1     -11.191  12.783  68.284  1.00  0.00    -0.308 C  
BRANCH   8   9
HETATM    9  C   UNL     1     -10.892  11.614  67.350  1.00  0.00    -0.298 C  
BRANCH   9  10
HETATM   10  C   UNL     1     -11.216  10.262  67.986  1.00  0.00    -0.303 C  
BRANCH  10  11
HETATM   11  C   UNL     1      -9.999   9.472  68.483  1.00  0.00    -0.184 C  
BRANCH  11  12
HETATM   12  C   UNL     1     -10.379   8.286  69.377  1.00  0.00    -0.222 C  
BRANCH  12  13
HETATM   13  N   UNL     1      -9.348   7.990  70.484  1.00  0.00    -0.154 N  
HETATM   14  C   UNL     1      -8.523   6.758  70.134  1.00  0.00    -0.139 C  
HETATM   15  C   UNL     1      -8.418   9.180  70.687  1.00  0.00    -0.209 C  
BRANCH  13  16
HETATM   16  C   UNL     1     -10.155   7.738  71.803  1.00  0.00    -0.179 C  
BRANCH  16  17
HETATM   17  C   UNL     1     -11.617   8.104  71.739  1.00  0.00    -0.342 A  
HETATM   18  C   UNL     1     -12.041   9.408  72.042  1.00  0.00    -0.379 A  
HETATM   19  C   UNL     1     -13.398   9.692  72.187  1.00  0.00    -0.545 A  
HETATM   20  C   UNL     1     -14.344   8.686  72.003  1.00  0.00    -0.512 A  
HETATM   21  C   UNL     1     -13.941   7.408  71.627  1.00  0.00    -0.523 A  
HETATM   22  C   UNL     1     -12.584   7.120  71.480  1.00  0.00    -0.427 A  
ENDBRANCH  16  17
ENDBRANCH  13  16
ENDBRANCH  12  13
ENDBRANCH  11  12
ENDBRANCH  10  11
ENDBRANCH   9  10
ENDBRANCH   8   9
ENDBRANCH   7   8
ENDBRANCH   6   7
ENDBRANCH   5   6
ENDBRANCH   4   5
ENDBRANCH   3   4
ENDBRANCH   2   3
TORSDOF 13
ENDMDL
MODEL       28
REMARK 921   NORMALIZED FREE ENERGY PREDICTED BY IDOCK:   -4.54 KCAL/MOL
REMARK 922        TOTAL FREE ENERGY PREDICTED BY IDOCK:   -9.46 KCAL/MOL
REMARK 923 INTER-LIGAND FREE ENERGY PREDICTED BY IDOCK:   -8.06 KCAL/MOL
REMARK 924 INTRA-LIGAND FREE ENERGY PREDICTED BY IDOCK:   -1.40 KCAL/MOL
REMARK 927      BINDING AFFINITY PREDICTED BY RF-SCORE:    0.00 PKD
ROOT
HETATM    1  C   UNL     1     -13.511  10.293  71.937  1.00  0.00    -0.403 C  
HETATM    2  C   UNL     1     -13.521   8.791  72.170  1.00  0.00    -0.469 C  
ENDROOT
BRANCH   2   3
HETATM    3  C   UNL     1     -12.125   8.200  71.991  1.00  0.00    -0.388 C  
BRANCH   3   4
HETATM    4  C   UNL     1     -11.167   9.224  71.390  1.00  0.00    -0.433 C  
BRANCH   4   5
HETATM    5  C   UNL     1     -10.605   8.721  70.064  1.00  0.00    -0.232 C  
BRANCH   5   6
HETATM    6  C   UNL     1     -10.852   9.734  68.955  1.00  0.00    -0.220 C  
BRANCH   6   7
HETATM    7  C   UNL     1     -10.977  11.147  69.517  1.00  0.00    -0.276 C  
BRANCH   7   8
HETATM    8  C   UNL     1     -11.305  12.123  68.396  1.00  0.00    -0.336 C  
BRANCH   8   9
HETATM    9  C   UNL     1     -10.216  12.145  67.328  1.00  0.00    -0.216 C  
BRANCH   9  10
HETATM   10  C   UNL     1     -10.437  13.247  66.291  1.00  0.00    -0.289 C  
BRANCH  10  11
HETATM   11  C   UNL     1     -11.305  14.418  66.767  1.00  0.00    -0.360 C  
BRANCH  11  12
HETATM   12  C   UNL     1     -10.489  15.674  67.097  1.00  0.00    -0.303 C  
BRANCH  12  13
HETATM   13  N   UNL     1     -10.555  16.082  68.581  1.00  0.00    -0.252 N  
HETATM   14  C   UNL     1      -9.559  15.275  69.405  1.00  0.00    -0.244 C  
HETATM   15  C   UNL     1     -10.260  17.568  68.746  1.00  0.00    -0.373 C  
BRANCH  13  16
HETATM   16  C   UNL     1     -12.015  15.791  69.070  1.00  0.00    -0.278 C  
BRANCH  16  17
HETATM   17  C   UNL     1     -12.130  15.327  70.501  1.00  0.00    -0.395 A  
HETATM   18  C   UNL     1     -12.774  14.117  70.810  1.00  0.00    -0.414 A  
HETATM   19  C   UNL     1     -13.065  13.791  72.134  1.00  0.00    -0.497 A  
HETATM   20  C   UNL     1     -12.691  14.654  73.162  1.00  0.00    -0.549 A  
HETATM   21  C   UNL     1     -11.985  15.818  72.874  1.00  0.00    -0.599 A  
HETATM   22  C   UNL     1     -11.690  16.147  71.551  1.00  0.00    -0.533 A  
ENDBRANCH  16  17
ENDBRANCH  13  16
ENDBRANCH  12  13
ENDBRANCH  11  12
ENDBRANCH  10  11
ENDBRANCH   9  10
ENDBRANCH   8   9
ENDBRANCH   7   8
ENDBRANCH   6   7
ENDBRANCH   5   6
ENDBRANCH   4   5
ENDBRANCH   3   4
ENDBRANCH   2   3
TORSDOF 13
ENDMDL
MODEL       29
REMARK 921   NORMALIZED FREE ENERGY PREDICTED BY IDOCK:   -4.53 KCAL/MOL
REMARK 922        TOTAL FREE ENERGY PREDICTED BY IDOCK:   -9.44 KCAL/MOL
REMARK 923 INTER-LIGAND FREE ENERGY PREDICTED BY IDOCK:   -8.56 KCAL/MOL
REMARK 924 INTRA-LIGAND FREE ENERGY PREDICTED BY IDOCK:   -0.87 KCAL/MOL
REMARK 927      BINDING AFFINITY PREDICTED BY RF-SCORE:    0.00 PKD
ROOT
HETATM    1  C   UNL     1     -10.931   6.656  69.312  1.00  0.00    -0.346 C  
HETATM    2  C   UNL     1     -11.865   6.604  70.509  1.00  0.00    -0.430 C  
ENDROOT
BRANCH   2   3
HETATM    3  C   UNL     1     -11.107   6.872  71.807  1.00  0.00    -0.275 C  
BRANCH   3   4
HETATM    4  C   UNL     1     -11.647   8.112  72.513  1.00  0.00    -0.468 C  
BRANCH   4   5
HETATM    5  C   UNL     1     -12.832   8.693  71.747  1.00  0.00    -0.397 C  
BRANCH   5   6
HETATM    6  C   UNL     1     -12.617  10.175  71.468  1.00  0.00    -0.537 C  
BRANCH   6   7
HETATM    7  C   UNL     1     -11.486  10.389  70.468  1.00  0.00    -0.431 C  
BRANCH   7   8
HETATM    8  C   UNL     1     -11.752  11.643  69.645  1.00  0.00    -0.418 C  
BRANCH   8   9
HETATM    9  C   UNL     1     -12.270  12.787  70.510  1.00  0.00    -0.389 C  
BRANCH   9  10
HETATM   10  C   UNL     1     -11.988  14.158  69.892  1.00  0.00    -0.398 C  
BRANCH  10  11
HETATM   11  C   UNL     1     -10.998  14.150  68.722  1.00  0.00    -0.275 C  
BRANCH  11  12
HETATM   12  C   UNL     1     -11.456  15.018  67.544  1.00  0.00    -0.328 C  
BRANCH  12  13
HETATM   13  N   UNL     1     -10.578  14.866  66.286  1.00  0.00    -0.299 N  
HETATM   14  C   UNL     1      -9.974  13.469  66.217  1.00  0.00    -0.298 C  
HETATM   15  C   UNL     1     -11.392  15.128  65.025  1.00  0.00    -0.380 C  
BRANCH  13  16
HETATM   16  C   UNL     1      -9.439  15.938  66.393  1.00  0.00    -0.295 C  
BRANCH  16  17
HETATM   17  C   UNL     1      -9.862  17.265  66.972  1.00  0.00    -0.281 A  
HETATM   18  C   UNL     1     -10.425  18.255  66.150  1.00  0.00    -0.403 A  
HETATM   19  C   UNL     1     -10.621  19.547  66.635  1.00  0.00    -0.583 A  
HETATM   20  C   UNL     1     -10.283  19.856  67.951  1.00  0.00    -0.571 A  
HETATM   21  C   UNL     1      -9.796  18.864  68.798  1.00  0.00    -0.461 A  
HETATM   22  C   UNL     1      -9.600  17.569  68.317  1.00  0.00    -0.299 A  
ENDBRANCH  16  17
ENDBRANCH  13  16
ENDBRANCH  12  13
ENDBRANCH  11  12
ENDBRANCH  10  11
ENDBRANCH   9  10
ENDBRANCH   8   9
ENDBRANCH   7   8
ENDBRANCH   6   7
ENDBRANCH   5   6
ENDBRANCH   4   5
ENDBRANCH   3   4
ENDBRANCH   2   3
TORSDOF 13
ENDMDL
MODEL       30
REMARK 921   NORMALIZED FREE ENERGY PREDICTED BY IDOCK:   -4.52 KCAL/MOL
REMARK 922        TOTAL FREE ENERGY PREDICTED BY IDOCK:   -9.43 KCAL/MOL
REMARK 923 INTER-LIGAND FREE ENERGY PREDICTED BY IDOCK:   -7.75 KCAL/MOL
REMARK 924 INTRA-LIGAND FREE ENERGY PREDICTED BY IDOCK:   -1.68 KCAL/MOL
REMARK 927      BINDING AFFINITY PREDICTED BY RF-SCORE:    0.00 PKD
ROOT
HETATM    1  C   UNL     1     -12.539  11.907  63.412  1.00  0.00    -0.555 C  
HETATM    2  C   UNL     1     -11.258  12.712  63.547  1.00  0.00    -0.489 C  
ENDROOT
BRANCH   2   3
HETATM    3  C   UNL     1     -11.464  13.921  64.457  1.00  0.00    -0.393 C  
BRANCH   3   4
HETATM    4  C   UNL     1     -12.580  13.666  65.466  1.00  0.00    -0.541 C  
BRANCH   4   5
HETATM    5  C   UNL     1     -12.080  13.897  66.889  1.00  0.00    -0.467 C  
BRANCH   5   6
HETATM    6  C   UNL     1     -11.569  12.598  67.497  1.00  0.00    -0.418 C  
BRANCH   6   7
HETATM    7  C   UNL     1     -10.046  12.590  67.581  1.00  0.00    -0.217 C  
BRANCH   7   8
HETATM    8  C   UNL     1      -9.484  11.496  66.683  1.00  0.00    -0.208 C  
BRANCH   8   9
HETATM    9  C   UNL     1      -9.415  10.153  67.404  1.00  0.00    -0.175 C  
BRANCH   9  10
HETATM   10  C   UNL     1     -10.272   9.083  66.727  1.00  0.00    -0.341 C  
BRANCH  10  11
HETATM   11  C   UNL     1     -10.489   7.809  67.553  1.00  0.00    -0.338 C  
BRANCH  11  12
HETATM   12  C   UNL     1      -9.375   7.563  68.578  1.00  0.00    -0.142 C  
BRANCH  12  13
HETATM   13  N   UNL     1      -9.880   6.982  69.913  1.00  0.00    -0.170 N  
HETATM   14  C   UNL     1     -11.313   6.483  69.774  1.00  0.00    -0.393 C  
HETATM   15  C   UNL     1      -8.988   5.836  70.375  1.00  0.00    -0.146 C  
BRANCH  13  16
HETATM   16  C   UNL     1      -9.816   8.140  70.967  1.00  0.00    -0.179 C  
BRANCH  16  17
HETATM   17  C   UNL     1     -11.114   8.876  71.190  1.00  0.00    -0.354 A  
HETATM   18  C   UNL     1     -11.413  10.035  70.455  1.00  0.00    -0.407 A  
HETATM   19  C   UNL     1     -12.505  10.829  70.803  1.00  0.00    -0.481 A  
HETATM   20  C   UNL     1     -13.325  10.458  71.867  1.00  0.00    -0.469 A  
HETATM   21  C   UNL     1     -13.084   9.271  72.553  1.00  0.00    -0.416 A  
HETATM   22  C   UNL     1     -11.993   8.473  72.207  1.00  0.00    -0.454 A  
ENDBRANCH  16  17
ENDBRANCH  13  16
ENDBRANCH  12  13
ENDBRANCH  11  12
ENDBRANCH  10  11
ENDBRANCH   9  10
ENDBRANCH   8   9
ENDBRANCH   7   8
ENDBRANCH   6   7
ENDBRANCH   5   6
ENDBRANCH   4   5
ENDBRANCH   3   4
ENDBRANCH   2   3
TORSDOF 13
ENDMDL
MODEL       31
REMARK 921   NORMALIZED FREE ENERGY PREDICTED BY IDOCK:   -4.52 KCAL/MOL
REMARK 922        TOTAL FREE ENERGY PREDICTED BY IDOCK:   -9.43 KCAL/MOL
REMARK 923 INTER-LIGAND FREE ENERGY PREDICTED BY IDOCK:   -7.89 KCAL/MOL
REMARK 924 INTRA-LIGAND FREE ENERGY PREDICTED BY IDOCK:   -1.54 KCAL/MOL
REMARK 927      BINDING AFFINITY PREDICTED BY RF-SCORE:    0.00 PKD
ROOT
HETATM    1  C   UNL     1     -11.532  12.686  63.660  1.00  0.00    -0.563 C  
HETATM    2  C   UNL     1     -10.225  11.937  63.464  1.00  0.00    -0.485 C  
ENDROOT
BRANCH   2   3
HETATM    3  C   UNL     1     -10.192  10.664  64.306  1.00  0.00    -0.391 C  
BRANCH   3   4
HETATM    4  C   UNL     1      -8.982  10.651  65.236  1.00  0.00    -0.209 C  
BRANCH   4   5
HETATM    5  C   UNL     1      -9.041   9.450  66.176  1.00  0.00    -0.214 C  
BRANCH   5   6
HETATM    6  C   UNL     1     -10.436   9.299  66.769  1.00  0.00    -0.263 C  
BRANCH   6   7
HETATM    7  C   UNL     1     -10.447   9.660  68.250  1.00  0.00    -0.259 C  
BRANCH   7   8
HETATM    8  C   UNL     1     -11.518  10.709  68.520  1.00  0.00    -0.333 C  
BRANCH   8   9
HETATM    9  C   UNL     1     -11.646  11.696  67.363  1.00  0.00    -0.330 C  
BRANCH   9  10
HETATM   10  C   UNL     1     -10.717  12.901  67.520  1.00  0.00    -0.241 C  
BRANCH  10  11
HETATM   11  C   UNL     1     -11.333  14.249  67.127  1.00  0.00    -0.352 C  
BRANCH  11  12
HETATM   12  C   UNL     1     -10.354  15.420  67.271  1.00  0.00    -0.271 C  
BRANCH  12  13
HETATM   13  N   UNL     1     -10.451  16.144  68.628  1.00  0.00    -0.254 N  
HETATM   14  C   UNL     1      -9.547  15.480  69.658  1.00  0.00    -0.262 C  
HETATM   15  C   UNL     1     -10.063  17.611  68.486  1.00  0.00    -0.375 C  
BRANCH  13  16
HETATM   16  C   UNL     1     -11.946  16.051  69.088  1.00  0.00    -0.177 C  
BRANCH  16  17
HETATM   17  C   UNL     1     -12.160  15.431  70.447  1.00  0.00    -0.408 A  
HETATM   18  C   UNL     1     -12.668  14.126  70.564  1.00  0.00    -0.374 A  
HETATM   19  C   UNL     1     -13.061  13.632  71.807  1.00  0.00    -0.468 A  
HETATM   20  C   UNL     1     -12.926  14.423  72.946  1.00  0.00    -0.575 A  
HETATM   21  C   UNL     1     -12.353  15.688  72.853  1.00  0.00    -0.552 A  
HETATM   22  C   UNL     1     -11.957  16.186  71.612  1.00  0.00    -0.528 A  
ENDBRANCH  16  17
ENDBRANCH  13  16
ENDBRANCH  12  13
ENDBRANCH  11  12
ENDBRANCH  10  11
ENDBRANCH   9  10
ENDBRANCH   8   9
ENDBRANCH   7   8
ENDBRANCH   6   7
ENDBRANCH   5   6
ENDBRANCH   4   5
ENDBRANCH   3   4
ENDBRANCH   2   3
TORSDOF 13
ENDMDL
MODEL       32
REMARK 921   NORMALIZED FREE ENERGY PREDICTED BY IDOCK:   -4.51 KCAL/MOL
REMARK 922        TOTAL FREE ENERGY PREDICTED BY IDOCK:   -9.42 KCAL/MOL
REMARK 923 INTER-LIGAND FREE ENERGY PREDICTED BY IDOCK:   -7.85 KCAL/MOL
REMARK 924 INTRA-LIGAND FREE ENERGY PREDICTED BY IDOCK:   -1.57 KCAL/MOL
REMARK 927      BINDING AFFINITY PREDICTED BY RF-SCORE:    0.00 PKD
ROOT
HETATM    1  C   UNL     1     -12.538  16.014  74.233  1.00  0.00    -0.685 C  
HETATM    2  C   UNL     1     -12.014  15.492  72.906  1.00  0.00    -0.575 C  
ENDROOT
BRANCH   2   3
HETATM    3  C   UNL     1     -13.086  15.581  71.822  1.00  0.00    -0.548 C  
BRANCH   3   4
HETATM    4  C   UNL     1     -13.321  14.223  71.168  1.00  0.00    -0.363 C  
BRANCH   4   5
HETATM    5  C   UNL     1     -13.626  13.165  72.225  1.00  0.00    -0.677 C  
BRANCH   5   6
HETATM    6  C   UNL     1     -13.105  11.802  71.788  1.00  0.00    -0.480 C  
BRANCH   6   7
HETATM    7  C   UNL     1     -12.163  11.929  70.595  1.00  0.00    -0.424 C  
BRANCH   7   8
HETATM    8  C   UNL     1     -11.631  10.555  70.207  1.00  0.00    -0.417 C  
BRANCH   8   9
HETATM    9  C   UNL     1     -12.024   9.489  71.224  1.00  0.00    -0.445 C  
BRANCH   9  10
HETATM   10  C   UNL     1     -10.808   8.852  71.900  1.00  0.00    -0.433 C  
BRANCH  10  11
HETATM   11  C   UNL     1     -11.137   7.774  72.941  1.00  0.00    -0.457 C  
BRANCH  11  12
HETATM   12  C   UNL     1     -11.529   6.432  72.310  1.00  0.00    -0.298 C  
BRANCH  12  13
HETATM   13  N   UNL     1     -10.563   5.282  72.656  1.00  0.00    -0.217 N  
HETATM   14  C   UNL     1      -9.385   5.796  73.473  1.00  0.00    -0.134 C  
HETATM   15  C   UNL     1     -11.284   4.190  73.438  1.00  0.00    -0.244 C  
BRANCH  13  16
HETATM   16  C   UNL     1     -10.055   4.689  71.297  1.00  0.00    -0.175 C  
BRANCH  16  17
HETATM   17  C   UNL     1      -9.778   5.708  70.219  1.00  0.00    -0.232 A  
HETATM   18  C   UNL     1      -8.579   6.440  70.220  1.00  0.00    -0.135 A  
HETATM   19  C   UNL     1      -8.412   7.521  69.355  1.00  0.00    -0.133 A  
HETATM   20  C   UNL     1      -9.426   7.862  68.463  1.00  0.00    -0.148 A  
HETATM   21  C   UNL     1     -10.587   7.096  68.399  1.00  0.00    -0.223 A  
HETATM   22  C   UNL     1     -10.757   6.013  69.261  1.00  0.00    -0.401 A  
ENDBRANCH  16  17
ENDBRANCH  13  16
ENDBRANCH  12  13
ENDBRANCH  11  12
ENDBRANCH  10  11
ENDBRANCH   9  10
ENDBRANCH   8   9
ENDBRANCH   7   8
ENDBRANCH   6   7
ENDBRANCH   5   6
ENDBRANCH   4   5
ENDBRANCH   3   4
ENDBRANCH   2   3
TORSDOF 13
ENDMDL
MODEL       33
REMARK 921   NORMALIZED FREE ENERGY PREDICTED BY IDOCK:   -4.50 KCAL/MOL
REMARK 922        TOTAL FREE ENERGY PREDICTED BY IDOCK:   -9.40 KCAL/MOL
REMARK 923 INTER-LIGAND FREE ENERGY PREDICTED BY IDOCK:   -7.11 KCAL/MOL
REMARK 924 INTRA-LIGAND FREE ENERGY PREDICTED BY IDOCK:   -2.29 KCAL/MOL
REMARK 927      BINDING AFFINITY PREDICTED BY RF-SCORE:    0.00 PKD
ROOT
HETATM    1  C   UNL     1     -14.375  14.008  72.166  1.00  0.00    -0.577 C  
HETATM    2  C   UNL     1     -13.695  15.230  71.571  1.00  0.00    -0.610 C  
ENDROOT
BRANCH   2   3
HETATM    3  C   UNL     1     -12.176  15.119  71.681  1.00  0.00    -0.412 C  
BRANCH   3   4
HETATM    4  C   UNL     1     -11.483  16.044  70.686  1.00  0.00    -0.427 C  
BRANCH   4   5
HETATM    5  C   UNL     1     -10.584  15.245  69.747  1.00  0.00    -0.293 C  
BRANCH   5   6
HETATM    6  C   UNL     1     -11.412  14.538  68.682  1.00  0.00    -0.321 C  
BRANCH   6   7
HETATM    7  C   UNL     1     -11.009  13.072  68.553  1.00  0.00    -0.290 C  
BRANCH   7   8
HETATM    8  C   UNL     1     -12.137  12.179  69.053  1.00  0.00    -0.208 C  
BRANCH   8   9
HETATM    9  C   UNL     1     -11.810  11.561  70.408  1.00  0.00    -0.413 C  
BRANCH   9  10
HETATM   10  C   UNL     1     -13.029  10.902  71.057  1.00  0.00    -0.396 C  
BRANCH  10  11
HETATM   11  C   UNL     1     -12.735   9.598  71.810  1.00  0.00    -0.510 C  
BRANCH  11  12
HETATM   12  C   UNL     1     -11.264   9.176  71.725  1.00  0.00    -0.381 C  
BRANCH  12  13
HETATM   13  N   UNL     1     -11.057   7.648  71.734  1.00  0.00    -0.238 N  
HETATM   14  C   UNL     1     -10.572   7.179  73.100  1.00  0.00    -0.336 C  
HETATM   15  C   UNL     1     -12.352   6.926  71.382  1.00  0.00    -0.376 C  
BRANCH  13  16
HETATM   16  C   UNL     1      -9.978   7.327  70.643  1.00  0.00    -0.186 C  
BRANCH  16  17
HETATM   17  C   UNL     1      -9.859   8.350  69.541  1.00  0.00    -0.181 A  
HETATM   18  C   UNL     1     -10.641   8.242  68.379  1.00  0.00    -0.148 A  
HETATM   19  C   UNL     1     -10.385   9.058  67.278  1.00  0.00    -0.342 A  
HETATM   20  C   UNL     1      -9.367  10.007  67.336  1.00  0.00    -0.167 A  
HETATM   21  C   UNL     1      -8.636  10.176  68.509  1.00  0.00    -0.118 A  
HETATM   22  C   UNL     1      -8.890   9.363  69.613  1.00  0.00    -0.178 A  
ENDBRANCH  16  17
ENDBRANCH  13  16
ENDBRANCH  12  13
ENDBRANCH  11  12
ENDBRANCH  10  11
ENDBRANCH   9  10
ENDBRANCH   8   9
ENDBRANCH   7   8
ENDBRANCH   6   7
ENDBRANCH   5   6
ENDBRANCH   4   5
ENDBRANCH   3   4
ENDBRANCH   2   3
TORSDOF 13
ENDMDL
MODEL       34
REMARK 921   NORMALIZED FREE ENERGY PREDICTED BY IDOCK:   -4.50 KCAL/MOL
REMARK 922        TOTAL FREE ENERGY PREDICTED BY IDOCK:   -9.40 KCAL/MOL
REMARK 923 INTER-LIGAND FREE ENERGY PREDICTED BY IDOCK:   -7.83 KCAL/MOL
REMARK 924 INTRA-LIGAND FREE ENERGY PREDICTED BY IDOCK:   -1.56 KCAL/MOL
REMARK 927      BINDING AFFINITY PREDICTED BY RF-SCORE:    0.00 PKD
ROOT
HETATM    1  C   UNL     1     -12.954  10.169  71.625  1.00  0.00    -0.561 C  
HETATM    2  C   UNL     1     -12.948   8.719  72.080  1.00  0.00    -0.457 C  
ENDROOT
BRANCH   2   3
HETATM    3  C   UNL     1     -11.522   8.223  72.305  1.00  0.00    -0.452 C  
BRANCH   3   4
HETATM    4  C   UNL     1     -10.516   9.072  71.534  1.00  0.00    -0.410 C  
BRANCH   4   5
HETATM    5  C   UNL     1      -9.753   8.217  70.526  1.00  0.00    -0.185 C  
BRANCH   5   6
HETATM    6  C   UNL     1     -10.150   8.582  69.101  1.00  0.00    -0.207 C  
BRANCH   6   7
HETATM    7  C   UNL     1     -10.275  10.093  68.934  1.00  0.00    -0.213 C  
BRANCH   7   8
HETATM    8  C   UNL     1     -10.861  10.416  67.566  1.00  0.00    -0.358 C  
BRANCH   8   9
HETATM    9  C   UNL     1      -9.925   9.999  66.437  1.00  0.00    -0.300 C  
BRANCH   9  10
HETATM   10  C   UNL     1     -10.164  10.798  65.155  1.00  0.00    -0.365 C  
BRANCH  10  11
HETATM   11  C   UNL     1     -11.109  11.996  65.306  1.00  0.00    -0.367 C  
BRANCH  11  12
HETATM   12  C   UNL     1     -10.448  13.330  64.938  1.00  0.00    -0.371 C  
BRANCH  12  13
HETATM   13  N   UNL     1     -10.411  14.343  66.099  1.00  0.00    -0.288 N  
HETATM   14  C   UNL     1      -9.330  13.969  67.105  1.00  0.00    -0.242 C  
HETATM   15  C   UNL     1     -10.150  15.752  65.577  1.00  0.00    -0.351 C  
BRANCH  13  16
HETATM   16  C   UNL     1     -11.819  14.302  66.785  1.00  0.00    -0.426 C  
BRANCH  16  17
HETATM   17  C   UNL     1     -11.802  14.426  68.288  1.00  0.00    -0.361 A  
HETATM   18  C   UNL     1     -11.966  13.291  69.100  1.00  0.00    -0.343 A  
HETATM   19  C   UNL     1     -12.160  13.429  70.473  1.00  0.00    -0.399 A  
HETATM   20  C   UNL     1     -12.163  14.696  71.053  1.00  0.00    -0.399 A  
HETATM   21  C   UNL     1     -11.925  15.822  70.271  1.00  0.00    -0.383 A  
HETATM   22  C   UNL     1     -11.729  15.688  68.896  1.00  0.00    -0.396 A  
ENDBRANCH  16  17
ENDBRANCH  13  16
ENDBRANCH  12  13
ENDBRANCH  11  12
ENDBRANCH  10  11
ENDBRANCH   9  10
ENDBRANCH   8   9
ENDBRANCH   7   8
ENDBRANCH   6   7
ENDBRANCH   5   6
ENDBRANCH   4   5
ENDBRANCH   3   4
ENDBRANCH   2   3
TORSDOF 13
ENDMDL
MODEL       35
REMARK 921   NORMALIZED FREE ENERGY PREDICTED BY IDOCK:   -4.50 KCAL/MOL
REMARK 922        TOTAL FREE ENERGY PREDICTED BY IDOCK:   -9.39 KCAL/MOL
REMARK 923 INTER-LIGAND FREE ENERGY PREDICTED BY IDOCK:   -7.91 KCAL/MOL
REMARK 924 INTRA-LIGAND FREE ENERGY PREDICTED BY IDOCK:   -1.48 KCAL/MOL
REMARK 927      BINDING AFFINITY PREDICTED BY RF-SCORE:    0.00 PKD
ROOT
HETATM    1  C   UNL     1     -12.524  15.410  73.895  1.00  0.00    -0.763 C  
HETATM    2  C   UNL     1     -12.249  15.623  72.415  1.00  0.00    -0.538 C  
ENDROOT
BRANCH   2   3
HETATM    3  C   UNL     1     -13.165  14.754  71.558  1.00  0.00    -0.433 C  
BRANCH   3   4
HETATM    4  C   UNL     1     -13.551  13.472  72.291  1.00  0.00    -0.690 C  
BRANCH   4   5
HETATM    5  C   UNL     1     -12.990  12.251  71.569  1.00  0.00    -0.390 C  
BRANCH   5   6
HETATM    6  C   UNL     1     -12.166  12.672  70.359  1.00  0.00    -0.368 C  
BRANCH   6   7
HETATM    7  C   UNL     1     -11.973  11.509  69.392  1.00  0.00    -0.392 C  
BRANCH   7   8
HETATM    8  C   UNL     1     -11.576  12.037  68.019  1.00  0.00    -0.407 C  
BRANCH   8   9
HETATM    9  C   UNL     1     -11.015  10.933  67.129  1.00  0.00    -0.334 C  
BRANCH   9  10
HETATM   10  C   UNL     1     -10.836   9.613  67.880  1.00  0.00    -0.272 C  
BRANCH  10  11
HETATM   11  C   UNL     1     -10.364   8.436  67.018  1.00  0.00    -0.385 C  
BRANCH  11  12
HETATM   12  C   UNL     1     -10.735   7.072  67.613  1.00  0.00    -0.261 C  
BRANCH  12  13
HETATM   13  N   UNL     1      -9.522   6.272  68.129  1.00  0.00    -0.114 N  
HETATM   14  C   UNL     1      -9.340   4.992  67.324  1.00  0.00    -0.126 C  
HETATM   15  C   UNL     1      -8.250   7.107  68.046  1.00  0.00    -0.120 C  
BRANCH  13  16
HETATM   16  C   UNL     1      -9.811   5.925  69.630  1.00  0.00    -0.167 C  
BRANCH  16  17
HETATM   17  C   UNL     1     -10.620   6.953  70.381  1.00  0.00    -0.247 A  
HETATM   18  C   UNL     1      -9.996   8.076  70.950  1.00  0.00    -0.207 A  
HETATM   19  C   UNL     1     -10.701   8.910  71.815  1.00  0.00    -0.432 A  
HETATM   20  C   UNL     1     -12.040   8.650  72.099  1.00  0.00    -0.451 A  
HETATM   21  C   UNL     1     -12.690   7.585  71.481  1.00  0.00    -0.391 A  
HETATM   22  C   UNL     1     -11.989   6.748  70.613  1.00  0.00    -0.418 A  
ENDBRANCH  16  17
ENDBRANCH  13  16
ENDBRANCH  12  13
ENDBRANCH  11  12
ENDBRANCH  10  11
ENDBRANCH   9  10
ENDBRANCH   8   9
ENDBRANCH   7   8
ENDBRANCH   6   7
ENDBRANCH   5   6
ENDBRANCH   4   5
ENDBRANCH   3   4
ENDBRANCH   2   3
TORSDOF 13
ENDMDL
MODEL       36
REMARK 921   NORMALIZED FREE ENERGY PREDICTED BY IDOCK:   -4.50 KCAL/MOL
REMARK 922        TOTAL FREE ENERGY PREDICTED BY IDOCK:   -9.39 KCAL/MOL
REMARK 923 INTER-LIGAND FREE ENERGY PREDICTED BY IDOCK:   -7.96 KCAL/MOL
REMARK 924 INTRA-LIGAND FREE ENERGY PREDICTED BY IDOCK:   -1.43 KCAL/MOL
REMARK 927      BINDING AFFINITY PREDICTED BY RF-SCORE:    0.00 PKD
ROOT
HETATM    1  C   UNL     1     -12.879  15.373  73.513  1.00  0.00    -0.683 C  
HETATM    2  C   UNL     1     -13.327  14.193  72.666  1.00  0.00    -0.638 C  
ENDROOT
BRANCH   2   3
HETATM    3  C   UNL     1     -12.592  14.169  71.329  1.00  0.00    -0.438 C  
BRANCH   3   4
HETATM    4  C   UNL     1     -11.949  15.520  71.030  1.00  0.00    -0.428 C  
BRANCH   4   5
HETATM    5  C   UNL     1     -11.671  15.664  69.536  1.00  0.00    -0.382 C  
BRANCH   5   6
HETATM    6  C   UNL     1     -11.898  14.341  68.817  1.00  0.00    -0.377 C  
BRANCH   6   7
HETATM    7  C   UNL     1     -11.438  14.418  67.365  1.00  0.00    -0.377 C  
BRANCH   7   8
HETATM    8  C   UNL     1     -12.354  13.574  66.487  1.00  0.00    -0.382 C  
BRANCH   8   9
HETATM    9  C   UNL     1     -11.598  12.432  65.815  1.00  0.00    -0.449 C  
BRANCH   9  10
HETATM   10  C   UNL     1     -10.084  12.647  65.829  1.00  0.00    -0.284 C  
BRANCH  10  11
HETATM   11  C   UNL     1      -9.258  11.414  66.215  1.00  0.00    -0.220 C  
BRANCH  11  12
HETATM   12  C   UNL     1     -10.126  10.217  66.624  1.00  0.00    -0.223 C  
BRANCH  12  13
HETATM   13  N   UNL     1      -9.480   9.326  67.704  1.00  0.00    -0.131 N  
HETATM   14  C   UNL     1     -10.366   8.124  68.009  1.00  0.00    -0.211 C  
HETATM   15  C   UNL     1      -8.107   8.841  67.254  1.00  0.00    -0.101 C  
BRANCH  13  16
HETATM   16  C   UNL     1      -9.317  10.211  68.987  1.00  0.00    -0.188 C  
BRANCH  16  17
HETATM   17  C   UNL     1     -10.452  10.118  69.977  1.00  0.00    -0.325 A  
HETATM   18  C   UNL     1     -10.384   9.225  71.059  1.00  0.00    -0.388 A  
HETATM   19  C   UNL     1     -11.508   8.987  71.848  1.00  0.00    -0.440 A  
HETATM   20  C   UNL     1     -12.700   9.658  71.583  1.00  0.00    -0.499 A  
HETATM   21  C   UNL     1     -12.758  10.602  70.562  1.00  0.00    -0.395 A  
HETATM   22  C   UNL     1     -11.635  10.844  69.771  1.00  0.00    -0.399 A  
ENDBRANCH  16  17
ENDBRANCH  13  16
ENDBRANCH  12  13
ENDBRANCH  11  12
ENDBRANCH  10  11
ENDBRANCH   9  10
ENDBRANCH   8   9
ENDBRANCH   7   8
ENDBRANCH   6   7
ENDBRANCH   5   6
ENDBRANCH   4   5
ENDBRANCH   3   4
ENDBRANCH   2   3
TORSDOF 13
ENDMDL
MODEL       37
REMARK 921   NORMALIZED FREE ENERGY PREDICTED BY IDOCK:   -4.49 KCAL/MOL
REMARK 922        TOTAL FREE ENERGY PREDICTED BY IDOCK:   -9.38 KCAL/MOL
REMARK 923 INTER-LIGAND FREE ENERGY PREDICTED BY IDOCK:   -8.15 KCAL/MOL
REMARK 924 INTRA-LIGAND FREE ENERGY PREDICTED BY IDOCK:   -1.22 KCAL/MOL
REMARK 927      BINDING AFFINITY PREDICTED BY RF-SCORE:    0.00 PKD
ROOT
HETATM    1  C   UNL     1     -12.841  12.586  64.545  1.00  0.00    -0.352 C  
HETATM    2  C   UNL     1     -12.064  12.425  63.249  1.00  0.00    -0.519 C  
ENDROOT
BRANCH   2   3
HETATM    3  C   UNL     1     -10.700  11.789  63.504  1.00  0.00    -0.501 C  
BRANCH   3   4
HETATM    4  C   UNL     1     -10.511  11.467  64.983  1.00  0.00    -0.344 C  
BRANCH   4   5
HETATM    5  C   UNL     1      -9.775  10.141  65.154  1.00  0.00    -0.370 C  
BRANCH   5   6
HETATM    6  C   UNL     1     -10.132   9.496  66.486  1.00  0.00    -0.326 C  
BRANCH   6   7
HETATM    7  C   UNL     1     -10.050  10.505  67.627  1.00  0.00    -0.211 C  
BRANCH   7   8
HETATM    8  C   UNL     1     -11.216  10.300  68.585  1.00  0.00    -0.263 C  
BRANCH   8   9
HETATM    9  C   UNL     1     -11.662  11.613  69.221  1.00  0.00    -0.396 C  
BRANCH   9  10
HETATM   10  C   UNL     1     -11.851  12.726  68.190  1.00  0.00    -0.372 C  
BRANCH  10  11
HETATM   11  C   UNL     1     -11.023  13.992  68.444  1.00  0.00    -0.269 C  
BRANCH  11  12
HETATM   12  C   UNL     1      -9.815  14.116  67.507  1.00  0.00    -0.235 C  
BRANCH  12  13
HETATM   13  N   UNL     1      -9.790  15.429  66.701  1.00  0.00    -0.245 N  
HETATM   14  C   UNL     1      -8.365  15.956  66.577  1.00  0.00    -0.295 C  
HETATM   15  C   UNL     1     -10.374  15.220  65.309  1.00  0.00    -0.401 C  
BRANCH  13  16
HETATM   16  C   UNL     1     -10.676  16.460  67.481  1.00  0.00    -0.298 C  
BRANCH  16  17
HETATM   17  C   UNL     1     -10.237  17.899  67.365  1.00  0.00    -0.363 A  
HETATM   18  C   UNL     1      -9.746  18.589  68.486  1.00  0.00    -0.399 A  
HETATM   19  C   UNL     1      -9.540  19.966  68.431  1.00  0.00    -0.406 A  
HETATM   20  C   UNL     1      -9.793  20.662  67.251  1.00  0.00    -0.529 A  
HETATM   21  C   UNL     1     -10.207  19.978  66.112  1.00  0.00    -0.589 A  
HETATM   22  C   UNL     1     -10.413  18.599  66.161  1.00  0.00    -0.473 A  
ENDBRANCH  16  17
ENDBRANCH  13  16
ENDBRANCH  12  13
ENDBRANCH  11  12
ENDBRANCH  10  11
ENDBRANCH   9  10
ENDBRANCH   8   9
ENDBRANCH   7   8
ENDBRANCH   6   7
ENDBRANCH   5   6
ENDBRANCH   4   5
ENDBRANCH   3   4
ENDBRANCH   2   3
TORSDOF 13
ENDMDL
MODEL       38
REMARK 921   NORMALIZED FREE ENERGY PREDICTED BY IDOCK:   -4.49 KCAL/MOL
REMARK 922        TOTAL FREE ENERGY PREDICTED BY IDOCK:   -9.37 KCAL/MOL
REMARK 923 INTER-LIGAND FREE ENERGY PREDICTED BY IDOCK:   -8.40 KCAL/MOL
REMARK 924 INTRA-LIGAND FREE ENERGY PREDICTED BY IDOCK:   -0.97 KCAL/MOL
REMARK 927      BINDING AFFINITY PREDICTED BY RF-SCORE:    0.00 PKD
ROOT
HETATM    1  C   UNL     1     -13.862  15.218  71.270  1.00  0.00    -0.562 C  
HETATM    2  C   UNL     1     -13.719  14.341  72.503  1.00  0.00    -0.608 C  
ENDROOT
BRANCH   2   3
HETATM    3  C   UNL     1     -13.442  12.891  72.114  1.00  0.00    -0.619 C  
BRANCH   3   4
HETATM    4  C   UNL     1     -12.504  12.813  70.913  1.00  0.00    -0.373 C  
BRANCH   4   5
HETATM    5  C   UNL     1     -12.214  11.359  70.552  1.00  0.00    -0.478 C  
BRANCH   5   6
HETATM    6  C   UNL     1     -12.871  10.415  71.550  1.00  0.00    -0.569 C  
BRANCH   6   7
HETATM    7  C   UNL     1     -11.966   9.229  71.864  1.00  0.00    -0.433 C  
BRANCH   7   8
HETATM    8  C   UNL     1     -12.636   7.935  71.422  1.00  0.00    -0.319 C  
BRANCH   8   9
HETATM    9  C   UNL     1     -11.716   7.091  70.546  1.00  0.00    -0.359 C  
BRANCH   9  10
HETATM   10  C   UNL     1     -10.375   7.778  70.279  1.00  0.00    -0.215 C  
BRANCH  10  11
HETATM   11  C   UNL     1     -10.281   8.515  68.938  1.00  0.00    -0.221 C  
BRANCH  11  12
HETATM   12  C   UNL     1      -9.421   9.783  69.010  1.00  0.00    -0.173 C  
BRANCH  12  13
HETATM   13  N   UNL     1      -9.404  10.595  67.701  1.00  0.00    -0.146 N  
HETATM   14  C   UNL     1      -8.933  12.021  67.958  1.00  0.00    -0.187 C  
HETATM   15  C   UNL     1      -8.491   9.939  66.671  1.00  0.00    -0.125 C  
BRANCH  13  16
HETATM   16  C   UNL     1     -10.872  10.607  67.152  1.00  0.00    -0.270 C  
BRANCH  16  17
HETATM   17  C   UNL     1     -11.137  11.607  66.054  1.00  0.00    -0.325 A  
HETATM   18  C   UNL     1     -11.871  12.776  66.315  1.00  0.00    -0.485 A  
HETATM   19  C   UNL     1     -12.294  13.591  65.267  1.00  0.00    -0.506 A  
HETATM   20  C   UNL     1     -11.966  13.264  63.953  1.00  0.00    -0.541 A  
HETATM   21  C   UNL     1     -11.174  12.150  63.688  1.00  0.00    -0.540 A  
HETATM   22  C   UNL     1     -10.747  11.332  64.735  1.00  0.00    -0.352 A  
ENDBRANCH  16  17
ENDBRANCH  13  16
ENDBRANCH  12  13
ENDBRANCH  11  12
ENDBRANCH  10  11
ENDBRANCH   9  10
ENDBRANCH   8   9
ENDBRANCH   7   8
ENDBRANCH   6   7
ENDBRANCH   5   6
ENDBRANCH   4   5
ENDBRANCH   3   4
ENDBRANCH   2   3
TORSDOF 13
ENDMDL
MODEL       39
REMARK 921   NORMALIZED FREE ENERGY PREDICTED BY IDOCK:   -4.48 KCAL/MOL
REMARK 922        TOTAL FREE ENERGY PREDICTED BY IDOCK:   -9.36 KCAL/MOL
REMARK 923 INTER-LIGAND FREE ENERGY PREDICTED BY IDOCK:   -7.65 KCAL/MOL
REMARK 924 INTRA-LIGAND FREE ENERGY PREDICTED BY IDOCK:   -1.71 KCAL/MOL
REMARK 927      BINDING AFFINITY PREDICTED BY RF-SCORE:    0.00 PKD
ROOT
HETATM    1  C   UNL     1      -8.149   7.945  64.828  1.00  0.00    -0.141 C  
HETATM    2  C   UNL     1      -8.815   7.840  66.190  1.00  0.00    -0.192 C  
ENDROOT
BRANCH   2   3
HETATM    3  C   UNL     1      -9.788   8.994  66.413  1.00  0.00    -0.356 C  
BRANCH   3   4
HETATM    4  C   UNL     1      -9.422  10.198  65.550  1.00  0.00    -0.286 C  
BRANCH   4   5
HETATM    5  C   UNL     1     -10.653  11.057  65.276  1.00  0.00    -0.283 C  
BRANCH   5   6
HETATM    6  C   UNL     1     -10.826  11.289  63.781  1.00  0.00    -0.424 C  
BRANCH   6   7
HETATM    7  C   UNL     1     -11.945  12.287  63.504  1.00  0.00    -0.625 C  
BRANCH   7   8
HETATM    8  C   UNL     1     -12.528  12.789  64.819  1.00  0.00    -0.539 C  
BRANCH   8   9
HETATM    9  C   UNL     1     -12.398  14.303  64.954  1.00  0.00    -0.435 C  
BRANCH   9  10
HETATM   10  C   UNL     1     -10.969  14.789  64.707  1.00  0.00    -0.393 C  
BRANCH  10  11
HETATM   11  C   UNL     1     -10.076  14.835  65.953  1.00  0.00    -0.343 C  
BRANCH  11  12
HETATM   12  C   UNL     1     -10.468  15.951  66.929  1.00  0.00    -0.309 C  
BRANCH  12  13
HETATM   13  N   UNL     1     -10.604  15.476  68.389  1.00  0.00    -0.245 N  
HETATM   14  C   UNL     1      -9.485  14.506  68.746  1.00  0.00    -0.183 C  
HETATM   15  C   UNL     1     -10.570  16.661  69.348  1.00  0.00    -0.333 C  
BRANCH  13  16
HETATM   16  C   UNL     1     -11.993  14.760  68.508  1.00  0.00    -0.248 C  
BRANCH  16  17
HETATM   17  C   UNL     1     -11.958  13.403  69.166  1.00  0.00    -0.363 A  
HETATM   18  C   UNL     1     -11.746  12.244  68.402  1.00  0.00    -0.390 A  
HETATM   19  C   UNL     1     -11.921  10.983  68.969  1.00  0.00    -0.364 A  
HETATM   20  C   UNL     1     -12.282  10.866  70.310  1.00  0.00    -0.432 A  
HETATM   21  C   UNL     1     -12.421  12.006  71.097  1.00  0.00    -0.353 A  
HETATM   22  C   UNL     1     -12.244  13.269  70.534  1.00  0.00    -0.416 A  
ENDBRANCH  16  17
ENDBRANCH  13  16
ENDBRANCH  12  13
ENDBRANCH  11  12
ENDBRANCH  10  11
ENDBRANCH   9  10
ENDBRANCH   8   9
ENDBRANCH   7   8
ENDBRANCH   6   7
ENDBRANCH   5   6
ENDBRANCH   4   5
ENDBRANCH   3   4
ENDBRANCH   2   3
TORSDOF 13
ENDMDL
MODEL       40
REMARK 921   NORMALIZED FREE ENERGY PREDICTED BY IDOCK:   -4.48 KCAL/MOL
REMARK 922        TOTAL FREE ENERGY PREDICTED BY IDOCK:   -9.35 KCAL/MOL
REMARK 923 INTER-LIGAND FREE ENERGY PREDICTED BY IDOCK:   -7.70 KCAL/MOL
REMARK 924 INTRA-LIGAND FREE ENERGY PREDICTED BY IDOCK:   -1.65 KCAL/MOL
REMARK 927      BINDING AFFINITY PREDICTED BY RF-SCORE:    0.00 PKD
ROOT
HETATM    1  C   UNL     1     -13.998  14.887  71.364  1.00  0.00    -0.544 C  
HETATM    2  C   UNL     1     -12.677  15.593  71.110  1.00  0.00    -0.525 C  
ENDROOT
BRANCH   2   3
HETATM    3  C   UNL     1     -11.890  14.899  70.002  1.00  0.00    -0.353 C  
BRANCH   3   4
HETATM    4  C   UNL     1     -11.213  15.915  69.088  1.00  0.00    -0.334 C  
BRANCH   4   5
HETATM    5  C   UNL     1     -11.288  15.463  67.633  1.00  0.00    -0.292 C  
BRANCH   5   6
HETATM    6  C   UNL     1     -12.092  14.175  67.511  1.00  0.00    -0.363 C  
BRANCH   6   7
HETATM    7  C   UNL     1     -12.435  13.876  66.055  1.00  0.00    -0.501 C  
BRANCH   7   8
HETATM    8  C   UNL     1     -11.418  14.539  65.136  1.00  0.00    -0.368 C  
BRANCH   8   9
HETATM    9  C   UNL     1     -10.471  13.520  64.511  1.00  0.00    -0.426 C  
BRANCH   9  10
HETATM   10  C   UNL     1     -11.139  12.161  64.292  1.00  0.00    -0.403 C  
BRANCH  10  11
HETATM   11  C   UNL     1     -10.486  10.991  65.037  1.00  0.00    -0.344 C  
BRANCH  11  12
HETATM   12  C   UNL     1      -9.242  11.407  65.833  1.00  0.00    -0.216 C  
BRANCH  12  13
HETATM   13  N   UNL     1      -9.286  10.985  67.314  1.00  0.00    -0.148 N  
HETATM   14  C   UNL     1      -8.271   9.882  67.589  1.00  0.00    -0.114 C  
HETATM   15  C   UNL     1      -8.998  12.174  68.223  1.00  0.00    -0.186 C  
BRANCH  13  16
HETATM   16  C   UNL     1     -10.735  10.461  67.597  1.00  0.00    -0.286 C  
BRANCH  16  17
HETATM   17  C   UNL     1     -11.100  10.342  69.056  1.00  0.00    -0.297 A  
HETATM   18  C   UNL     1     -10.601   9.282  69.832  1.00  0.00    -0.246 A  
HETATM   19  C   UNL     1     -11.098   9.053  71.114  1.00  0.00    -0.371 A  
HETATM   20  C   UNL     1     -12.075   9.893  71.643  1.00  0.00    -0.457 A  
HETATM   21  C   UNL     1     -12.522  10.991  70.914  1.00  0.00    -0.509 A  
HETATM   22  C   UNL     1     -12.025  11.226  69.631  1.00  0.00    -0.423 A  
ENDBRANCH  16  17
ENDBRANCH  13  16
ENDBRANCH  12  13
ENDBRANCH  11  12
ENDBRANCH  10  11
ENDBRANCH   9  10
ENDBRANCH   8   9
ENDBRANCH   7   8
ENDBRANCH   6   7
ENDBRANCH   5   6
ENDBRANCH   4   5
ENDBRANCH   3   4
ENDBRANCH   2   3
TORSDOF 13
ENDMDL
MODEL       41
REMARK 921   NORMALIZED FREE ENERGY PREDICTED BY IDOCK:   -4.48 KCAL/MOL
REMARK 922        TOTAL FREE ENERGY PREDICTED BY IDOCK:   -9.35 KCAL/MOL
REMARK 923 INTER-LIGAND FREE ENERGY PREDICTED BY IDOCK:   -8.10 KCAL/MOL
REMARK 924 INTRA-LIGAND FREE ENERGY PREDICTED BY IDOCK:   -1.24 KCAL/MOL
REMARK 927      BINDING AFFINITY PREDICTED BY RF-SCORE:    0.00 PKD
ROOT
HETATM    1  C   UNL     1     -13.565   9.176  72.399  1.00  0.00    -0.544 C  
HETATM    2  C   UNL     1     -14.385   8.101  71.707  1.00  0.00    -0.582 C  
ENDROOT
BRANCH   2   3
HETATM    3  C   UNL     1     -13.491   6.969  71.205  1.00  0.00    -0.265 C  
BRANCH   3   4
HETATM    4  C   UNL     1     -12.278   6.783  72.112  1.00  0.00    -0.260 C  
BRANCH   4   5
HETATM    5  C   UNL     1     -11.147   6.088  71.360  1.00  0.00    -0.336 C  
BRANCH   5   6
HETATM    6  C   UNL     1     -11.240   6.372  69.866  1.00  0.00    -0.485 C  
BRANCH   6   7
HETATM    7  C   UNL     1     -10.026   7.156  69.378  1.00  0.00    -0.164 C  
BRANCH   7   8
HETATM    8  C   UNL     1     -10.452   8.554  68.947  1.00  0.00    -0.207 C  
BRANCH   8   9
HETATM    9  C   UNL     1     -10.547   9.507  70.134  1.00  0.00    -0.298 C  
BRANCH   9  10
HETATM   10  C   UNL     1     -11.559  10.630  69.900  1.00  0.00    -0.396 C  
BRANCH  10  11
HETATM   11  C   UNL     1     -10.958  11.948  69.396  1.00  0.00    -0.156 C  
BRANCH  11  12
HETATM   12  C   UNL     1     -12.022  12.987  69.023  1.00  0.00    -0.267 C  
BRANCH  12  13
HETATM   13  N   UNL     1     -11.442  14.265  68.385  1.00  0.00    -0.283 N  
HETATM   14  C   UNL     1      -9.939  14.349  68.621  1.00  0.00    -0.241 C  
HETATM   15  C   UNL     1     -11.721  14.294  66.887  1.00  0.00    -0.408 C  
BRANCH  13  16
HETATM   16  C   UNL     1     -12.160  15.481  69.064  1.00  0.00    -0.221 C  
BRANCH  16  17
HETATM   17  C   UNL     1     -12.494  15.293  70.523  1.00  0.00    -0.454 A  
HETATM   18  C   UNL     1     -13.821  15.070  70.929  1.00  0.00    -0.269 A  
HETATM   19  C   UNL     1     -14.160  15.106  72.280  1.00  0.00    -0.633 A  
HETATM   20  C   UNL     1     -13.176  15.334  73.240  1.00  0.00    -0.593 A  
HETATM   21  C   UNL     1     -11.846  15.480  72.856  1.00  0.00    -0.565 A  
HETATM   22  C   UNL     1     -11.502  15.443  71.504  1.00  0.00    -0.478 A  
ENDBRANCH  16  17
ENDBRANCH  13  16
ENDBRANCH  12  13
ENDBRANCH  11  12
ENDBRANCH  10  11
ENDBRANCH   9  10
ENDBRANCH   8   9
ENDBRANCH   7   8
ENDBRANCH   6   7
ENDBRANCH   5   6
ENDBRANCH   4   5
ENDBRANCH   3   4
ENDBRANCH   2   3
TORSDOF 13
ENDMDL
MODEL       42
REMARK 921   NORMALIZED FREE ENERGY PREDICTED BY IDOCK:   -4.47 KCAL/MOL
REMARK 922        TOTAL FREE ENERGY PREDICTED BY IDOCK:   -9.33 KCAL/MOL
REMARK 923 INTER-LIGAND FREE ENERGY PREDICTED BY IDOCK:   -8.32 KCAL/MOL
REMARK 924 INTRA-LIGAND FREE ENERGY PREDICTED BY IDOCK:   -1.01 KCAL/MOL
REMARK 927      BINDING AFFINITY PREDICTED BY RF-SCORE:    0.00 PKD
ROOT
HETATM    1  C   UNL     1     -12.419  15.730  74.346  1.00  0.00    -0.790 C  
HETATM    2  C   UNL     1     -13.236  15.808  73.068  1.00  0.00    -0.671 C  
ENDROOT
BRANCH   2   3
HETATM    3  C   UNL     1     -13.489  14.416  72.494  1.00  0.00    -0.593 C  
BRANCH   3   4
HETATM    4  C   UNL     1     -13.104  14.351  71.019  1.00  0.00    -0.417 C  
BRANCH   4   5
HETATM    5  C   UNL     1     -12.289  13.093  70.732  1.00  0.00    -0.404 C  
BRANCH   5   6
HETATM    6  C   UNL     1     -11.805  13.083  69.289  1.00  0.00    -0.370 C  
BRANCH   6   7
HETATM    7  C   UNL     1     -12.010  14.444  68.630  1.00  0.00    -0.332 C  
BRANCH   7   8
HETATM    8  C   UNL     1     -11.878  14.312  67.118  1.00  0.00    -0.454 C  
BRANCH   8   9
HETATM    9  C   UNL     1     -11.329  12.947  66.715  1.00  0.00    -0.367 C  
BRANCH   9  10
HETATM   10  C   UNL     1      -9.848  13.003  66.336  1.00  0.00    -0.270 C  
BRANCH  10  11
HETATM   11  C   UNL     1      -9.162  14.349  66.602  1.00  0.00    -0.283 C  
BRANCH  11  12
HETATM   12  C   UNL     1      -8.211  14.309  67.805  1.00  0.00    -0.174 C  
BRANCH  12  13
HETATM   13  N   UNL     1      -7.683  15.695  68.222  1.00  0.00    -0.128 N  
HETATM   14  C   UNL     1      -6.512  15.557  69.187  1.00  0.00    -0.128 C  
HETATM   15  C   UNL     1      -7.240  16.493  67.001  1.00  0.00    -0.212 C  
BRANCH  13  16
HETATM   16  C   UNL     1      -8.868  16.444  68.922  1.00  0.00    -0.256 C  
BRANCH  16  17
HETATM   17  C   UNL     1      -9.281  17.740  68.270  1.00  0.00    -0.280 A  
HETATM   18  C   UNL     1     -10.373  17.779  67.387  1.00  0.00    -0.370 A  
HETATM   19  C   UNL     1     -10.625  18.920  66.628  1.00  0.00    -0.469 A  
HETATM   20  C   UNL     1      -9.809  20.041  66.762  1.00  0.00    -0.574 A  
HETATM   21  C   UNL     1      -8.770  20.041  67.689  1.00  0.00    -0.395 A  
HETATM   22  C   UNL     1      -8.516  18.902  68.452  1.00  0.00    -0.385 A  
ENDBRANCH  16  17
ENDBRANCH  13  16
ENDBRANCH  12  13
ENDBRANCH  11  12
ENDBRANCH  10  11
ENDBRANCH   9  10
ENDBRANCH   8   9
ENDBRANCH   7   8
ENDBRANCH   6   7
ENDBRANCH   5   6
ENDBRANCH   4   5
ENDBRANCH   3   4
ENDBRANCH   2   3
TORSDOF 13
ENDMDL
MODEL       43
REMARK 921   NORMALIZED FREE ENERGY PREDICTED BY IDOCK:   -4.46 KCAL/MOL
REMARK 922        TOTAL FREE ENERGY PREDICTED BY IDOCK:   -9.32 KCAL/MOL
REMARK 923 INTER-LIGAND FREE ENERGY PREDICTED BY IDOCK:   -7.19 KCAL/MOL
REMARK 924 INTRA-LIGAND FREE ENERGY PREDICTED BY IDOCK:   -2.12 KCAL/MOL
REMARK 927      BINDING AFFINITY PREDICTED BY RF-SCORE:    0.00 PKD
ROOT
HETATM    1  C   UNL     1      -7.084  18.164  68.475  1.00  0.00    -0.262 C  
HETATM    2  C   UNL     1      -7.624  19.584  68.498  1.00  0.00    -0.378 C  
ENDROOT
BRANCH   2   3
HETATM    3  C   UNL     1      -7.974  20.060  67.091  1.00  0.00    -0.351 C  
BRANCH   3   4
HETATM    4  C   UNL     1      -9.464  20.363  66.967  1.00  0.00    -0.544 C  
BRANCH   4   5
HETATM    5  C   UNL     1     -10.208  19.166  66.380  1.00  0.00    -0.515 C  
BRANCH   5   6
HETATM    6  C   UNL     1     -10.964  18.416  67.468  1.00  0.00    -0.169 C  
BRANCH   6   7
HETATM    7  C   UNL     1     -10.554  16.948  67.511  1.00  0.00    -0.307 C  
BRANCH   7   8
HETATM    8  C   UNL     1      -9.678  16.619  66.309  1.00  0.00    -0.327 C  
BRANCH   8   9
HETATM    9  C   UNL     1      -8.967  15.280  66.478  1.00  0.00    -0.340 C  
BRANCH   9  10
HETATM   10  C   UNL     1      -9.098  14.724  67.897  1.00  0.00    -0.183 C  
BRANCH  10  11
HETATM   11  C   UNL     1      -8.529  13.314  68.095  1.00  0.00    -0.173 C  
BRANCH  11  12
HETATM   12  C   UNL     1      -8.800  12.387  66.903  1.00  0.00    -0.205 C  
BRANCH  12  13
HETATM   13  N   UNL     1      -9.446  11.045  67.299  1.00  0.00    -0.163 N  
HETATM   14  C   UNL     1      -8.852   9.901  66.485  1.00  0.00    -0.139 C  
HETATM   15  C   UNL     1      -9.246  10.766  68.784  1.00  0.00    -0.189 C  
BRANCH  13  16
HETATM   16  C   UNL     1     -10.979  11.172  67.002  1.00  0.00    -0.289 C  
BRANCH  16  17
HETATM   17  C   UNL     1     -11.347  12.207  65.967  1.00  0.00    -0.410 A  
HETATM   18  C   UNL     1     -12.054  13.364  66.334  1.00  0.00    -0.464 A  
HETATM   19  C   UNL     1     -12.575  14.211  65.357  1.00  0.00    -0.485 A  
HETATM   20  C   UNL     1     -12.370  13.928  64.008  1.00  0.00    -0.355 A  
HETATM   21  C   UNL     1     -11.606  12.827  63.634  1.00  0.00    -0.572 A  
HETATM   22  C   UNL     1     -11.082  11.977  64.608  1.00  0.00    -0.375 A  
ENDBRANCH  16  17
ENDBRANCH  13  16
ENDBRANCH  12  13
ENDBRANCH  11  12
ENDBRANCH  10  11
ENDBRANCH   9  10
ENDBRANCH   8   9
ENDBRANCH   7   8
ENDBRANCH   6   7
ENDBRANCH   5   6
ENDBRANCH   4   5
ENDBRANCH   3   4
ENDBRANCH   2   3
TORSDOF 13
ENDMDL
MODEL       44
REMARK 921   NORMALIZED FREE ENERGY PREDICTED BY IDOCK:   -4.45 KCAL/MOL
REMARK 922        TOTAL FREE ENERGY PREDICTED BY IDOCK:   -9.31 KCAL/MOL
REMARK 923 INTER-LIGAND FREE ENERGY PREDICTED BY IDOCK:   -7.96 KCAL/MOL
REMARK 924 INTRA-LIGAND FREE ENERGY PREDICTED BY IDOCK:   -1.35 KCAL/MOL
REMARK 927      BINDING AFFINITY PREDICTED BY RF-SCORE:    0.00 PKD
ROOT
HETATM    1  C   UNL     1     -10.482   7.797  68.230  1.00  0.00    -0.215 C  
HETATM    2  C   UNL     1     -10.898   6.336  68.264  1.00  0.00    -0.397 C  
ENDROOT
BRANCH   2   3
HETATM    3  C   UNL     1     -10.866   5.791  69.689  1.00  0.00    -0.418 C  
BRANCH   3   4
HETATM    4  C   UNL     1     -11.817   6.566  70.596  1.00  0.00    -0.398 C  
BRANCH   4   5
HETATM    5  C   UNL     1     -11.100   7.020  71.864  1.00  0.00    -0.274 C  
BRANCH   5   6
HETATM    6  C   UNL     1     -11.501   8.443  72.229  1.00  0.00    -0.454 C  
BRANCH   6   7
HETATM    7  C   UNL     1     -12.630   8.944  71.334  1.00  0.00    -0.351 C  
BRANCH   7   8
HETATM    8  C   UNL     1     -13.129  10.293  71.836  1.00  0.00    -0.568 C  
BRANCH   8   9
HETATM    9  C   UNL     1     -12.622  11.441  70.969  1.00  0.00    -0.487 C  
BRANCH   9  10
HETATM   10  C   UNL     1     -12.083  10.961  69.621  1.00  0.00    -0.400 C  
BRANCH  10  11
HETATM   11  C   UNL     1     -11.050  11.888  68.969  1.00  0.00    -0.300 C  
BRANCH  11  12
HETATM   12  C   UNL     1     -11.684  13.117  68.306  1.00  0.00    -0.349 C  
BRANCH  12  13
HETATM   13  N   UNL     1     -11.202  13.358  66.862  1.00  0.00    -0.300 N  
HETATM   14  C   UNL     1     -11.767  14.665  66.318  1.00  0.00    -0.320 C  
HETATM   15  C   UNL     1      -9.680  13.400  66.800  1.00  0.00    -0.262 C  
BRANCH  13  16
HETATM   16  C   UNL     1     -11.718  12.154  66.002  1.00  0.00    -0.321 C  
BRANCH  16  17
HETATM   17  C   UNL     1     -10.677  11.500  65.128  1.00  0.00    -0.348 A  
HETATM   18  C   UNL     1     -10.421  11.987  63.835  1.00  0.00    -0.440 A  
HETATM   19  C   UNL     1      -9.618  11.264  62.955  1.00  0.00    -0.397 A  
HETATM   20  C   UNL     1      -9.040  10.064  63.364  1.00  0.00    -0.301 A  
HETATM   21  C   UNL     1      -9.224   9.609  64.667  1.00  0.00    -0.293 A  
HETATM   22  C   UNL     1     -10.026  10.331  65.552  1.00  0.00    -0.364 A  
ENDBRANCH  16  17
ENDBRANCH  13  16
ENDBRANCH  12  13
ENDBRANCH  11  12
ENDBRANCH  10  11
ENDBRANCH   9  10
ENDBRANCH   8   9
ENDBRANCH   7   8
ENDBRANCH   6   7
ENDBRANCH   5   6
ENDBRANCH   4   5
ENDBRANCH   3   4
ENDBRANCH   2   3
TORSDOF 13
ENDMDL
MODEL       45
REMARK 921   NORMALIZED FREE ENERGY PREDICTED BY IDOCK:   -4.45 KCAL/MOL
REMARK 922        TOTAL FREE ENERGY PREDICTED BY IDOCK:   -9.30 KCAL/MOL
REMARK 923 INTER-LIGAND FREE ENERGY PREDICTED BY IDOCK:   -7.02 KCAL/MOL
REMARK 924 INTRA-LIGAND FREE ENERGY PREDICTED BY IDOCK:   -2.28 KCAL/MOL
REMARK 927      BINDING AFFINITY PREDICTED BY RF-SCORE:    0.00 PKD
ROOT
HETATM    1  C   UNL     1     -12.529  12.069  63.450  1.00  0.00    -0.625 C  
HETATM    2  C   UNL     1     -11.028  12.302  63.471  1.00  0.00    -0.521 C  
ENDROOT
BRANCH   2   3
HETATM    3  C   UNL     1     -10.567  12.779  64.846  1.00  0.00    -0.336 C  
BRANCH   3   4
HETATM    4  C   UNL     1     -11.668  12.601  65.888  1.00  0.00    -0.470 C  
BRANCH   4   5
HETATM    5  C   UNL     1     -11.241  11.597  66.954  1.00  0.00    -0.376 C  
BRANCH   5   6
HETATM    6  C   UNL     1     -11.749  12.021  68.326  1.00  0.00    -0.396 C  
BRANCH   6   7
HETATM    7  C   UNL     1     -11.978  13.528  68.387  1.00  0.00    -0.378 C  
BRANCH   7   8
HETATM    8  C   UNL     1     -11.667  14.042  69.787  1.00  0.00    -0.375 C  
BRANCH   8   9
HETATM    9  C   UNL     1     -11.442  15.551  69.798  1.00  0.00    -0.339 C  
BRANCH   9  10
HETATM   10  C   UNL     1     -11.348  16.137  68.388  1.00  0.00    -0.345 C  
BRANCH  10  11
HETATM   11  C   UNL     1     -10.784  17.561  68.315  1.00  0.00    -0.309 C  
BRANCH  11  12
HETATM   12  C   UNL     1     -10.070  17.855  66.990  1.00  0.00    -0.340 C  
BRANCH  12  13
HETATM   13  N   UNL     1      -8.785  18.691  67.152  1.00  0.00    -0.269 N  
HETATM   14  C   UNL     1      -8.805  19.893  66.216  1.00  0.00    -0.345 C  
HETATM   15  C   UNL     1      -8.632  19.172  68.590  1.00  0.00    -0.361 C  
BRANCH  13  16
HETATM   16  C   UNL     1      -7.583  17.753  66.794  1.00  0.00    -0.216 C  
BRANCH  16  17
HETATM   17  C   UNL     1      -7.631  16.382  67.422  1.00  0.00    -0.186 A  
HETATM   18  C   UNL     1      -8.183  15.295  66.722  1.00  0.00    -0.215 A  
HETATM   19  C   UNL     1      -8.419  14.085  67.373  1.00  0.00    -0.209 A  
HETATM   20  C   UNL     1      -8.081  13.938  68.716  1.00  0.00    -0.043 A  
HETATM   21  C   UNL     1      -7.463  14.983  69.399  1.00  0.00    -0.196 A  
HETATM   22  C   UNL     1      -7.224  16.195  68.751  1.00  0.00    -0.170 A  
ENDBRANCH  16  17
ENDBRANCH  13  16
ENDBRANCH  12  13
ENDBRANCH  11  12
ENDBRANCH  10  11
ENDBRANCH   9  10
ENDBRANCH   8   9
ENDBRANCH   7   8
ENDBRANCH   6   7
ENDBRANCH   5   6
ENDBRANCH   4   5
ENDBRANCH   3   4
ENDBRANCH   2   3
TORSDOF 13
ENDMDL
MODEL       46
REMARK 921   NORMALIZED FREE ENERGY PREDICTED BY IDOCK:   -4.45 KCAL/MOL
REMARK 922        TOTAL FREE ENERGY PREDICTED BY IDOCK:   -9.30 KCAL/MOL
REMARK 923 INTER-LIGAND FREE ENERGY PREDICTED BY IDOCK:   -7.93 KCAL/MOL
REMARK 924 INTRA-LIGAND FREE ENERGY PREDICTED BY IDOCK:   -1.37 KCAL/MOL
REMARK 927      BINDING AFFINITY PREDICTED BY RF-SCORE:    0.00 PKD
ROOT
HETATM    1  C   UNL     1     -12.160  13.906  66.910  1.00  0.00    -0.467 C  
HETATM    2  C   UNL     1     -11.513  13.460  65.609  1.00  0.00    -0.335 C  
ENDROOT
BRANCH   2   3
HETATM    3  C   UNL     1     -12.502  12.684  64.744  1.00  0.00    -0.555 C  
BRANCH   3   4
HETATM    4  C   UNL     1     -11.774  11.806  63.730  1.00  0.00    -0.499 C  
BRANCH   4   5
HETATM    5  C   UNL     1     -10.289  11.714  64.068  1.00  0.00    -0.405 C  
BRANCH   5   6
HETATM    6  C   UNL     1      -9.908  10.285  64.434  1.00  0.00    -0.374 C  
BRANCH   6   7
HETATM    7  C   UNL     1     -10.076  10.037  65.930  1.00  0.00    -0.319 C  
BRANCH   7   8
HETATM    8  C   UNL     1      -9.592   8.636  66.279  1.00  0.00    -0.322 C  
BRANCH   8   9
HETATM    9  C   UNL     1     -10.637   7.858  67.072  1.00  0.00    -0.381 C  
BRANCH   9  10
HETATM   10  C   UNL     1     -10.009   6.823  68.007  1.00  0.00    -0.162 C  
BRANCH  10  11
HETATM   11  C   UNL     1     -10.962   6.233  69.053  1.00  0.00    -0.437 C  
BRANCH  11  12
HETATM   12  C   UNL     1     -10.308   6.059  70.429  1.00  0.00    -0.223 C  
BRANCH  12  13
HETATM   13  N   UNL     1     -11.190   6.539  71.598  1.00  0.00    -0.257 N  
HETATM   14  C   UNL     1     -12.595   6.869  71.112  1.00  0.00    -0.314 C  
HETATM   15  C   UNL     1     -11.268   5.476  72.687  1.00  0.00    -0.295 C  
BRANCH  13  16
HETATM   16  C   UNL     1     -10.511   7.824  72.184  1.00  0.00    -0.231 C  
BRANCH  16  17
HETATM   17  C   UNL     1     -10.864   9.112  71.481  1.00  0.00    -0.436 A  
HETATM   18  C   UNL     1     -12.042   9.804  71.808  1.00  0.00    -0.425 A  
HETATM   19  C   UNL     1     -12.473  10.871  71.022  1.00  0.00    -0.514 A  
HETATM   20  C   UNL     1     -11.721  11.275  69.921  1.00  0.00    -0.430 A  
HETATM   21  C   UNL     1     -10.513  10.646  69.633  1.00  0.00    -0.219 A  
HETATM   22  C   UNL     1     -10.076   9.579  70.418  1.00  0.00    -0.329 A  
ENDBRANCH  16  17
ENDBRANCH  13  16
ENDBRANCH  12  13
ENDBRANCH  11  12
ENDBRANCH  10  11
ENDBRANCH   9  10
ENDBRANCH   8   9
ENDBRANCH   7   8
ENDBRANCH   6   7
ENDBRANCH   5   6
ENDBRANCH   4   5
ENDBRANCH   3   4
ENDBRANCH   2   3
TORSDOF 13
ENDMDL
MODEL       47
REMARK 921   NORMALIZED FREE ENERGY PREDICTED BY IDOCK:   -4.44 KCAL/MOL
REMARK 922        TOTAL FREE ENERGY PREDICTED BY IDOCK:   -9.29 KCAL/MOL
REMARK 923 INTER-LIGAND FREE ENERGY PREDICTED BY IDOCK:   -7.87 KCAL/MOL
REMARK 924 INTRA-LIGAND FREE ENERGY PREDICTED BY IDOCK:   -1.42 KCAL/MOL
REMARK 927      BINDING AFFINITY PREDICTED BY RF-SCORE:    0.00 PKD
ROOT
HETATM    1  C   UNL     1     -14.284  15.444  72.431  1.00  0.00    -0.584 C  
HETATM    2  C   UNL     1     -12.976  15.906  73.051  1.00  0.00    -0.630 C  
ENDROOT
BRANCH   2   3
HETATM    3  C   UNL     1     -11.849  15.895  72.023  1.00  0.00    -0.609 C  
BRANCH   3   4
HETATM    4  C   UNL     1     -12.226  15.062  70.801  1.00  0.00    -0.386 C  
BRANCH   4   5
HETATM    5  C   UNL     1     -11.738  15.735  69.521  1.00  0.00    -0.369 C  
BRANCH   5   6
HETATM    6  C   UNL     1     -10.494  16.570  69.793  1.00  0.00    -0.215 C  
BRANCH   6   7
HETATM    7  C   UNL     1      -9.258  15.936  69.164  1.00  0.00    -0.253 C  
BRANCH   7   8
HETATM    8  C   UNL     1      -8.579  16.935  68.235  1.00  0.00    -0.230 C  
BRANCH   8   9
HETATM    9  C   UNL     1      -9.467  17.297  67.048  1.00  0.00    -0.264 C  
BRANCH   9  10
HETATM   10  C   UNL     1      -9.510  16.189  65.994  1.00  0.00    -0.374 C  
BRANCH  10  11
HETATM   11  C   UNL     1     -10.849  15.449  65.887  1.00  0.00    -0.328 C  
BRANCH  11  12
HETATM   12  C   UNL     1     -10.976  14.625  64.600  1.00  0.00    -0.325 C  
BRANCH  12  13
HETATM   13  N   UNL     1     -11.094  13.108  64.846  1.00  0.00    -0.303 N  
HETATM   14  C   UNL     1     -12.521  12.736  65.232  1.00  0.00    -0.465 C  
HETATM   15  C   UNL     1     -10.687  12.326  63.603  1.00  0.00    -0.467 C  
BRANCH  13  16
HETATM   16  C   UNL     1     -10.114  12.758  66.017  1.00  0.00    -0.268 C  
BRANCH  16  17
HETATM   17  C   UNL     1     -10.708  11.918  67.120  1.00  0.00    -0.280 A  
HETATM   18  C   UNL     1     -11.205  12.521  68.288  1.00  0.00    -0.309 A  
HETATM   19  C   UNL     1     -11.559  11.741  69.388  1.00  0.00    -0.386 A  
HETATM   20  C   UNL     1     -11.448  10.354  69.323  1.00  0.00    -0.281 A  
HETATM   21  C   UNL     1     -11.030   9.741  68.145  1.00  0.00    -0.228 A  
HETATM   22  C   UNL     1     -10.677  10.517  67.042  1.00  0.00    -0.310 A  
ENDBRANCH  16  17
ENDBRANCH  13  16
ENDBRANCH  12  13
ENDBRANCH  11  12
ENDBRANCH  10  11
ENDBRANCH   9  10
ENDBRANCH   8   9
ENDBRANCH   7   8
ENDBRANCH   6   7
ENDBRANCH   5   6
ENDBRANCH   4   5
ENDBRANCH   3   4
ENDBRANCH   2   3
TORSDOF 13
ENDMDL
MODEL       48
REMARK 921   NORMALIZED FREE ENERGY PREDICTED BY IDOCK:   -4.44 KCAL/MOL
REMARK 922        TOTAL FREE ENERGY PREDICTED BY IDOCK:   -9.28 KCAL/MOL
REMARK 923 INTER-LIGAND FREE ENERGY PREDICTED BY IDOCK:   -7.39 KCAL/MOL
REMARK 924 INTRA-LIGAND FREE ENERGY PREDICTED BY IDOCK:   -1.89 KCAL/MOL
REMARK 927      BINDING AFFINITY PREDICTED BY RF-SCORE:    0.00 PKD
ROOT
HETATM    1  C   UNL     1     -11.570  12.069  63.643  1.00  0.00    -0.578 C  
HETATM    2  C   UNL     1     -12.645  12.530  64.612  1.00  0.00    -0.507 C  
ENDROOT
BRANCH   2   3
HETATM    3  C   UNL     1     -12.284  13.879  65.229  1.00  0.00    -0.449 C  
BRANCH   3   4
HETATM    4  C   UNL     1     -10.976  14.415  64.653  1.00  0.00    -0.367 C  
BRANCH   4   5
HETATM    5  C   UNL     1     -10.267  15.305  65.669  1.00  0.00    -0.398 C  
BRANCH   5   6
HETATM    6  C   UNL     1     -10.991  15.276  67.008  1.00  0.00    -0.324 C  
BRANCH   6   7
HETATM    7  C   UNL     1     -10.077  14.770  68.119  1.00  0.00    -0.221 C  
BRANCH   7   8
HETATM    8  C   UNL     1     -10.466  13.348  68.503  1.00  0.00    -0.260 C  
BRANCH   8   9
HETATM    9  C   UNL     1      -9.451  12.328  67.997  1.00  0.00    -0.206 C  
BRANCH   9  10
HETATM   10  C   UNL     1     -10.040  11.399  66.934  1.00  0.00    -0.245 C  
BRANCH  10  11
HETATM   11  C   UNL     1     -10.014   9.908  67.291  1.00  0.00    -0.245 C  
BRANCH  11  12
HETATM   12  C   UNL     1      -8.798   9.517  68.140  1.00  0.00    -0.124 C  
BRANCH  12  13
HETATM   13  N   UNL     1      -9.113   8.470  69.227  1.00  0.00    -0.152 N  
HETATM   14  C   UNL     1     -10.363   7.679  68.865  1.00  0.00    -0.212 C  
HETATM   15  C   UNL     1      -7.942   7.511  69.408  1.00  0.00    -0.123 C  
BRANCH  13  16
HETATM   16  C   UNL     1      -9.344   9.256  70.563  1.00  0.00    -0.264 C  
BRANCH  16  17
HETATM   17  C   UNL     1     -10.788   9.410  70.972  1.00  0.00    -0.406 A  
HETATM   18  C   UNL     1     -11.524  10.542  70.583  1.00  0.00    -0.418 A  
HETATM   19  C   UNL     1     -12.782  10.787  71.130  1.00  0.00    -0.532 A  
HETATM   20  C   UNL     1     -13.330   9.892  72.047  1.00  0.00    -0.532 A  
HETATM   21  C   UNL     1     -12.644   8.728  72.382  1.00  0.00    -0.430 A  
HETATM   22  C   UNL     1     -11.385   8.478  71.836  1.00  0.00    -0.399 A  
ENDBRANCH  16  17
ENDBRANCH  13  16
ENDBRANCH  12  13
ENDBRANCH  11  12
ENDBRANCH  10  11
ENDBRANCH   9  10
ENDBRANCH   8   9
ENDBRANCH   7   8
ENDBRANCH   6   7
ENDBRANCH   5   6
ENDBRANCH   4   5
ENDBRANCH   3   4
ENDBRANCH   2   3
TORSDOF 13
ENDMDL
MODEL       49
REMARK 921   NORMALIZED FREE ENERGY PREDICTED BY IDOCK:   -4.44 KCAL/MOL
REMARK 922        TOTAL FREE ENERGY PREDICTED BY IDOCK:   -9.28 KCAL/MOL
REMARK 923 INTER-LIGAND FREE ENERGY PREDICTED BY IDOCK:   -7.95 KCAL/MOL
REMARK 924 INTRA-LIGAND FREE ENERGY PREDICTED BY IDOCK:   -1.33 KCAL/MOL
REMARK 927      BINDING AFFINITY PREDICTED BY RF-SCORE:    0.00 PKD
ROOT
HETATM    1  C   UNL     1     -11.328  12.023  63.593  1.00  0.00    -0.536 C  
HETATM    2  C   UNL     1     -11.511  13.284  64.422  1.00  0.00    -0.416 C  
ENDROOT
BRANCH   2   3
HETATM    3  C   UNL     1     -12.251  12.981  65.722  1.00  0.00    -0.511 C  
BRANCH   3   4
HETATM    4  C   UNL     1     -12.010  14.074  66.759  1.00  0.00    -0.473 C  
BRANCH   4   5
HETATM    5  C   UNL     1     -12.001  13.485  68.167  1.00  0.00    -0.376 C  
BRANCH   5   6
HETATM    6  C   UNL     1     -11.751  11.984  68.121  1.00  0.00    -0.398 C  
BRANCH   6   7
HETATM    7  C   UNL     1     -11.413  11.439  69.505  1.00  0.00    -0.381 C  
BRANCH   7   8
HETATM    8  C   UNL     1     -12.316  12.082  70.549  1.00  0.00    -0.369 C  
BRANCH   8   9
HETATM    9  C   UNL     1     -12.956  11.041  71.461  1.00  0.00    -0.553 C  
BRANCH   9  10
HETATM   10  C   UNL     1     -12.652   9.610  71.017  1.00  0.00    -0.367 C  
BRANCH  10  11
HETATM   11  C   UNL     1     -12.623   8.573  72.146  1.00  0.00    -0.431 C  
BRANCH  11  12
HETATM   12  C   UNL     1     -12.353   7.149  71.645  1.00  0.00    -0.362 C  
BRANCH  12  13
HETATM   13  N   UNL     1     -11.143   6.475  72.320  1.00  0.00    -0.251 N  
HETATM   14  C   UNL     1     -10.441   7.446  73.260  1.00  0.00    -0.374 C  
HETATM   15  C   UNL     1     -11.578   5.240  73.101  1.00  0.00    -0.178 C  
BRANCH  13  16
HETATM   16  C   UNL     1     -10.167   6.039  71.174  1.00  0.00    -0.207 C  
BRANCH  16  17
HETATM   17  C   UNL     1     -10.379   6.735  69.852  1.00  0.00    -0.229 A  
HETATM   18  C   UNL     1     -11.072   6.094  68.811  1.00  0.00    -0.398 A  
HETATM   19  C   UNL     1     -11.087   6.645  67.531  1.00  0.00    -0.374 A  
HETATM   20  C   UNL     1     -10.438   7.853  67.285  1.00  0.00    -0.390 A  
HETATM   21  C   UNL     1      -9.814   8.535  68.325  1.00  0.00    -0.190 A  
HETATM   22  C   UNL     1      -9.797   7.988  69.608  1.00  0.00    -0.184 A  
ENDBRANCH  16  17
ENDBRANCH  13  16
ENDBRANCH  12  13
ENDBRANCH  11  12
ENDBRANCH  10  11
ENDBRANCH   9  10
ENDBRANCH   8   9
ENDBRANCH   7   8
ENDBRANCH   6   7
ENDBRANCH   5   6
ENDBRANCH   4   5
ENDBRANCH   3   4
ENDBRANCH   2   3
TORSDOF 13
ENDMDL
MODEL       50
REMARK 921   NORMALIZED FREE ENERGY PREDICTED BY IDOCK:   -4.44 KCAL/MOL
REMARK 922        TOTAL FREE ENERGY PREDICTED BY IDOCK:   -9.28 KCAL/MOL
REMARK 923 INTER-LIGAND FREE ENERGY PREDICTED BY IDOCK:   -7.59 KCAL/MOL
REMARK 924 INTRA-LIGAND FREE ENERGY PREDICTED BY IDOCK:   -1.68 KCAL/MOL
REMARK 927      BINDING AFFINITY PREDICTED BY RF-SCORE:    0.00 PKD
ROOT
HETATM    1  C   UNL     1     -10.296  14.877  67.857  1.00  0.00    -0.237 C  
HETATM    2  C   UNL     1     -10.844  13.523  68.275  1.00  0.00    -0.277 C  
ENDROOT
BRANCH   2   3
HETATM    3  C   UNL     1     -11.963  13.073  67.340  1.00  0.00    -0.372 C  
BRANCH   3   4
HETATM    4  C   UNL     1     -11.933  13.854  66.030  1.00  0.00    -0.436 C  
BRANCH   4   5
HETATM    5  C   UNL     1     -12.777  13.155  64.968  1.00  0.00    -0.456 C  
BRANCH   5   6
HETATM    6  C   UNL     1     -11.981  12.973  63.682  1.00  0.00    -0.608 C  
BRANCH   6   7
HETATM    7  C   UNL     1     -10.514  12.678  63.979  1.00  0.00    -0.443 C  
BRANCH   7   8
HETATM    8  C   UNL     1     -10.116  11.349  63.350  1.00  0.00    -0.444 C  
BRANCH   8   9
HETATM    9  C   UNL     1      -9.945  10.256  64.400  1.00  0.00    -0.331 C  
BRANCH   9  10
HETATM   10  C   UNL     1      -9.676  10.823  65.795  1.00  0.00    -0.278 C  
BRANCH  10  11
HETATM   11  C   UNL     1     -10.017   9.879  66.954  1.00  0.00    -0.268 C  
BRANCH  11  12
HETATM   12  C   UNL     1      -8.842   9.666  67.917  1.00  0.00    -0.119 C  
BRANCH  12  13
HETATM   13  N   UNL     1      -9.128   8.630  69.022  1.00  0.00    -0.145 N  
HETATM   14  C   UNL     1     -10.370   7.814  68.685  1.00  0.00    -0.199 C  
HETATM   15  C   UNL     1      -7.940   7.693  69.204  1.00  0.00    -0.120 C  
BRANCH  13  16
HETATM   16  C   UNL     1      -9.358   9.431  70.349  1.00  0.00    -0.268 C  
BRANCH  16  17
HETATM   17  C   UNL     1     -10.783   9.452  70.846  1.00  0.00    -0.393 A  
HETATM   18  C   UNL     1     -11.701  10.389  70.343  1.00  0.00    -0.419 A  
HETATM   19  C   UNL     1     -12.948  10.547  70.945  1.00  0.00    -0.455 A  
HETATM   20  C   UNL     1     -13.302   9.754  72.034  1.00  0.00    -0.547 A  
HETATM   21  C   UNL     1     -12.431   8.770  72.493  1.00  0.00    -0.368 A  
HETATM   22  C   UNL     1     -11.182   8.607  71.893  1.00  0.00    -0.413 A  
ENDBRANCH  16  17
ENDBRANCH  13  16
ENDBRANCH  12  13
ENDBRANCH  11  12
ENDBRANCH  10  11
ENDBRANCH   9  10
ENDBRANCH   8   9
ENDBRANCH   7   8
ENDBRANCH   6   7
ENDBRANCH   5   6
ENDBRANCH   4   5
ENDBRANCH   3   4
ENDBRANCH   2   3
TORSDOF 13
ENDMDL
MODEL       51
REMARK 921   NORMALIZED FREE ENERGY PREDICTED BY IDOCK:   -4.42 KCAL/MOL
REMARK 922        TOTAL FREE ENERGY PREDICTED BY IDOCK:   -9.26 KCAL/MOL
REMARK 923 INTER-LIGAND FREE ENERGY PREDICTED BY IDOCK:   -7.67 KCAL/MOL
REMARK 924 INTRA-LIGAND FREE ENERGY PREDICTED BY IDOCK:   -1.59 KCAL/MOL
REMARK 927      BINDING AFFINITY PREDICTED BY RF-SCORE:    0.00 PKD
ROOT
HETATM    1  C   UNL     1      -6.109  17.587  67.254  1.00  0.00    -0.162 C  
HETATM    2  C   UNL     1      -6.853  18.013  66.000  1.00  0.00    -0.332 C  
ENDROOT
BRANCH   2   3
HETATM    3  C   UNL     1      -7.100  19.519  65.995  1.00  0.00    -0.293 C  
BRANCH   3   4
HETATM    4  C   UNL     1      -7.214  20.063  67.416  1.00  0.00    -0.295 C  
BRANCH   4   5
HETATM    5  C   UNL     1      -8.637  20.539  67.695  1.00  0.00    -0.252 C  
BRANCH   5   6
HETATM    6  C   UNL     1      -9.551  20.223  66.519  1.00  0.00    -0.491 C  
BRANCH   6   7
HETATM    7  C   UNL     1     -10.766  19.416  66.967  1.00  0.00    -0.582 C  
BRANCH   7   8
HETATM    8  C   UNL     1     -10.334  18.323  67.936  1.00  0.00    -0.417 C  
BRANCH   8   9
HETATM    9  C   UNL     1     -10.547  16.931  67.350  1.00  0.00    -0.294 C  
BRANCH   9  10
HETATM   10  C   UNL     1      -9.328  16.027  67.537  1.00  0.00    -0.217 C  
BRANCH  10  11
HETATM   11  C   UNL     1      -8.984  15.146  66.330  1.00  0.00    -0.314 C  
BRANCH  11  12
HETATM   12  C   UNL     1     -10.220  14.707  65.537  1.00  0.00    -0.370 C  
BRANCH  12  13
HETATM   13  N   UNL     1     -10.447  13.182  65.539  1.00  0.00    -0.283 N  
HETATM   14  C   UNL     1     -10.434  12.635  64.117  1.00  0.00    -0.413 C  
HETATM   15  C   UNL     1      -9.374  12.478  66.361  1.00  0.00    -0.209 C  
BRANCH  13  16
HETATM   16  C   UNL     1     -11.846  12.930  66.197  1.00  0.00    -0.429 C  
BRANCH  16  17
HETATM   17  C   UNL     1     -11.824  12.736  67.693  1.00  0.00    -0.396 A  
HETATM   18  C   UNL     1     -11.838  11.445  68.246  1.00  0.00    -0.320 A  
HETATM   19  C   UNL     1     -12.029  11.267  69.616  1.00  0.00    -0.423 A  
HETATM   20  C   UNL     1     -12.177  12.373  70.449  1.00  0.00    -0.370 A  
HETATM   21  C   UNL     1     -12.087  13.659  69.923  1.00  0.00    -0.406 A  
HETATM   22  C   UNL     1     -11.896  13.842  68.554  1.00  0.00    -0.401 A  
ENDBRANCH  16  17
ENDBRANCH  13  16
ENDBRANCH  12  13
ENDBRANCH  11  12
ENDBRANCH  10  11
ENDBRANCH   9  10
ENDBRANCH   8   9
ENDBRANCH   7   8
ENDBRANCH   6   7
ENDBRANCH   5   6
ENDBRANCH   4   5
ENDBRANCH   3   4
ENDBRANCH   2   3
TORSDOF 13
ENDMDL
MODEL       52
REMARK 921   NORMALIZED FREE ENERGY PREDICTED BY IDOCK:   -4.42 KCAL/MOL
REMARK 922        TOTAL FREE ENERGY PREDICTED BY IDOCK:   -9.25 KCAL/MOL
REMARK 923 INTER-LIGAND FREE ENERGY PREDICTED BY IDOCK:   -7.66 KCAL/MOL
REMARK 924 INTRA-LIGAND FREE ENERGY PREDICTED BY IDOCK:   -1.59 KCAL/MOL
REMARK 927      BINDING AFFINITY PREDICTED BY RF-SCORE:    0.00 PKD
ROOT
HETATM    1  C   UNL     1     -10.941  11.469  63.688  1.00  0.00    -0.482 C  
HETATM    2  C   UNL     1     -12.348  12.028  63.554  1.00  0.00    -0.661 C  
ENDROOT
BRANCH   2   3
HETATM    3  C   UNL     1     -12.677  12.965  64.713  1.00  0.00    -0.442 C  
BRANCH   3   4
HETATM    4  C   UNL     1     -11.737  12.732  65.893  1.00  0.00    -0.464 C  
BRANCH   4   5
HETATM    5  C   UNL     1     -12.123  13.623  67.070  1.00  0.00    -0.423 C  
BRANCH   5   6
HETATM    6  C   UNL     1     -11.734  12.969  68.389  1.00  0.00    -0.386 C  
BRANCH   6   7
HETATM    7  C   UNL     1     -11.872  13.948  69.551  1.00  0.00    -0.383 C  
BRANCH   7   8
HETATM    8  C   UNL     1     -12.496  13.245  70.750  1.00  0.00    -0.403 C  
BRANCH   8   9
HETATM    9  C   UNL     1     -12.319  11.732  70.672  1.00  0.00    -0.421 C  
BRANCH   9  10
HETATM   10  C   UNL     1     -13.178  10.991  71.698  1.00  0.00    -0.461 C  
BRANCH  10  11
HETATM   11  C   UNL     1     -12.830   9.509  71.884  1.00  0.00    -0.508 C  
BRANCH  11  12
HETATM   12  C   UNL     1     -11.360   9.196  71.579  1.00  0.00    -0.368 C  
BRANCH  12  13
HETATM   13  N   UNL     1     -11.069   7.691  71.415  1.00  0.00    -0.236 N  
HETATM   14  C   UNL     1     -10.693   7.067  72.753  1.00  0.00    -0.274 C  
HETATM   15  C   UNL     1     -12.281   6.967  70.842  1.00  0.00    -0.353 C  
BRANCH  13  16
HETATM   16  C   UNL     1      -9.873   7.565  70.410  1.00  0.00    -0.183 C  
BRANCH  16  17
HETATM   17  C   UNL     1      -9.738   8.703  69.429  1.00  0.00    -0.176 A  
HETATM   18  C   UNL     1     -10.485   8.712  68.239  1.00  0.00    -0.234 A  
HETATM   19  C   UNL     1     -10.211   9.647  67.242  1.00  0.00    -0.292 A  
HETATM   20  C   UNL     1      -9.210  10.596  67.433  1.00  0.00    -0.153 A  
HETATM   21  C   UNL     1      -8.515  10.646  68.638  1.00  0.00    -0.142 A  
HETATM   22  C   UNL     1      -8.788   9.714  69.640  1.00  0.00    -0.212 A  
ENDBRANCH  16  17
ENDBRANCH  13  16
ENDBRANCH  12  13
ENDBRANCH  11  12
ENDBRANCH  10  11
ENDBRANCH   9  10
ENDBRANCH   8   9
ENDBRANCH   7   8
ENDBRANCH   6   7
ENDBRANCH   5   6
ENDBRANCH   4   5
ENDBRANCH   3   4
ENDBRANCH   2   3
TORSDOF 13
ENDMDL
MODEL       53
REMARK 921   NORMALIZED FREE ENERGY PREDICTED BY IDOCK:   -4.41 KCAL/MOL
REMARK 922        TOTAL FREE ENERGY PREDICTED BY IDOCK:   -9.24 KCAL/MOL
REMARK 923 INTER-LIGAND FREE ENERGY PREDICTED BY IDOCK:   -7.67 KCAL/MOL
REMARK 924 INTRA-LIGAND FREE ENERGY PREDICTED BY IDOCK:   -1.57 KCAL/MOL
REMARK 927      BINDING AFFINITY PREDICTED BY RF-SCORE:    0.00 PKD
ROOT
HETATM    1  C   UNL     1      -9.757  10.387  64.514  1.00  0.00    -0.393 C  
HETATM    2  C   UNL     1     -10.183  11.564  63.653  1.00  0.00    -0.450 C  
ENDROOT
BRANCH   2   3
HETATM    3  C   UNL     1     -11.697  11.754  63.697  1.00  0.00    -0.517 C  
BRANCH   3   4
HETATM    4  C   UNL     1     -12.082  13.192  63.359  1.00  0.00    -0.558 C  
BRANCH   4   5
HETATM    5  C   UNL     1     -11.825  14.110  64.551  1.00  0.00    -0.451 C  
BRANCH   5   6
HETATM    6  C   UNL     1     -12.872  13.891  65.635  1.00  0.00    -0.467 C  
BRANCH   6   7
HETATM    7  C   UNL     1     -12.232  13.851  67.019  1.00  0.00    -0.392 C  
BRANCH   7   8
HETATM    8  C   UNL     1     -11.390  12.591  67.165  1.00  0.00    -0.381 C  
BRANCH   8   9
HETATM    9  C   UNL     1     -10.037  12.886  67.803  1.00  0.00    -0.229 C  
BRANCH   9  10
HETATM   10  C   UNL     1      -9.067  13.559  66.831  1.00  0.00    -0.246 C  
BRANCH  10  11
HETATM   11  C   UNL     1      -8.569  14.942  67.266  1.00  0.00    -0.232 C  
BRANCH  11  12
HETATM   12  C   UNL     1      -9.498  16.079  66.824  1.00  0.00    -0.231 C  
BRANCH  12  13
HETATM   13  N   UNL     1      -9.644  17.201  67.870  1.00  0.00    -0.260 N  
HETATM   14  C   UNL     1     -10.442  18.368  67.300  1.00  0.00    -0.405 C  
HETATM   15  C   UNL     1     -10.335  16.682  69.126  1.00  0.00    -0.326 C  
BRANCH  13  16
HETATM   16  C   UNL     1      -8.196  17.673  68.239  1.00  0.00    -0.276 C  
BRANCH  16  17
HETATM   17  C   UNL     1      -7.641  18.774  67.370  1.00  0.00    -0.239 A  
HETATM   18  C   UNL     1      -7.097  18.483  66.108  1.00  0.00    -0.301 A  
HETATM   19  C   UNL     1      -6.399  19.460  65.400  1.00  0.00    -0.293 A  
HETATM   20  C   UNL     1      -6.262  20.741  65.929  1.00  0.00    -0.279 A  
HETATM   21  C   UNL     1      -6.862  21.063  67.143  1.00  0.00    -0.417 A  
HETATM   22  C   UNL     1      -7.563  20.089  67.855  1.00  0.00    -0.325 A  
ENDBRANCH  16  17
ENDBRANCH  13  16
ENDBRANCH  12  13
ENDBRANCH  11  12
ENDBRANCH  10  11
ENDBRANCH   9  10
ENDBRANCH   8   9
ENDBRANCH   7   8
ENDBRANCH   6   7
ENDBRANCH   5   6
ENDBRANCH   4   5
ENDBRANCH   3   4
ENDBRANCH   2   3
TORSDOF 13
ENDMDL
MODEL       54
REMARK 921   NORMALIZED FREE ENERGY PREDICTED BY IDOCK:   -4.39 KCAL/MOL
REMARK 922        TOTAL FREE ENERGY PREDICTED BY IDOCK:   -9.20 KCAL/MOL
REMARK 923 INTER-LIGAND FREE ENERGY PREDICTED BY IDOCK:   -7.89 KCAL/MOL
REMARK 924 INTRA-LIGAND FREE ENERGY PREDICTED BY IDOCK:   -1.30 KCAL/MOL
REMARK 927      BINDING AFFINITY PREDICTED BY RF-SCORE:    0.00 PKD
ROOT
HETATM    1  C   UNL     1      -9.943  16.299  68.191  1.00  0.00    -0.239 C  
HETATM    2  C   UNL     1     -10.673  15.196  68.939  1.00  0.00    -0.240 C  
ENDROOT
BRANCH   2   3
HETATM    3  C   UNL     1     -11.906  15.743  69.654  1.00  0.00    -0.352 C  
BRANCH   3   4
HETATM    4  C   UNL     1     -11.624  15.980  71.134  1.00  0.00    -0.492 C  
BRANCH   4   5
HETATM    5  C   UNL     1     -12.820  15.557  71.983  1.00  0.00    -0.500 C  
BRANCH   5   6
HETATM    6  C   UNL     1     -13.526  14.361  71.358  1.00  0.00    -0.422 C  
BRANCH   6   7
HETATM    7  C   UNL     1     -13.598  13.192  72.335  1.00  0.00    -0.667 C  
BRANCH   7   8
HETATM    8  C   UNL     1     -13.093  11.922  71.661  1.00  0.00    -0.433 C  
BRANCH   8   9
HETATM    9  C   UNL     1     -12.181  12.234  70.479  1.00  0.00    -0.387 C  
BRANCH   9  10
HETATM   10  C   UNL     1     -12.118  11.085  69.472  1.00  0.00    -0.400 C  
BRANCH  10  11
HETATM   11  C   UNL     1     -11.735  11.495  68.045  1.00  0.00    -0.343 C  
BRANCH  11  12
HETATM   12  C   UNL     1     -10.977  10.397  67.289  1.00  0.00    -0.240 C  
BRANCH  12  13
HETATM   13  N   UNL     1      -9.499  10.740  67.019  1.00  0.00    -0.163 N  
HETATM   14  C   UNL     1      -9.085  11.984  67.796  1.00  0.00    -0.187 C  
HETATM   15  C   UNL     1      -8.595   9.576  67.410  1.00  0.00    -0.125 C  
BRANCH  13  16
HETATM   16  C   UNL     1      -9.364  11.000  65.480  1.00  0.00    -0.215 C  
BRANCH  16  17
HETATM   17  C   UNL     1     -10.243  12.100  64.938  1.00  0.00    -0.309 A  
HETATM   18  C   UNL     1     -10.080  13.425  65.376  1.00  0.00    -0.270 A  
HETATM   19  C   UNL     1     -11.018  14.399  65.038  1.00  0.00    -0.398 A  
HETATM   20  C   UNL     1     -12.110  14.068  64.239  1.00  0.00    -0.476 A  
HETATM   21  C   UNL     1     -12.240  12.776  63.735  1.00  0.00    -0.572 A  
HETATM   22  C   UNL     1     -11.303  11.799  64.069  1.00  0.00    -0.461 A  
ENDBRANCH  16  17
ENDBRANCH  13  16
ENDBRANCH  12  13
ENDBRANCH  11  12
ENDBRANCH  10  11
ENDBRANCH   9  10
ENDBRANCH   8   9
ENDBRANCH   7   8
ENDBRANCH   6   7
ENDBRANCH   5   6
ENDBRANCH   4   5
ENDBRANCH   3   4
ENDBRANCH   2   3
TORSDOF 13
ENDMDL
MODEL       55
REMARK 921   NORMALIZED FREE ENERGY PREDICTED BY IDOCK:   -4.39 KCAL/MOL
REMARK 922        TOTAL FREE ENERGY PREDICTED BY IDOCK:   -9.19 KCAL/MOL
REMARK 923 INTER-LIGAND FREE ENERGY PREDICTED BY IDOCK:   -7.62 KCAL/MOL
REMARK 924 INTRA-LIGAND FREE ENERGY PREDICTED BY IDOCK:   -1.57 KCAL/MOL
REMARK 927      BINDING AFFINITY PREDICTED BY RF-SCORE:    0.00 PKD
ROOT
HETATM    1  C   UNL     1     -14.209  13.731  72.255  1.00  0.00    -0.563 C  
HETATM    2  C   UNL     1     -13.983  15.233  72.296  1.00  0.00    -0.646 C  
ENDROOT
BRANCH   2   3
HETATM    3  C   UNL     1     -12.903  15.651  71.301  1.00  0.00    -0.550 C  
BRANCH   3   4
HETATM    4  C   UNL     1     -11.865  14.549  71.120  1.00  0.00    -0.353 C  
BRANCH   4   5
HETATM    5  C   UNL     1     -11.564  14.332  69.640  1.00  0.00    -0.351 C  
BRANCH   5   6
HETATM    6  C   UNL     1     -11.751  15.626  68.858  1.00  0.00    -0.396 C  
BRANCH   6   7
HETATM    7  C   UNL     1     -10.507  15.960  68.040  1.00  0.00    -0.274 C  
BRANCH   7   8
HETATM    8  C   UNL     1      -9.319  16.174  68.968  1.00  0.00    -0.248 C  
BRANCH   8   9
HETATM    9  C   UNL     1      -8.026  15.632  68.366  1.00  0.00    -0.136 C  
BRANCH   9  10
HETATM   10  C   UNL     1      -8.283  14.651  67.222  1.00  0.00    -0.235 C  
BRANCH  10  11
HETATM   11  C   UNL     1      -7.894  13.197  67.516  1.00  0.00    -0.173 C  
BRANCH  11  12
HETATM   12  C   UNL     1      -9.024  12.398  68.178  1.00  0.00    -0.196 C  
BRANCH  12  13
HETATM   13  N   UNL     1      -9.105  10.933  67.703  1.00  0.00    -0.147 N  
HETATM   14  C   UNL     1      -8.079  10.665  66.609  1.00  0.00    -0.136 C  
HETATM   15  C   UNL     1      -8.868   9.976  68.865  1.00  0.00    -0.148 C  
BRANCH  13  16
HETATM   16  C   UNL     1     -10.553  10.714  67.145  1.00  0.00    -0.260 C  
BRANCH  16  17
HETATM   17  C   UNL     1     -10.938  11.614  65.996  1.00  0.00    -0.338 A  
HETATM   18  C   UNL     1     -11.809  12.697  66.199  1.00  0.00    -0.477 A  
HETATM   19  C   UNL     1     -12.329  13.397  65.111  1.00  0.00    -0.501 A  
HETATM   20  C   UNL     1     -11.964  13.041  63.815  1.00  0.00    -0.585 A  
HETATM   21  C   UNL     1     -11.043  12.019  63.605  1.00  0.00    -0.525 A  
HETATM   22  C   UNL     1     -10.519  11.317  64.691  1.00  0.00    -0.387 A  
ENDBRANCH  16  17
ENDBRANCH  13  16
ENDBRANCH  12  13
ENDBRANCH  11  12
ENDBRANCH  10  11
ENDBRANCH   9  10
ENDBRANCH   8   9
ENDBRANCH   7   8
ENDBRANCH   6   7
ENDBRANCH   5   6
ENDBRANCH   4   5
ENDBRANCH   3   4
ENDBRANCH   2   3
TORSDOF 13
ENDMDL
MODEL       56
REMARK 921   NORMALIZED FREE ENERGY PREDICTED BY IDOCK:   -4.39 KCAL/MOL
REMARK 922        TOTAL FREE ENERGY PREDICTED BY IDOCK:   -9.19 KCAL/MOL
REMARK 923 INTER-LIGAND FREE ENERGY PREDICTED BY IDOCK:   -7.66 KCAL/MOL
REMARK 924 INTRA-LIGAND FREE ENERGY PREDICTED BY IDOCK:   -1.53 KCAL/MOL
REMARK 927      BINDING AFFINITY PREDICTED BY RF-SCORE:    0.00 PKD
ROOT
HETATM    1  C   UNL     1     -13.133   9.932  71.401  1.00  0.00    -0.500 C  
HETATM    2  C   UNL     1     -12.647   8.700  72.146  1.00  0.00    -0.451 C  
ENDROOT
BRANCH   2   3
HETATM    3  C   UNL     1     -12.969   7.427  71.366  1.00  0.00    -0.403 C  
BRANCH   3   4
HETATM    4  C   UNL     1     -11.713   6.592  71.133  1.00  0.00    -0.399 C  
BRANCH   4   5
HETATM    5  C   UNL     1     -11.425   6.461  69.641  1.00  0.00    -0.446 C  
BRANCH   5   6
HETATM    6  C   UNL     1     -10.034   6.986  69.313  1.00  0.00    -0.163 C  
BRANCH   6   7
HETATM    7  C   UNL     1      -9.707   8.230  70.132  1.00  0.00    -0.176 C  
BRANCH   7   8
HETATM    8  C   UNL     1      -9.561   9.434  69.210  1.00  0.00    -0.171 C  
BRANCH   8   9
HETATM    9  C   UNL     1     -10.489   9.338  68.004  1.00  0.00    -0.275 C  
BRANCH   9  10
HETATM   10  C   UNL     1     -11.239  10.644  67.739  1.00  0.00    -0.383 C  
BRANCH  10  11
HETATM   11  C   UNL     1     -11.052  11.726  68.810  1.00  0.00    -0.293 C  
BRANCH  11  12
HETATM   12  C   UNL     1     -11.886  12.985  68.541  1.00  0.00    -0.325 C  
BRANCH  12  13
HETATM   13  N   UNL     1     -11.037  14.247  68.291  1.00  0.00    -0.249 N  
HETATM   14  C   UNL     1     -11.373  15.331  69.308  1.00  0.00    -0.298 C  
HETATM   15  C   UNL     1      -9.550  13.922  68.371  1.00  0.00    -0.215 C  
BRANCH  13  16
HETATM   16  C   UNL     1     -11.377  14.746  66.845  1.00  0.00    -0.355 C  
BRANCH  16  17
HETATM   17  C   UNL     1     -11.399  13.671  65.786  1.00  0.00    -0.315 A  
HETATM   18  C   UNL     1     -10.202  13.197  65.224  1.00  0.00    -0.299 A  
HETATM   19  C   UNL     1     -10.230  12.363  64.107  1.00  0.00    -0.377 A  
HETATM   20  C   UNL     1     -11.450  11.973  63.558  1.00  0.00    -0.536 A  
HETATM   21  C   UNL     1     -12.643  12.374  64.153  1.00  0.00    -0.498 A  
HETATM   22  C   UNL     1     -12.620  13.207  65.272  1.00  0.00    -0.531 A  
ENDBRANCH  16  17
ENDBRANCH  13  16
ENDBRANCH  12  13
ENDBRANCH  11  12
ENDBRANCH  10  11
ENDBRANCH   9  10
ENDBRANCH   8   9
ENDBRANCH   7   8
ENDBRANCH   6   7
ENDBRANCH   5   6
ENDBRANCH   4   5
ENDBRANCH   3   4
ENDBRANCH   2   3
TORSDOF 13
ENDMDL
MODEL       57
REMARK 921   NORMALIZED FREE ENERGY PREDICTED BY IDOCK:   -4.38 KCAL/MOL
REMARK 922        TOTAL FREE ENERGY PREDICTED BY IDOCK:   -9.18 KCAL/MOL
REMARK 923 INTER-LIGAND FREE ENERGY PREDICTED BY IDOCK:   -8.41 KCAL/MOL
REMARK 924 INTRA-LIGAND FREE ENERGY PREDICTED BY IDOCK:   -0.77 KCAL/MOL
REMARK 927      BINDING AFFINITY PREDICTED BY RF-SCORE:    0.00 PKD
ROOT
HETATM    1  C   UNL     1     -10.495   7.690  71.001  1.00  0.00    -0.218 C  
HETATM    2  C   UNL     1     -11.013   8.760  71.947  1.00  0.00    -0.435 C  
ENDROOT
BRANCH   2   3
HETATM    3  C   UNL     1     -12.509   8.590  72.199  1.00  0.00    -0.437 C  
BRANCH   3   4
HETATM    4  C   UNL     1     -13.261   9.893  71.941  1.00  0.00    -0.558 C  
BRANCH   4   5
HETATM    5  C   UNL     1     -12.685  10.613  70.726  1.00  0.00    -0.468 C  
BRANCH   5   6
HETATM    6  C   UNL     1     -12.388  12.070  71.054  1.00  0.00    -0.340 C  
BRANCH   6   7
HETATM    7  C   UNL     1     -13.397  12.626  72.054  1.00  0.00    -0.555 C  
BRANCH   7   8
HETATM    8  C   UNL     1     -13.051  14.070  72.392  1.00  0.00    -0.536 C  
BRANCH   8   9
HETATM    9  C   UNL     1     -13.457  15.025  71.274  1.00  0.00    -0.520 C  
BRANCH   9  10
HETATM   10  C   UNL     1     -12.258  15.754  70.665  1.00  0.00    -0.422 C  
BRANCH  10  11
HETATM   11  C   UNL     1     -11.953  15.391  69.207  1.00  0.00    -0.335 C  
BRANCH  11  12
HETATM   12  C   UNL     1     -10.614  14.663  69.039  1.00  0.00    -0.247 C  
BRANCH  12  13
HETATM   13  N   UNL     1      -9.690  15.303  67.984  1.00  0.00    -0.210 N  
HETATM   14  C   UNL     1      -8.619  14.316  67.537  1.00  0.00    -0.196 C  
HETATM   15  C   UNL     1     -10.492  15.763  66.772  1.00  0.00    -0.305 C  
BRANCH  13  16
HETATM   16  C   UNL     1      -9.021  16.549  68.660  1.00  0.00    -0.236 C  
BRANCH  16  17
HETATM   17  C   UNL     1      -9.196  17.851  67.918  1.00  0.00    -0.263 A  
HETATM   18  C   UNL     1     -10.390  18.582  68.030  1.00  0.00    -0.417 A  
HETATM   19  C   UNL     1     -10.634  19.667  67.189  1.00  0.00    -0.611 A  
HETATM   20  C   UNL     1      -9.679  20.049  66.250  1.00  0.00    -0.546 A  
HETATM   21  C   UNL     1      -8.460  19.380  66.182  1.00  0.00    -0.303 A  
HETATM   22  C   UNL     1      -8.211  18.295  67.023  1.00  0.00    -0.248 A  
ENDBRANCH  16  17
ENDBRANCH  13  16
ENDBRANCH  12  13
ENDBRANCH  11  12
ENDBRANCH  10  11
ENDBRANCH   9  10
ENDBRANCH   8   9
ENDBRANCH   7   8
ENDBRANCH   6   7
ENDBRANCH   5   6
ENDBRANCH   4   5
ENDBRANCH   3   4
ENDBRANCH   2   3
TORSDOF 13
ENDMDL
MODEL       58
REMARK 921   NORMALIZED FREE ENERGY PREDICTED BY IDOCK:   -4.37 KCAL/MOL
REMARK 922        TOTAL FREE ENERGY PREDICTED BY IDOCK:   -9.17 KCAL/MOL
REMARK 923 INTER-LIGAND FREE ENERGY PREDICTED BY IDOCK:   -7.23 KCAL/MOL
REMARK 924 INTRA-LIGAND FREE ENERGY PREDICTED BY IDOCK:   -1.94 KCAL/MOL
REMARK 927      BINDING AFFINITY PREDICTED BY RF-SCORE:    0.00 PKD
ROOT
HETATM    1  C   UNL     1     -13.719  15.662  72.888  1.00  0.00    -0.628 C  
HETATM    2  C   UNL     1     -14.120  14.631  71.847  1.00  0.00    -0.606 C  
ENDROOT
BRANCH   2   3
HETATM    3  C   UNL     1     -12.899  13.881  71.321  1.00  0.00    -0.435 C  
BRANCH   3   4
HETATM    4  C   UNL     1     -12.588  14.277  69.881  1.00  0.00    -0.214 C  
BRANCH   4   5
HETATM    5  C   UNL     1     -11.119  14.667  69.736  1.00  0.00    -0.268 C  
BRANCH   5   6
HETATM    6  C   UNL     1     -10.752  14.844  68.269  1.00  0.00    -0.249 C  
BRANCH   6   7
HETATM    7  C   UNL     1     -11.930  14.506  67.361  1.00  0.00    -0.367 C  
BRANCH   7   8
HETATM    8  C   UNL     1     -11.438  14.277  65.938  1.00  0.00    -0.335 C  
BRANCH   8   9
HETATM    9  C   UNL     1     -12.265  13.217  65.218  1.00  0.00    -0.492 C  
BRANCH   9  10
HETATM   10  C   UNL     1     -11.717  12.896  63.826  1.00  0.00    -0.557 C  
BRANCH  10  11
HETATM   11  C   UNL     1     -10.582  11.865  63.799  1.00  0.00    -0.475 C  
BRANCH  11  12
HETATM   12  C   UNL     1     -10.758  10.754  64.841  1.00  0.00    -0.096 C  
BRANCH  12  13
HETATM   13  N   UNL     1      -9.469  10.426  65.619  1.00  0.00    -0.196 N  
HETATM   14  C   UNL     1      -9.462   8.968  66.060  1.00  0.00    -0.256 C  
HETATM   15  C   UNL     1      -8.237  10.702  64.764  1.00  0.00    -0.038 C  
BRANCH  13  16
HETATM   16  C   UNL     1      -9.442  11.365  66.874  1.00  0.00    -0.179 C  
BRANCH  16  17
HETATM   17  C   UNL     1     -10.163  10.831  68.087  1.00  0.00    -0.194 A  
HETATM   18  C   UNL     1     -11.532  11.086  68.274  1.00  0.00    -0.374 A  
HETATM   19  C   UNL     1     -12.147  10.777  69.486  1.00  0.00    -0.344 A  
HETATM   20  C   UNL     1     -11.412  10.187  70.511  1.00  0.00    -0.417 A  
HETATM   21  C   UNL     1     -10.073   9.860  70.310  1.00  0.00    -0.295 A  
HETATM   22  C   UNL     1      -9.454  10.166  69.099  1.00  0.00    -0.215 A  
ENDBRANCH  16  17
ENDBRANCH  13  16
ENDBRANCH  12  13
ENDBRANCH  11  12
ENDBRANCH  10  11
ENDBRANCH   9  10
ENDBRANCH   8   9
ENDBRANCH   7   8
ENDBRANCH   6   7
ENDBRANCH   5   6
ENDBRANCH   4   5
ENDBRANCH   3   4
ENDBRANCH   2   3
TORSDOF 13
ENDMDL
MODEL       59
REMARK 921   NORMALIZED FREE ENERGY PREDICTED BY IDOCK:   -4.36 KCAL/MOL
REMARK 922        TOTAL FREE ENERGY PREDICTED BY IDOCK:   -9.14 KCAL/MOL
REMARK 923 INTER-LIGAND FREE ENERGY PREDICTED BY IDOCK:   -6.82 KCAL/MOL
REMARK 924 INTRA-LIGAND FREE ENERGY PREDICTED BY IDOCK:   -2.32 KCAL/MOL
REMARK 927      BINDING AFFINITY PREDICTED BY RF-SCORE:    0.00 PKD
ROOT
HETATM    1  C   UNL     1      -6.482  17.460  66.722  1.00  0.00    -0.239 C  
HETATM    2  C   UNL     1      -7.127  17.441  68.097  1.00  0.00    -0.196 C  
ENDROOT
BRANCH   2   3
HETATM    3  C   UNL     1      -7.422  18.858  68.583  1.00  0.00    -0.355 C  
BRANCH   3   4
HETATM    4  C   UNL     1      -7.503  19.835  67.414  1.00  0.00    -0.298 C  
BRANCH   4   5
HETATM    5  C   UNL     1      -8.795  20.644  67.479  1.00  0.00    -0.290 C  
BRANCH   5   6
HETATM    6  C   UNL     1      -9.814  19.960  68.380  1.00  0.00    -0.489 C  
BRANCH   6   7
HETATM    7  C   UNL     1     -10.992  19.424  67.573  1.00  0.00    -0.416 C  
BRANCH   7   8
HETATM    8  C   UNL     1     -10.806  17.936  67.311  1.00  0.00    -0.188 C  
BRANCH   8   9
HETATM    9  C   UNL     1     -10.491  17.655  65.845  1.00  0.00    -0.247 C  
BRANCH   9  10
HETATM   10  C   UNL     1      -9.947  16.242  65.626  1.00  0.00    -0.306 C  
BRANCH  10  11
HETATM   11  C   UNL     1     -10.821  15.340  64.747  1.00  0.00    -0.379 C  
BRANCH  11  12
HETATM   12  C   UNL     1     -10.428  13.860  64.829  1.00  0.00    -0.429 C  
BRANCH  12  13
HETATM   13  N   UNL     1     -11.611  12.923  65.146  1.00  0.00    -0.318 N  
HETATM   14  C   UNL     1     -12.905  13.717  65.280  1.00  0.00    -0.369 C  
HETATM   15  C   UNL     1     -11.773  11.872  64.054  1.00  0.00    -0.378 C  
BRANCH  13  16
HETATM   16  C   UNL     1     -11.277  12.210  66.500  1.00  0.00    -0.328 C  
BRANCH  16  17
HETATM   17  C   UNL     1     -10.866  13.128  67.624  1.00  0.00    -0.269 A  
HETATM   18  C   UNL     1     -11.835  13.771  68.412  1.00  0.00    -0.411 A  
HETATM   19  C   UNL     1     -11.464  14.774  69.306  1.00  0.00    -0.322 A  
HETATM   20  C   UNL     1     -10.123  15.125  69.442  1.00  0.00    -0.245 A  
HETATM   21  C   UNL     1      -9.146  14.443  68.722  1.00  0.00    -0.133 A  
HETATM   22  C   UNL     1      -9.512  13.437  67.828  1.00  0.00    -0.210 A  
ENDBRANCH  16  17
ENDBRANCH  13  16
ENDBRANCH  12  13
ENDBRANCH  11  12
ENDBRANCH  10  11
ENDBRANCH   9  10
ENDBRANCH   8   9
ENDBRANCH   7   8
ENDBRANCH   6   7
ENDBRANCH   5   6
ENDBRANCH   4   5
ENDBRANCH   3   4
ENDBRANCH   2   3
TORSDOF 13
ENDMDL
MODEL       60
REMARK 921   NORMALIZED FREE ENERGY PREDICTED BY IDOCK:   -4.35 KCAL/MOL
REMARK 922        TOTAL FREE ENERGY PREDICTED BY IDOCK:   -9.13 KCAL/MOL
REMARK 923 INTER-LIGAND FREE ENERGY PREDICTED BY IDOCK:   -8.03 KCAL/MOL
REMARK 924 INTRA-LIGAND FREE ENERGY PREDICTED BY IDOCK:   -1.11 KCAL/MOL
REMARK 927      BINDING AFFINITY PREDICTED BY RF-SCORE:    0.00 PKD
ROOT
HETATM    1  C   UNL     1     -12.964  10.384  71.618  1.00  0.00    -0.581 C  
HETATM    2  C   UNL     1     -12.950   8.870  71.744  1.00  0.00    -0.418 C  
ENDROOT
BRANCH   2   3
HETATM    3  C   UNL     1     -11.671   8.389  72.425  1.00  0.00    -0.452 C  
BRANCH   3   4
HETATM    4  C   UNL     1     -10.436   8.997  71.766  1.00  0.00    -0.418 C  
BRANCH   4   5
HETATM    5  C   UNL     1     -10.091   8.251  70.480  1.00  0.00    -0.210 C  
BRANCH   5   6
HETATM    6  C   UNL     1      -9.541   9.210  69.433  1.00  0.00    -0.165 C  
BRANCH   6   7
HETATM    7  C   UNL     1     -10.298   9.081  68.116  1.00  0.00    -0.262 C  
BRANCH   7   8
HETATM    8  C   UNL     1     -11.217  10.281  67.927  1.00  0.00    -0.290 C  
BRANCH   8   9
HETATM    9  C   UNL     1     -10.697  11.513  68.660  1.00  0.00    -0.242 C  
BRANCH   9  10
HETATM   10  C   UNL     1     -11.795  12.546  68.916  1.00  0.00    -0.346 C  
BRANCH  10  11
HETATM   11  C   UNL     1     -11.641  13.860  68.140  1.00  0.00    -0.370 C  
BRANCH  11  12
HETATM   12  C   UNL     1     -10.371  13.902  67.280  1.00  0.00    -0.257 C  
BRANCH  12  13
HETATM   13  N   UNL     1     -10.159  15.246  66.556  1.00  0.00    -0.260 N  
HETATM   14  C   UNL     1      -8.685  15.632  66.561  1.00  0.00    -0.307 C  
HETATM   15  C   UNL     1     -10.657  15.169  65.118  1.00  0.00    -0.424 C  
BRANCH  13  16
HETATM   16  C   UNL     1     -10.996  16.319  67.333  1.00  0.00    -0.175 C  
BRANCH  16  17
HETATM   17  C   UNL     1     -10.405  17.707  67.344  1.00  0.00    -0.360 A  
HETATM   18  C   UNL     1      -9.828  18.228  68.515  1.00  0.00    -0.400 A  
HETATM   19  C   UNL     1      -9.473  19.574  68.587  1.00  0.00    -0.462 A  
HETATM   20  C   UNL     1      -9.663  20.405  67.486  1.00  0.00    -0.571 A  
HETATM   21  C   UNL     1     -10.162  19.883  66.295  1.00  0.00    -0.614 A  
HETATM   22  C   UNL     1     -10.517  18.536  66.218  1.00  0.00    -0.441 A  
ENDBRANCH  16  17
ENDBRANCH  13  16
ENDBRANCH  12  13
ENDBRANCH  11  12
ENDBRANCH  10  11
ENDBRANCH   9  10
ENDBRANCH   8   9
ENDBRANCH   7   8
ENDBRANCH   6   7
ENDBRANCH   5   6
ENDBRANCH   4   5
ENDBRANCH   3   4
ENDBRANCH   2   3
TORSDOF 13
ENDMDL
MODEL       61
REMARK 921   NORMALIZED FREE ENERGY PREDICTED BY IDOCK:   -4.34 KCAL/MOL
REMARK 922        TOTAL FREE ENERGY PREDICTED BY IDOCK:   -9.11 KCAL/MOL
REMARK 923 INTER-LIGAND FREE ENERGY PREDICTED BY IDOCK:   -7.89 KCAL/MOL
REMARK 924 INTRA-LIGAND FREE ENERGY PREDICTED BY IDOCK:   -1.22 KCAL/MOL
REMARK 927      BINDING AFFINITY PREDICTED BY RF-SCORE:    0.00 PKD
ROOT
HETATM    1  C   UNL     1     -10.103   7.952  71.191  1.00  0.00    -0.210 C  
HETATM    2  C   UNL     1     -10.784   9.228  71.658  1.00  0.00    -0.393 C  
ENDROOT
BRANCH   2   3
HETATM    3  C   UNL     1     -12.258   8.979  71.968  1.00  0.00    -0.446 C  
BRANCH   3   4
HETATM    4  C   UNL     1     -13.051  10.282  71.947  1.00  0.00    -0.568 C  
BRANCH   4   5
HETATM    5  C   UNL     1     -12.666  11.126  70.735  1.00  0.00    -0.388 C  
BRANCH   5   6
HETATM    6  C   UNL     1     -12.549  12.595  71.118  1.00  0.00    -0.354 C  
BRANCH   6   7
HETATM    7  C   UNL     1     -13.577  12.971  72.179  1.00  0.00    -0.618 C  
BRANCH   7   8
HETATM    8  C   UNL     1     -13.119  14.218  72.926  1.00  0.00    -0.589 C  
BRANCH   8   9
HETATM    9  C   UNL     1     -13.358  15.485  72.111  1.00  0.00    -0.561 C  
BRANCH   9  10
HETATM   10  C   UNL     1     -12.060  16.080  71.564  1.00  0.00    -0.513 C  
BRANCH  10  11
HETATM   11  C   UNL     1     -11.853  15.908  70.054  1.00  0.00    -0.322 C  
BRANCH  11  12
HETATM   12  C   UNL     1     -10.401  16.135  69.619  1.00  0.00    -0.271 C  
BRANCH  12  13
HETATM   13  N   UNL     1     -10.210  16.158  68.090  1.00  0.00    -0.241 N  
HETATM   14  C   UNL     1     -10.445  17.560  67.540  1.00  0.00    -0.355 C  
HETATM   15  C   UNL     1      -8.807  15.697  67.714  1.00  0.00    -0.171 C  
BRANCH  13  16
HETATM   16  C   UNL     1     -11.257  15.162  67.484  1.00  0.00    -0.330 C  
BRANCH  16  17
HETATM   17  C   UNL     1     -10.730  13.780  67.188  1.00  0.00    -0.283 A  
HETATM   18  C   UNL     1     -10.554  13.352  65.862  1.00  0.00    -0.286 A  
HETATM   19  C   UNL     1     -10.270  12.016  65.585  1.00  0.00    -0.284 A  
HETATM   20  C   UNL     1     -10.129  11.102  66.627  1.00  0.00    -0.256 A  
HETATM   21  C   UNL     1     -10.225  11.530  67.948  1.00  0.00    -0.200 A  
HETATM   22  C   UNL     1     -10.508  12.867  68.230  1.00  0.00    -0.250 A  
ENDBRANCH  16  17
ENDBRANCH  13  16
ENDBRANCH  12  13
ENDBRANCH  11  12
ENDBRANCH  10  11
ENDBRANCH   9  10
ENDBRANCH   8   9
ENDBRANCH   7   8
ENDBRANCH   6   7
ENDBRANCH   5   6
ENDBRANCH   4   5
ENDBRANCH   3   4
ENDBRANCH   2   3
TORSDOF 13
ENDMDL
MODEL       62
REMARK 921   NORMALIZED FREE ENERGY PREDICTED BY IDOCK:   -4.33 KCAL/MOL
REMARK 922        TOTAL FREE ENERGY PREDICTED BY IDOCK:   -9.10 KCAL/MOL
REMARK 923 INTER-LIGAND FREE ENERGY PREDICTED BY IDOCK:   -7.90 KCAL/MOL
REMARK 924 INTRA-LIGAND FREE ENERGY PREDICTED BY IDOCK:   -1.19 KCAL/MOL
REMARK 927      BINDING AFFINITY PREDICTED BY RF-SCORE:    0.00 PKD
ROOT
HETATM    1  C   UNL     1     -12.278  12.540  63.468  1.00  0.00    -0.652 C  
HETATM    2  C   UNL     1     -10.799  12.289  63.714  1.00  0.00    -0.495 C  
ENDROOT
BRANCH   2   3
HETATM    3  C   UNL     1     -10.596  11.155  64.716  1.00  0.00    -0.371 C  
BRANCH   3   4
HETATM    4  C   UNL     1      -9.490  11.492  65.711  1.00  0.00    -0.255 C  
BRANCH   4   5
HETATM    5  C   UNL     1      -9.833  10.954  67.098  1.00  0.00    -0.213 C  
BRANCH   5   6
HETATM    6  C   UNL     1     -11.286  11.249  67.445  1.00  0.00    -0.349 C  
BRANCH   6   7
HETATM    7  C   UNL     1     -11.387  12.286  68.558  1.00  0.00    -0.332 C  
BRANCH   7   8
HETATM    8  C   UNL     1     -11.992  13.573  68.013  1.00  0.00    -0.372 C  
BRANCH   8   9
HETATM    9  C   UNL     1     -10.920  14.607  67.684  1.00  0.00    -0.296 C  
BRANCH   9  10
HETATM   10  C   UNL     1     -10.929  15.007  66.207  1.00  0.00    -0.338 C  
BRANCH  10  11
HETATM   11  C   UNL     1      -9.917  16.093  65.824  1.00  0.00    -0.370 C  
BRANCH  11  12
HETATM   12  C   UNL     1     -10.531  17.499  65.794  1.00  0.00    -0.207 C  
BRANCH  12  13
HETATM   13  N   UNL     1      -9.906  18.468  66.816  1.00  0.00    -0.323 N  
HETATM   14  C   UNL     1     -10.355  19.899  66.544  1.00  0.00    -0.488 C  
HETATM   15  C   UNL     1     -10.294  18.078  68.237  1.00  0.00    -0.380 C  
BRANCH  13  16
HETATM   16  C   UNL     1      -8.351  18.357  66.660  1.00  0.00    -0.265 C  
BRANCH  16  17
HETATM   17  C   UNL     1      -7.553  19.342  67.477  1.00  0.00    -0.282 A  
HETATM   18  C   UNL     1      -6.972  20.468  66.870  1.00  0.00    -0.342 A  
HETATM   19  C   UNL     1      -6.067  21.260  67.574  1.00  0.00    -0.435 A  
HETATM   20  C   UNL     1      -5.755  20.954  68.897  1.00  0.00    -0.379 A  
HETATM   21  C   UNL     1      -6.383  19.886  69.533  1.00  0.00    -0.382 A  
HETATM   22  C   UNL     1      -7.290  19.092  68.832  1.00  0.00    -0.379 A  
ENDBRANCH  16  17
ENDBRANCH  13  16
ENDBRANCH  12  13
ENDBRANCH  11  12
ENDBRANCH  10  11
ENDBRANCH   9  10
ENDBRANCH   8   9
ENDBRANCH   7   8
ENDBRANCH   6   7
ENDBRANCH   5   6
ENDBRANCH   4   5
ENDBRANCH   3   4
ENDBRANCH   2   3
TORSDOF 13
ENDMDL
MODEL       63
REMARK 921   NORMALIZED FREE ENERGY PREDICTED BY IDOCK:   -4.33 KCAL/MOL
REMARK 922        TOTAL FREE ENERGY PREDICTED BY IDOCK:   -9.08 KCAL/MOL
REMARK 923 INTER-LIGAND FREE ENERGY PREDICTED BY IDOCK:   -6.87 KCAL/MOL
REMARK 924 INTRA-LIGAND FREE ENERGY PREDICTED BY IDOCK:   -2.22 KCAL/MOL
REMARK 927      BINDING AFFINITY PREDICTED BY RF-SCORE:    0.00 PKD
ROOT
HETATM    1  C   UNL     1     -10.492  14.505  64.774  1.00  0.00    -0.365 C  
HETATM    2  C   UNL     1     -11.771  13.690  64.679  1.00  0.00    -0.414 C  
ENDROOT
BRANCH   2   3
HETATM    3  C   UNL     1     -12.544  13.728  65.995  1.00  0.00    -0.458 C  
BRANCH   3   4
HETATM    4  C   UNL     1     -11.776  14.503  67.062  1.00  0.00    -0.412 C  
BRANCH   4   5
HETATM    5  C   UNL     1     -11.721  13.711  68.365  1.00  0.00    -0.393 C  
BRANCH   5   6
HETATM    6  C   UNL     1     -11.875  12.220  68.096  1.00  0.00    -0.372 C  
BRANCH   6   7
HETATM    7  C   UNL     1     -10.552  11.486  68.292  1.00  0.00    -0.228 C  
BRANCH   7   8
HETATM    8  C   UNL     1      -9.973  11.091  66.940  1.00  0.00    -0.231 C  
BRANCH   8   9
HETATM    9  C   UNL     1      -8.713  11.884  66.611  1.00  0.00    -0.185 C  
BRANCH   9  10
HETATM   10  C   UNL     1      -8.235  12.735  67.789  1.00  0.00    -0.176 C  
BRANCH  10  11
HETATM   11  C   UNL     1      -7.707  14.124  67.411  1.00  0.00    -0.189 C  
BRANCH  11  12
HETATM   12  C   UNL     1      -7.049  14.855  68.588  1.00  0.00    -0.111 C  
BRANCH  12  13
HETATM   13  N   UNL     1      -7.153  16.390  68.500  1.00  0.00    -0.149 N  
HETATM   14  C   UNL     1      -6.282  17.050  69.561  1.00  0.00    -0.237 C  
HETATM   15  C   UNL     1      -6.729  16.881  67.120  1.00  0.00    -0.186 C  
BRANCH  13  16
HETATM   16  C   UNL     1      -8.658  16.759  68.736  1.00  0.00    -0.255 C  
BRANCH  16  17
HETATM   17  C   UNL     1      -9.186  17.875  67.870  1.00  0.00    -0.263 A  
HETATM   18  C   UNL     1      -9.101  19.211  68.297  1.00  0.00    -0.385 A  
HETATM   19  C   UNL     1      -9.771  20.217  67.602  1.00  0.00    -0.551 A  
HETATM   20  C   UNL     1     -10.507  19.905  66.461  1.00  0.00    -0.589 A  
HETATM   21  C   UNL     1     -10.537  18.597  65.986  1.00  0.00    -0.410 A  
HETATM   22  C   UNL     1      -9.866  17.587  66.677  1.00  0.00    -0.308 A  
ENDBRANCH  16  17
ENDBRANCH  13  16
ENDBRANCH  12  13
ENDBRANCH  11  12
ENDBRANCH  10  11
ENDBRANCH   9  10
ENDBRANCH   8   9
ENDBRANCH   7   8
ENDBRANCH   6   7
ENDBRANCH   5   6
ENDBRANCH   4   5
ENDBRANCH   3   4
ENDBRANCH   2   3
TORSDOF 13
ENDMDL
MODEL       64
REMARK 921   NORMALIZED FREE ENERGY PREDICTED BY IDOCK:   -4.31 KCAL/MOL
REMARK 922        TOTAL FREE ENERGY PREDICTED BY IDOCK:   -9.05 KCAL/MOL
REMARK 923 INTER-LIGAND FREE ENERGY PREDICTED BY IDOCK:   -6.64 KCAL/MOL
REMARK 924 INTRA-LIGAND FREE ENERGY PREDICTED BY IDOCK:   -2.42 KCAL/MOL
REMARK 927      BINDING AFFINITY PREDICTED BY RF-SCORE:    0.00 PKD
ROOT
HETATM    1  C   UNL     1     -12.890  12.008  63.907  1.00  0.00    -0.400 C  
HETATM    2  C   UNL     1     -11.730  12.828  63.368  1.00  0.00    -0.556 C  
ENDROOT
BRANCH   2   3
HETATM    3  C   UNL     1     -10.392  12.231  63.797  1.00  0.00    -0.464 C  
BRANCH   3   4
HETATM    4  C   UNL     1     -10.595  10.977  64.642  1.00  0.00    -0.369 C  
BRANCH   4   5
HETATM    5  C   UNL     1      -9.445   9.996  64.431  1.00  0.00    -0.349 C  
BRANCH   5   6
HETATM    6  C   UNL     1      -8.943   9.459  65.765  1.00  0.00    -0.227 C  
BRANCH   6   7
HETATM    7  C   UNL     1      -9.655  10.134  66.933  1.00  0.00    -0.219 C  
BRANCH   7   8
HETATM    8  C   UNL     1      -8.656  10.939  67.754  1.00  0.00    -0.128 C  
BRANCH   8   9
HETATM    9  C   UNL     1      -8.281  12.246  67.064  1.00  0.00    -0.155 C  
BRANCH   9  10
HETATM   10  C   UNL     1      -7.947  13.357  68.061  1.00  0.00    -0.148 C  
BRANCH  10  11
HETATM   11  C   UNL     1      -7.600  14.711  67.431  1.00  0.00    -0.218 C  
BRANCH  11  12
HETATM   12  C   UNL     1      -8.791  15.361  66.716  1.00  0.00    -0.269 C  
BRANCH  12  13
HETATM   13  N   UNL     1      -9.234  16.698  67.343  1.00  0.00    -0.212 N  
HETATM   14  C   UNL     1      -8.544  16.917  68.684  1.00  0.00    -0.267 C  
HETATM   15  C   UNL     1      -8.914  17.862  66.413  1.00  0.00    -0.227 C  
BRANCH  13  16
HETATM   16  C   UNL     1     -10.785  16.615  67.547  1.00  0.00    -0.278 C  
BRANCH  16  17
HETATM   17  C   UNL     1     -11.306  15.257  67.948  1.00  0.00    -0.339 A  
HETATM   18  C   UNL     1     -11.374  14.890  69.302  1.00  0.00    -0.315 A  
HETATM   19  C   UNL     1     -11.654  13.573  69.662  1.00  0.00    -0.340 A  
HETATM   20  C   UNL     1     -11.897  12.617  68.678  1.00  0.00    -0.342 A  
HETATM   21  C   UNL     1     -11.907  12.986  67.335  1.00  0.00    -0.411 A  
HETATM   22  C   UNL     1     -11.629  14.303  66.971  1.00  0.00    -0.406 A  
ENDBRANCH  16  17
ENDBRANCH  13  16
ENDBRANCH  12  13
ENDBRANCH  11  12
ENDBRANCH  10  11
ENDBRANCH   9  10
ENDBRANCH   8   9
ENDBRANCH   7   8
ENDBRANCH   6   7
ENDBRANCH   5   6
ENDBRANCH   4   5
ENDBRANCH   3   4
ENDBRANCH   2   3
TORSDOF 13
ENDMDL
MODEL       65
REMARK 921   NORMALIZED FREE ENERGY PREDICTED BY IDOCK:   -4.30 KCAL/MOL
REMARK 922        TOTAL FREE ENERGY PREDICTED BY IDOCK:   -9.04 KCAL/MOL
REMARK 923 INTER-LIGAND FREE ENERGY PREDICTED BY IDOCK:   -7.30 KCAL/MOL
REMARK 924 INTRA-LIGAND FREE ENERGY PREDICTED BY IDOCK:   -1.75 KCAL/MOL
REMARK 927      BINDING AFFINITY PREDICTED BY RF-SCORE:    0.00 PKD
ROOT
HETATM    1  C   UNL     1     -10.615   7.001  68.165  1.00  0.00    -0.250 C  
HETATM    2  C   UNL     1     -11.243   6.332  69.377  1.00  0.00    -0.489 C  
ENDROOT
BRANCH   2   3
HETATM    3  C   UNL     1     -11.184   7.246  70.598  1.00  0.00    -0.300 C  
BRANCH   3   4
HETATM    4  C   UNL     1     -12.515   7.252  71.345  1.00  0.00    -0.418 C  
BRANCH   4   5
HETATM    5  C   UNL     1     -12.893   8.672  71.757  1.00  0.00    -0.397 C  
BRANCH   5   6
HETATM    6  C   UNL     1     -11.828   9.664  71.308  1.00  0.00    -0.460 C  
BRANCH   6   7
HETATM    7  C   UNL     1     -12.458  10.959  70.806  1.00  0.00    -0.489 C  
BRANCH   7   8
HETATM    8  C   UNL     1     -11.724  11.444  69.563  1.00  0.00    -0.417 C  
BRANCH   8   9
HETATM    9  C   UNL     1     -10.334  10.826  69.450  1.00  0.00    -0.207 C  
BRANCH   9  10
HETATM   10  C   UNL     1      -9.809  10.830  68.014  1.00  0.00    -0.180 C  
BRANCH  10  11
HETATM   11  C   UNL     1     -10.869  11.093  66.938  1.00  0.00    -0.333 C  
BRANCH  11  12
HETATM   12  C   UNL     1     -10.264  11.489  65.585  1.00  0.00    -0.248 C  
BRANCH  12  13
HETATM   13  N   UNL     1     -11.112  12.511  64.804  1.00  0.00    -0.291 N  
HETATM   14  C   UNL     1     -11.236  12.101  63.342  1.00  0.00    -0.414 C  
HETATM   15  C   UNL     1     -12.503  12.637  65.414  1.00  0.00    -0.355 C  
BRANCH  13  16
HETATM   16  C   UNL     1     -10.377  13.891  64.913  1.00  0.00    -0.406 C  
BRANCH  16  17
HETATM   17  C   UNL     1     -10.198  14.412  66.317  1.00  0.00    -0.307 A  
HETATM   18  C   UNL     1      -8.966  14.276  66.978  1.00  0.00    -0.251 A  
HETATM   19  C   UNL     1      -8.860  14.564  68.338  1.00  0.00    -0.180 A  
HETATM   20  C   UNL     1      -9.973  15.017  69.043  1.00  0.00    -0.246 A  
HETATM   21  C   UNL     1     -11.179  15.229  68.382  1.00  0.00    -0.314 A  
HETATM   22  C   UNL     1     -11.290  14.944  67.021  1.00  0.00    -0.345 A  
ENDBRANCH  16  17
ENDBRANCH  13  16
ENDBRANCH  12  13
ENDBRANCH  11  12
ENDBRANCH  10  11
ENDBRANCH   9  10
ENDBRANCH   8   9
ENDBRANCH   7   8
ENDBRANCH   6   7
ENDBRANCH   5   6
ENDBRANCH   4   5
ENDBRANCH   3   4
ENDBRANCH   2   3
TORSDOF 13
ENDMDL
MODEL       66
REMARK 921   NORMALIZED FREE ENERGY PREDICTED BY IDOCK:   -4.30 KCAL/MOL
REMARK 922        TOTAL FREE ENERGY PREDICTED BY IDOCK:   -9.04 KCAL/MOL
REMARK 923 INTER-LIGAND FREE ENERGY PREDICTED BY IDOCK:   -7.76 KCAL/MOL
REMARK 924 INTRA-LIGAND FREE ENERGY PREDICTED BY IDOCK:   -1.28 KCAL/MOL
REMARK 927      BINDING AFFINITY PREDICTED BY RF-SCORE:    0.00 PKD
ROOT
HETATM    1  C   UNL     1      -6.723  16.829  66.636  1.00  0.00    -0.241 C  
HETATM    2  C   UNL     1      -5.914  18.057  66.257  1.00  0.00    -0.225 C  
ENDROOT
BRANCH   2   3
HETATM    3  C   UNL     1      -6.817  19.160  65.710  1.00  0.00    -0.307 C  
BRANCH   3   4
HETATM    4  C   UNL     1      -6.982  20.289  66.724  1.00  0.00    -0.293 C  
BRANCH   4   5
HETATM    5  C   UNL     1      -8.393  20.287  67.304  1.00  0.00    -0.404 C  
BRANCH   5   6
HETATM    6  C   UNL     1      -9.430  20.429  66.197  1.00  0.00    -0.255 C  
BRANCH   6   7
HETATM    7  C   UNL     1     -10.645  19.547  66.464  1.00  0.00    -0.579 C  
BRANCH   7   8
HETATM    8  C   UNL     1     -10.509  18.876  67.825  1.00  0.00    -0.487 C  
BRANCH   8   9
HETATM    9  C   UNL     1     -10.546  17.355  67.711  1.00  0.00    -0.371 C  
BRANCH   9  10
HETATM   10  C   UNL     1     -10.374  16.874  66.269  1.00  0.00    -0.312 C  
BRANCH  10  11
HETATM   11  C   UNL     1     -10.293  15.352  66.100  1.00  0.00    -0.325 C  
BRANCH  11  12
HETATM   12  C   UNL     1     -11.527  14.622  66.645  1.00  0.00    -0.357 C  
BRANCH  12  13
HETATM   13  N   UNL     1     -11.206  13.622  67.773  1.00  0.00    -0.274 N  
HETATM   14  C   UNL     1      -9.703  13.542  68.009  1.00  0.00    -0.228 C  
HETATM   15  C   UNL     1     -11.901  14.028  69.068  1.00  0.00    -0.354 C  
BRANCH  13  16
HETATM   16  C   UNL     1     -11.751  12.227  67.314  1.00  0.00    -0.324 C  
BRANCH  16  17
HETATM   17  C   UNL     1     -11.435  11.855  65.886  1.00  0.00    -0.340 A  
HETATM   18  C   UNL     1     -10.271  11.131  65.578  1.00  0.00    -0.319 A  
HETATM   19  C   UNL     1      -9.873  10.969  64.252  1.00  0.00    -0.355 A  
HETATM   20  C   UNL     1     -10.645  11.502  63.222  1.00  0.00    -0.405 A  
HETATM   21  C   UNL     1     -11.840  12.155  63.511  1.00  0.00    -0.597 A  
HETATM   22  C   UNL     1     -12.244  12.317  64.836  1.00  0.00    -0.410 A  
ENDBRANCH  16  17
ENDBRANCH  13  16
ENDBRANCH  12  13
ENDBRANCH  11  12
ENDBRANCH  10  11
ENDBRANCH   9  10
ENDBRANCH   8   9
ENDBRANCH   7   8
ENDBRANCH   6   7
ENDBRANCH   5   6
ENDBRANCH   4   5
ENDBRANCH   3   4
ENDBRANCH   2   3
TORSDOF 13
ENDMDL
MODEL       67
REMARK 921   NORMALIZED FREE ENERGY PREDICTED BY IDOCK:   -4.29 KCAL/MOL
REMARK 922        TOTAL FREE ENERGY PREDICTED BY IDOCK:   -9.02 KCAL/MOL
REMARK 923 INTER-LIGAND FREE ENERGY PREDICTED BY IDOCK:   -7.38 KCAL/MOL
REMARK 924 INTRA-LIGAND FREE ENERGY PREDICTED BY IDOCK:   -1.64 KCAL/MOL
REMARK 927      BINDING AFFINITY PREDICTED BY RF-SCORE:    0.00 PKD
ROOT
HETATM    1  C   UNL     1     -11.197   6.129  72.581  1.00  0.00    -0.312 C  
HETATM    2  C   UNL     1     -11.112   7.598  72.960  1.00  0.00    -0.437 C  
ENDROOT
BRANCH   2   3
HETATM    3  C   UNL     1     -12.111   8.429  72.159  1.00  0.00    -0.435 C  
BRANCH   3   4
HETATM    4  C   UNL     1     -11.415   9.578  71.436  1.00  0.00    -0.462 C  
BRANCH   4   5
HETATM    5  C   UNL     1     -12.311  10.813  71.403  1.00  0.00    -0.433 C  
BRANCH   5   6
HETATM    6  C   UNL     1     -12.177  11.541  70.072  1.00  0.00    -0.354 C  
BRANCH   6   7
HETATM    7  C   UNL     1     -11.731  10.589  68.967  1.00  0.00    -0.242 C  
BRANCH   7   8
HETATM    8  C   UNL     1     -11.353  11.382  67.723  1.00  0.00    -0.354 C  
BRANCH   8   9
HETATM    9  C   UNL     1     -10.064  10.864  67.092  1.00  0.00    -0.235 C  
BRANCH   9  10
HETATM   10  C   UNL     1      -8.883  11.809  67.317  1.00  0.00    -0.167 C  
BRANCH  10  11
HETATM   11  C   UNL     1      -9.249  13.169  67.923  1.00  0.00    -0.207 C  
BRANCH  11  12
HETATM   12  C   UNL     1      -8.966  14.342  66.976  1.00  0.00    -0.236 C  
BRANCH  12  13
HETATM   13  N   UNL     1     -10.095  15.390  66.935  1.00  0.00    -0.253 N  
HETATM   14  C   UNL     1     -11.203  15.025  67.916  1.00  0.00    -0.323 C  
HETATM   15  C   UNL     1      -9.558  16.776  67.272  1.00  0.00    -0.234 C  
BRANCH  13  16
HETATM   16  C   UNL     1     -10.657  15.399  65.472  1.00  0.00    -0.383 C  
BRANCH  16  17
HETATM   17  C   UNL     1     -11.135  14.062  64.962  1.00  0.00    -0.364 A  
HETATM   18  C   UNL     1     -10.269  13.221  64.243  1.00  0.00    -0.221 A  
HETATM   19  C   UNL     1     -10.763  12.090  63.595  1.00  0.00    -0.506 A  
HETATM   20  C   UNL     1     -12.117  11.772  63.681  1.00  0.00    -0.486 A  
HETATM   21  C   UNL     1     -12.970  12.556  64.453  1.00  0.00    -0.248 A  
HETATM   22  C   UNL     1     -12.480  13.688  65.105  1.00  0.00    -0.488 A  
ENDBRANCH  16  17
ENDBRANCH  13  16
ENDBRANCH  12  13
ENDBRANCH  11  12
ENDBRANCH  10  11
ENDBRANCH   9  10
ENDBRANCH   8   9
ENDBRANCH   7   8
ENDBRANCH   6   7
ENDBRANCH   5   6
ENDBRANCH   4   5
ENDBRANCH   3   4
ENDBRANCH   2   3
TORSDOF 13
ENDMDL
MODEL       68
REMARK 921   NORMALIZED FREE ENERGY PREDICTED BY IDOCK:   -4.28 KCAL/MOL
REMARK 922        TOTAL FREE ENERGY PREDICTED BY IDOCK:   -9.01 KCAL/MOL
REMARK 923 INTER-LIGAND FREE ENERGY PREDICTED BY IDOCK:   -7.47 KCAL/MOL
REMARK 924 INTRA-LIGAND FREE ENERGY PREDICTED BY IDOCK:   -1.53 KCAL/MOL
REMARK 927      BINDING AFFINITY PREDICTED BY RF-SCORE:    0.00 PKD
ROOT
HETATM    1  C   UNL     1      -9.634   7.248  67.792  1.00  0.00    -0.158 C  
HETATM    2  C   UNL     1     -10.996   6.580  67.891  1.00  0.00    -0.382 C  
ENDROOT
BRANCH   2   3
HETATM    3  C   UNL     1     -11.279   6.121  69.319  1.00  0.00    -0.438 C  
BRANCH   3   4
HETATM    4  C   UNL     1     -10.048   6.288  70.204  1.00  0.00    -0.222 C  
BRANCH   4   5
HETATM    5  C   UNL     1     -10.441   6.276  71.678  1.00  0.00    -0.258 C  
BRANCH   5   6
HETATM    6  C   UNL     1     -11.891   6.709  71.852  1.00  0.00    -0.375 C  
BRANCH   6   7
HETATM    7  C   UNL     1     -11.981   8.170  72.282  1.00  0.00    -0.434 C  
BRANCH   7   8
HETATM    8  C   UNL     1     -13.033   8.891  71.449  1.00  0.00    -0.323 C  
BRANCH   8   9
HETATM    9  C   UNL     1     -12.488  10.181  70.845  1.00  0.00    -0.455 C  
BRANCH   9  10
HETATM   10  C   UNL     1     -11.155   9.970  70.125  1.00  0.00    -0.371 C  
BRANCH  10  11
HETATM   11  C   UNL     1     -11.057  10.621  68.740  1.00  0.00    -0.316 C  
BRANCH  11  12
HETATM   12  C   UNL     1     -10.511  12.053  68.788  1.00  0.00    -0.183 C  
BRANCH  12  13
HETATM   13  N   UNL     1     -10.842  12.883  67.533  1.00  0.00    -0.232 N  
HETATM   14  C   UNL     1      -9.620  13.665  67.067  1.00  0.00    -0.251 C  
HETATM   15  C   UNL     1     -11.327  11.983  66.402  1.00  0.00    -0.354 C  
BRANCH  13  16
HETATM   16  C   UNL     1     -11.991  13.872  67.930  1.00  0.00    -0.358 C  
BRANCH  16  17
HETATM   17  C   UNL     1     -11.914  14.411  69.337  1.00  0.00    -0.370 A  
HETATM   18  C   UNL     1     -12.531  13.726  70.398  1.00  0.00    -0.384 A  
HETATM   19  C   UNL     1     -12.641  14.323  71.653  1.00  0.00    -0.431 A  
HETATM   20  C   UNL     1     -12.112  15.594  71.869  1.00  0.00    -0.513 A  
HETATM   21  C   UNL     1     -11.431  16.250  70.847  1.00  0.00    -0.336 A  
HETATM   22  C   UNL     1     -11.318  15.655  69.590  1.00  0.00    -0.331 A  
ENDBRANCH  16  17
ENDBRANCH  13  16
ENDBRANCH  12  13
ENDBRANCH  11  12
ENDBRANCH  10  11
ENDBRANCH   9  10
ENDBRANCH   8   9
ENDBRANCH   7   8
ENDBRANCH   6   7
ENDBRANCH   5   6
ENDBRANCH   4   5
ENDBRANCH   3   4
ENDBRANCH   2   3
TORSDOF 13
ENDMDL
MODEL       69
REMARK 921   NORMALIZED FREE ENERGY PREDICTED BY IDOCK:   -4.27 KCAL/MOL
REMARK 922        TOTAL FREE ENERGY PREDICTED BY IDOCK:   -8.99 KCAL/MOL
REMARK 923 INTER-LIGAND FREE ENERGY PREDICTED BY IDOCK:   -7.96 KCAL/MOL
REMARK 924 INTRA-LIGAND FREE ENERGY PREDICTED BY IDOCK:   -1.03 KCAL/MOL
REMARK 927      BINDING AFFINITY PREDICTED BY RF-SCORE:    0.00 PKD
ROOT
HETATM    1  C   UNL     1     -13.557  15.707  72.857  1.00  0.00    -0.658 C  
HETATM    2  C   UNL     1     -13.911  14.712  71.765  1.00  0.00    -0.530 C  
ENDROOT
BRANCH   2   3
HETATM    3  C   UNL     1     -13.850  13.280  72.289  1.00  0.00    -0.637 C  
BRANCH   3   4
HETATM    4  C   UNL     1     -12.820  12.457  71.522  1.00  0.00    -0.377 C  
BRANCH   4   5
HETATM    5  C   UNL     1     -13.079  10.964  71.708  1.00  0.00    -0.564 C  
BRANCH   5   6
HETATM    6  C   UNL     1     -11.880  10.148  71.244  1.00  0.00    -0.448 C  
BRANCH   6   7
HETATM    7  C   UNL     1     -12.144   8.653  71.385  1.00  0.00    -0.351 C  
BRANCH   7   8
HETATM    8  C   UNL     1     -10.870   7.872  71.090  1.00  0.00    -0.257 C  
BRANCH   8   9
HETATM    9  C   UNL     1     -11.088   6.822  70.005  1.00  0.00    -0.366 C  
BRANCH   9  10
HETATM   10  C   UNL     1     -10.076   6.941  68.865  1.00  0.00    -0.174 C  
BRANCH  10  11
HETATM   11  C   UNL     1     -10.532   7.804  67.682  1.00  0.00    -0.308 C  
BRANCH  11  12
HETATM   12  C   UNL     1      -9.362   8.421  66.905  1.00  0.00    -0.174 C  
BRANCH  12  13
HETATM   13  N   UNL     1      -9.625   9.865  66.434  1.00  0.00    -0.188 N  
HETATM   14  C   UNL     1      -8.553  10.808  66.966  1.00  0.00    -0.130 C  
HETATM   15  C   UNL     1      -9.655   9.939  64.912  1.00  0.00    -0.288 C  
BRANCH  13  16
HETATM   16  C   UNL     1     -11.029  10.279  66.996  1.00  0.00    -0.119 C  
BRANCH  16  17
HETATM   17  C   UNL     1     -11.323  11.758  66.956  1.00  0.00    -0.387 A  
HETATM   18  C   UNL     1     -11.310  12.520  68.137  1.00  0.00    -0.343 A  
HETATM   19  C   UNL     1     -11.783  13.831  68.134  1.00  0.00    -0.392 A  
HETATM   20  C   UNL     1     -12.245  14.403  66.951  1.00  0.00    -0.300 A  
HETATM   21  C   UNL     1     -12.191  13.684  65.760  1.00  0.00    -0.503 A  
HETATM   22  C   UNL     1     -11.717  12.372  65.758  1.00  0.00    -0.470 A  
ENDBRANCH  16  17
ENDBRANCH  13  16
ENDBRANCH  12  13
ENDBRANCH  11  12
ENDBRANCH  10  11
ENDBRANCH   9  10
ENDBRANCH   8   9
ENDBRANCH   7   8
ENDBRANCH   6   7
ENDBRANCH   5   6
ENDBRANCH   4   5
ENDBRANCH   3   4
ENDBRANCH   2   3
TORSDOF 13
ENDMDL
MODEL       70
REMARK 921   NORMALIZED FREE ENERGY PREDICTED BY IDOCK:   -4.27 KCAL/MOL
REMARK 922        TOTAL FREE ENERGY PREDICTED BY IDOCK:   -8.99 KCAL/MOL
REMARK 923 INTER-LIGAND FREE ENERGY PREDICTED BY IDOCK:   -8.29 KCAL/MOL
REMARK 924 INTRA-LIGAND FREE ENERGY PREDICTED BY IDOCK:   -0.69 KCAL/MOL
REMARK 927      BINDING AFFINITY PREDICTED BY RF-SCORE:    0.00 PKD
ROOT
HETATM    1  C   UNL     1      -9.899   4.866  70.605  1.00  0.00    -0.289 C  
HETATM    2  C   UNL     1     -10.749   5.767  69.726  1.00  0.00    -0.418 C  
ENDROOT
BRANCH   2   3
HETATM    3  C   UNL     1     -11.658   6.656  70.571  1.00  0.00    -0.448 C  
BRANCH   3   4
HETATM    4  C   UNL     1     -11.161   8.099  70.581  1.00  0.00    -0.264 C  
BRANCH   4   5
HETATM    5  C   UNL     1     -11.245   8.686  71.987  1.00  0.00    -0.434 C  
BRANCH   5   6
HETATM    6  C   UNL     1     -12.685   9.034  72.339  1.00  0.00    -0.433 C  
BRANCH   6   7
HETATM    7  C   UNL     1     -13.276  10.016  71.332  1.00  0.00    -0.486 C  
BRANCH   7   8
HETATM    8  C   UNL     1     -12.538  11.346  71.411  1.00  0.00    -0.439 C  
BRANCH   8   9
HETATM    9  C   UNL     1     -13.357  12.404  72.144  1.00  0.00    -0.508 C  
BRANCH   9  10
HETATM   10  C   UNL     1     -13.135  13.808  71.579  1.00  0.00    -0.435 C  
BRANCH  10  11
HETATM   11  C   UNL     1     -12.249  13.870  70.329  1.00  0.00    -0.428 C  
BRANCH  11  12
HETATM   12  C   UNL     1     -11.287  15.064  70.335  1.00  0.00    -0.270 C  
BRANCH  12  13
HETATM   13  N   UNL     1     -10.522  15.249  69.010  1.00  0.00    -0.238 N  
HETATM   14  C   UNL     1     -11.264  16.211  68.091  1.00  0.00    -0.311 C  
HETATM   15  C   UNL     1      -9.116  15.779  69.268  1.00  0.00    -0.263 C  
BRANCH  13  16
HETATM   16  C   UNL     1     -10.423  13.836  68.340  1.00  0.00    -0.252 C  
BRANCH  16  17
HETATM   17  C   UNL     1     -10.913  13.769  66.914  1.00  0.00    -0.296 A  
HETATM   18  C   UNL     1     -12.229  13.369  66.630  1.00  0.00    -0.391 A  
HETATM   19  C   UNL     1     -12.618  13.105  65.317  1.00  0.00    -0.531 A  
HETATM   20  C   UNL     1     -11.707  13.265  64.275  1.00  0.00    -0.454 A  
HETATM   21  C   UNL     1     -10.423  13.735  64.537  1.00  0.00    -0.378 A  
HETATM   22  C   UNL     1     -10.031  14.001  65.848  1.00  0.00    -0.325 A  
ENDBRANCH  16  17
ENDBRANCH  13  16
ENDBRANCH  12  13
ENDBRANCH  11  12
ENDBRANCH  10  11
ENDBRANCH   9  10
ENDBRANCH   8   9
ENDBRANCH   7   8
ENDBRANCH   6   7
ENDBRANCH   5   6
ENDBRANCH   4   5
ENDBRANCH   3   4
ENDBRANCH   2   3
TORSDOF 13
ENDMDL
MODEL       71
REMARK 921   NORMALIZED FREE ENERGY PREDICTED BY IDOCK:   -4.26 KCAL/MOL
REMARK 922        TOTAL FREE ENERGY PREDICTED BY IDOCK:   -8.98 KCAL/MOL
REMARK 923 INTER-LIGAND FREE ENERGY PREDICTED BY IDOCK:   -7.38 KCAL/MOL
REMARK 924 INTRA-LIGAND FREE ENERGY PREDICTED BY IDOCK:   -1.60 KCAL/MOL
REMARK 927      BINDING AFFINITY PREDICTED BY RF-SCORE:    0.00 PKD
ROOT
HETATM    1  C   UNL     1     -13.922  13.824  72.434  1.00  0.00    -0.651 C  
HETATM    2  C   UNL     1     -13.213  12.612  71.853  1.00  0.00    -0.504 C  
ENDROOT
BRANCH   2   3
HETATM    3  C   UNL     1     -12.363  13.001  70.647  1.00  0.00    -0.391 C  
BRANCH   3   4
HETATM    4  C   UNL     1     -11.895  11.766  69.882  1.00  0.00    -0.423 C  
BRANCH   4   5
HETATM    5  C   UNL     1     -11.791  10.564  70.817  1.00  0.00    -0.465 C  
BRANCH   5   6
HETATM    6  C   UNL     1     -10.524   9.769  70.532  1.00  0.00    -0.366 C  
BRANCH   6   7
HETATM    7  C   UNL     1     -10.263   9.667  69.032  1.00  0.00    -0.209 C  
BRANCH   7   8
HETATM    8  C   UNL     1      -8.870  10.195  68.712  1.00  0.00    -0.146 C  
BRANCH   8   9
HETATM    9  C   UNL     1      -8.719  10.530  67.232  1.00  0.00    -0.126 C  
BRANCH   9  10
HETATM   10  C   UNL     1      -9.914  10.057  66.402  1.00  0.00    -0.300 C  
BRANCH  10  11
HETATM   11  C   UNL     1     -10.396  11.050  65.337  1.00  0.00    -0.330 C  
BRANCH  11  12
HETATM   12  C   UNL     1     -11.368  12.098  65.892  1.00  0.00    -0.356 C  
BRANCH  12  13
HETATM   13  N   UNL     1     -11.691  13.229  64.897  1.00  0.00    -0.329 N  
HETATM   14  C   UNL     1     -11.802  12.683  63.479  1.00  0.00    -0.541 C  
HETATM   15  C   UNL     1     -12.995  13.924  65.274  1.00  0.00    -0.297 C  
BRANCH  13  16
HETATM   16  C   UNL     1     -10.516  14.262  64.982  1.00  0.00    -0.435 C  
BRANCH  16  17
HETATM   17  C   UNL     1     -10.126  14.673  66.380  1.00  0.00    -0.288 A  
HETATM   18  C   UNL     1      -8.962  14.160  66.977  1.00  0.00    -0.251 A  
HETATM   19  C   UNL     1      -8.712  14.372  68.332  1.00  0.00    -0.180 A  
HETATM   20  C   UNL     1      -9.605  15.119  69.097  1.00  0.00    -0.232 A  
HETATM   21  C   UNL     1     -10.722  15.697  68.500  1.00  0.00    -0.264 A  
HETATM   22  C   UNL     1     -10.975  15.489  67.144  1.00  0.00    -0.295 A  
ENDBRANCH  16  17
ENDBRANCH  13  16
ENDBRANCH  12  13
ENDBRANCH  11  12
ENDBRANCH  10  11
ENDBRANCH   9  10
ENDBRANCH   8   9
ENDBRANCH   7   8
ENDBRANCH   6   7
ENDBRANCH   5   6
ENDBRANCH   4   5
ENDBRANCH   3   4
ENDBRANCH   2   3
TORSDOF 13
ENDMDL
MODEL       72
REMARK 921   NORMALIZED FREE ENERGY PREDICTED BY IDOCK:   -4.26 KCAL/MOL
REMARK 922        TOTAL FREE ENERGY PREDICTED BY IDOCK:   -8.98 KCAL/MOL
REMARK 923 INTER-LIGAND FREE ENERGY PREDICTED BY IDOCK:   -7.61 KCAL/MOL
REMARK 924 INTRA-LIGAND FREE ENERGY PREDICTED BY IDOCK:   -1.37 KCAL/MOL
REMARK 927      BINDING AFFINITY PREDICTED BY RF-SCORE:    0.00 PKD
ROOT
HETATM    1  C   UNL     1      -9.348   7.096  67.858  1.00  0.00    -0.128 C  
HETATM    2  C   UNL     1     -10.705   6.425  67.731  1.00  0.00    -0.377 C  
ENDROOT
BRANCH   2   3
HETATM    3  C   UNL     1     -11.371   6.273  69.096  1.00  0.00    -0.358 C  
BRANCH   3   4
HETATM    4  C   UNL     1     -10.361   5.840  70.155  1.00  0.00    -0.324 C  
BRANCH   4   5
HETATM    5  C   UNL     1     -10.971   5.939  71.550  1.00  0.00    -0.323 C  
BRANCH   5   6
HETATM    6  C   UNL     1     -12.231   6.795  71.527  1.00  0.00    -0.413 C  
BRANCH   6   7
HETATM    7  C   UNL     1     -12.090   8.006  72.444  1.00  0.00    -0.374 C  
BRANCH   7   8
HETATM    8  C   UNL     1     -13.231   8.983  72.190  1.00  0.00    -0.504 C  
BRANCH   8   9
HETATM    9  C   UNL     1     -12.797  10.139  71.295  1.00  0.00    -0.508 C  
BRANCH   9  10
HETATM   10  C   UNL     1     -11.300  10.104  70.982  1.00  0.00    -0.385 C  
BRANCH  10  11
HETATM   11  C   UNL     1     -10.951  10.055  69.490  1.00  0.00    -0.289 C  
BRANCH  11  12
HETATM   12  C   UNL     1      -9.547  10.589  69.185  1.00  0.00    -0.199 C  
BRANCH  12  13
HETATM   13  N   UNL     1      -9.412  11.211  67.782  1.00  0.00    -0.165 N  
HETATM   14  C   UNL     1      -9.367  12.732  67.870  1.00  0.00    -0.208 C  
HETATM   15  C   UNL     1      -8.154  10.707  67.086  1.00  0.00    -0.121 C  
BRANCH  13  16
HETATM   16  C   UNL     1     -10.668  10.760  66.961  1.00  0.00    -0.265 C  
BRANCH  16  17
HETATM   17  C   UNL     1     -11.072  11.692  65.845  1.00  0.00    -0.320 A  
HETATM   18  C   UNL     1     -12.119  12.612  66.027  1.00  0.00    -0.429 A  
HETATM   19  C   UNL     1     -12.629  13.322  64.941  1.00  0.00    -0.444 A  
HETATM   20  C   UNL     1     -12.083  13.142  63.672  1.00  0.00    -0.583 A  
HETATM   21  C   UNL     1     -10.996  12.291  63.494  1.00  0.00    -0.521 A  
HETATM   22  C   UNL     1     -10.481  11.580  64.577  1.00  0.00    -0.369 A  
ENDBRANCH  16  17
ENDBRANCH  13  16
ENDBRANCH  12  13
ENDBRANCH  11  12
ENDBRANCH  10  11
ENDBRANCH   9  10
ENDBRANCH   8   9
ENDBRANCH   7   8
ENDBRANCH   6   7
ENDBRANCH   5   6
ENDBRANCH   4   5
ENDBRANCH   3   4
ENDBRANCH   2   3
TORSDOF 13
ENDMDL
MODEL       73
REMARK 921   NORMALIZED FREE ENERGY PREDICTED BY IDOCK:   -4.25 KCAL/MOL
REMARK 922        TOTAL FREE ENERGY PREDICTED BY IDOCK:   -8.96 KCAL/MOL
REMARK 923 INTER-LIGAND FREE ENERGY PREDICTED BY IDOCK:   -7.09 KCAL/MOL
REMARK 924 INTRA-LIGAND FREE ENERGY PREDICTED BY IDOCK:   -1.87 KCAL/MOL
REMARK 927      BINDING AFFINITY PREDICTED BY RF-SCORE:    0.00 PKD
ROOT
HETATM    1  C   UNL     1      -9.461  11.292  63.161  1.00  0.00    -0.367 C  
HETATM    2  C   UNL     1     -10.733  11.163  63.984  1.00  0.00    -0.409 C  
ENDROOT
BRANCH   2   3
HETATM    3  C   UNL     1     -11.616  12.398  63.823  1.00  0.00    -0.553 C  
BRANCH   3   4
HETATM    4  C   UNL     1     -12.511  12.596  65.042  1.00  0.00    -0.556 C  
BRANCH   4   5
HETATM    5  C   UNL     1     -12.622  14.077  65.392  1.00  0.00    -0.529 C  
BRANCH   5   6
HETATM    6  C   UNL     1     -11.787  14.919  64.437  1.00  0.00    -0.372 C  
BRANCH   6   7
HETATM    7  C   UNL     1     -10.646  15.616  65.170  1.00  0.00    -0.449 C  
BRANCH   7   8
HETATM    8  C   UNL     1     -10.831  15.469  66.675  1.00  0.00    -0.285 C  
BRANCH   8   9
HETATM    9  C   UNL     1      -9.572  14.934  67.350  1.00  0.00    -0.206 C  
BRANCH   9  10
HETATM   10  C   UNL     1      -8.745  14.044  66.421  1.00  0.00     0.176 C  
BRANCH  10  11
HETATM   11  C   UNL     1      -8.889  12.538  66.671  1.00  0.00    -0.142 C  
BRANCH  11  12
HETATM   12  C   UNL     1      -9.321  12.207  68.105  1.00  0.00    -0.204 C  
BRANCH  12  13
HETATM   13  N   UNL     1      -9.836  10.765  68.280  1.00  0.00    -0.161 N  
HETATM   14  C   UNL     1      -9.339   9.876  67.146  1.00  0.00    -0.146 C  
HETATM   15  C   UNL     1      -9.379  10.187  69.614  1.00  0.00    -0.190 C  
BRANCH  13  16
HETATM   16  C   UNL     1     -11.401  10.834  68.259  1.00  0.00    -0.309 C  
BRANCH  16  17
HETATM   17  C   UNL     1     -12.018  11.699  69.331  1.00  0.00    -0.381 A  
HETATM   18  C   UNL     1     -12.014  13.098  69.209  1.00  0.00    -0.344 A  
HETATM   19  C   UNL     1     -12.391  13.900  70.286  1.00  0.00    -0.413 A  
HETATM   20  C   UNL     1     -12.802  13.314  71.481  1.00  0.00    -0.419 A  
HETATM   21  C   UNL     1     -12.883  11.929  71.587  1.00  0.00    -0.417 A  
HETATM   22  C   UNL     1     -12.509  11.123  70.512  1.00  0.00    -0.414 A  
ENDBRANCH  16  17
ENDBRANCH  13  16
ENDBRANCH  12  13
ENDBRANCH  11  12
ENDBRANCH  10  11
ENDBRANCH   9  10
ENDBRANCH   8   9
ENDBRANCH   7   8
ENDBRANCH   6   7
ENDBRANCH   5   6
ENDBRANCH   4   5
ENDBRANCH   3   4
ENDBRANCH   2   3
TORSDOF 13
ENDMDL
MODEL       74
REMARK 921   NORMALIZED FREE ENERGY PREDICTED BY IDOCK:   -4.25 KCAL/MOL
REMARK 922        TOTAL FREE ENERGY PREDICTED BY IDOCK:   -8.94 KCAL/MOL
REMARK 923 INTER-LIGAND FREE ENERGY PREDICTED BY IDOCK:   -7.79 KCAL/MOL
REMARK 924 INTRA-LIGAND FREE ENERGY PREDICTED BY IDOCK:   -1.15 KCAL/MOL
REMARK 927      BINDING AFFINITY PREDICTED BY RF-SCORE:    0.00 PKD
ROOT
HETATM    1  C   UNL     1     -13.522   8.907  71.890  1.00  0.00    -0.464 C  
HETATM    2  C   UNL     1     -12.284   9.655  71.424  1.00  0.00    -0.471 C  
ENDROOT
BRANCH   2   3
HETATM    3  C   UNL     1     -12.594  11.130  71.182  1.00  0.00    -0.513 C  
BRANCH   3   4
HETATM    4  C   UNL     1     -13.658  11.635  72.152  1.00  0.00    -0.124 C  
BRANCH   4   5
HETATM    5  C   UNL     1     -13.585  13.153  72.287  1.00  0.00    -0.677 C  
BRANCH   5   6
HETATM    6  C   UNL     1     -13.108  13.786  70.986  1.00  0.00    -0.276 C  
BRANCH   6   7
HETATM    7  C   UNL     1     -13.076  15.308  71.094  1.00  0.00    -0.546 C  
BRANCH   7   8
HETATM    8  C   UNL     1     -11.667  15.773  71.439  1.00  0.00    -0.508 C  
BRANCH   8   9
HETATM    9  C   UNL     1     -11.048  16.589  70.309  1.00  0.00    -0.171 C  
BRANCH   9  10
HETATM   10  C   UNL     1     -10.162  15.741  69.396  1.00  0.00    -0.262 C  
BRANCH  10  11
HETATM   11  C   UNL     1     -10.572  15.737  67.918  1.00  0.00    -0.282 C  
BRANCH  11  12
HETATM   12  C   UNL     1     -11.332  14.468  67.512  1.00  0.00    -0.340 C  
BRANCH  12  13
HETATM   13  N   UNL     1     -10.734  13.756  66.283  1.00  0.00    -0.284 N  
HETATM   14  C   UNL     1     -10.791  14.659  65.057  1.00  0.00    -0.417 C  
HETATM   15  C   UNL     1      -9.289  13.349  66.545  1.00  0.00    -0.215 C  
BRANCH  13  16
HETATM   16  C   UNL     1     -11.593  12.468  66.040  1.00  0.00    -0.406 C  
BRANCH  16  17
HETATM   17  C   UNL     1     -10.948  11.176  66.476  1.00  0.00    -0.270 A  
HETATM   18  C   UNL     1     -10.228  10.392  65.558  1.00  0.00    -0.316 A  
HETATM   19  C   UNL     1      -9.813   9.107  65.903  1.00  0.00    -0.305 A  
HETATM   20  C   UNL     1     -10.086   8.603  67.173  1.00  0.00    -0.329 A  
HETATM   21  C   UNL     1     -10.731   9.399  68.116  1.00  0.00    -0.230 A  
HETATM   22  C   UNL     1     -11.147  10.686  67.776  1.00  0.00    -0.385 A  
ENDBRANCH  16  17
ENDBRANCH  13  16
ENDBRANCH  12  13
ENDBRANCH  11  12
ENDBRANCH  10  11
ENDBRANCH   9  10
ENDBRANCH   8   9
ENDBRANCH   7   8
ENDBRANCH   6   7
ENDBRANCH   5   6
ENDBRANCH   4   5
ENDBRANCH   3   4
ENDBRANCH   2   3
TORSDOF 13
ENDMDL
MODEL       75
REMARK 921   NORMALIZED FREE ENERGY PREDICTED BY IDOCK:   -4.24 KCAL/MOL
REMARK 922        TOTAL FREE ENERGY PREDICTED BY IDOCK:   -8.93 KCAL/MOL
REMARK 923 INTER-LIGAND FREE ENERGY PREDICTED BY IDOCK:   -6.98 KCAL/MOL
REMARK 924 INTRA-LIGAND FREE ENERGY PREDICTED BY IDOCK:   -1.96 KCAL/MOL
REMARK 927      BINDING AFFINITY PREDICTED BY RF-SCORE:    0.00 PKD
ROOT
HETATM    1  C   UNL     1     -11.442   6.365  69.363  1.00  0.00    -0.374 C  
HETATM    2  C   UNL     1     -10.638   6.367  70.653  1.00  0.00    -0.288 C  
ENDROOT
BRANCH   2   3
HETATM    3  C   UNL     1     -11.554   6.476  71.869  1.00  0.00    -0.357 C  
BRANCH   3   4
HETATM    4  C   UNL     1     -12.761   7.360  71.571  1.00  0.00    -0.409 C  
BRANCH   4   5
HETATM    5  C   UNL     1     -12.578   8.743  72.189  1.00  0.00    -0.463 C  
BRANCH   5   6
HETATM    6  C   UNL     1     -13.201   9.815  71.304  1.00  0.00    -0.452 C  
BRANCH   6   7
HETATM    7  C   UNL     1     -12.161  10.842  70.868  1.00  0.00    -0.487 C  
BRANCH   7   8
HETATM    8  C   UNL     1     -11.282  10.255  69.772  1.00  0.00    -0.339 C  
BRANCH   8   9
HETATM    9  C   UNL     1     -11.632  10.825  68.401  1.00  0.00    -0.311 C  
BRANCH   9  10
HETATM   10  C   UNL     1     -11.756  12.349  68.417  1.00  0.00    -0.386 C  
BRANCH  10  11
HETATM   11  C   UNL     1     -12.074  12.987  67.059  1.00  0.00    -0.330 C  
BRANCH  11  12
HETATM   12  C   UNL     1     -11.965  11.998  65.893  1.00  0.00    -0.046 C  
BRANCH  12  13
HETATM   13  N   UNL     1     -11.228  12.568  64.665  1.00  0.00    -0.300 N  
HETATM   14  C   UNL     1     -12.149  12.599  63.451  1.00  0.00    -0.525 C  
HETATM   15  C   UNL     1     -10.717  13.976  64.948  1.00  0.00    -0.418 C  
BRANCH  13  16
HETATM   16  C   UNL     1     -10.008  11.625  64.387  1.00  0.00    -0.262 C  
BRANCH  16  17
HETATM   17  C   UNL     1      -9.526  10.834  65.577  1.00  0.00    -0.253 A  
HETATM   18  C   UNL     1      -8.682  11.423  66.533  1.00  0.00    -0.181 A  
HETATM   19  C   UNL     1      -8.071  10.642  67.512  1.00  0.00    -0.111 A  
HETATM   20  C   UNL     1      -8.318   9.272  67.565  1.00  0.00    -0.119 A  
HETATM   21  C   UNL     1      -9.213   8.689  66.671  1.00  0.00    -0.227 A  
HETATM   22  C   UNL     1      -9.827   9.468  65.691  1.00  0.00    -0.343 A  
ENDBRANCH  16  17
ENDBRANCH  13  16
ENDBRANCH  12  13
ENDBRANCH  11  12
ENDBRANCH  10  11
ENDBRANCH   9  10
ENDBRANCH   8   9
ENDBRANCH   7   8
ENDBRANCH   6   7
ENDBRANCH   5   6
ENDBRANCH   4   5
ENDBRANCH   3   4
ENDBRANCH   2   3
TORSDOF 13
ENDMDL
MODEL       76
REMARK 921   NORMALIZED FREE ENERGY PREDICTED BY IDOCK:   -4.23 KCAL/MOL
REMARK 922        TOTAL FREE ENERGY PREDICTED BY IDOCK:   -8.92 KCAL/MOL
REMARK 923 INTER-LIGAND FREE ENERGY PREDICTED BY IDOCK:   -7.42 KCAL/MOL
REMARK 924 INTRA-LIGAND FREE ENERGY PREDICTED BY IDOCK:   -1.50 KCAL/MOL
REMARK 927      BINDING AFFINITY PREDICTED BY RF-SCORE:    0.00 PKD
ROOT
HETATM    1  C   UNL     1     -13.482  15.057  71.171  1.00  0.00    -0.503 C  
HETATM    2  C   UNL     1     -14.274  14.146  72.094  1.00  0.00    -0.638 C  
ENDROOT
BRANCH   2   3
HETATM    3  C   UNL     1     -13.644  12.757  72.166  1.00  0.00    -0.547 C  
BRANCH   3   4
HETATM    4  C   UNL     1     -12.596  12.571  71.073  1.00  0.00    -0.350 C  
BRANCH   4   5
HETATM    5  C   UNL     1     -12.458  11.096  70.708  1.00  0.00    -0.479 C  
BRANCH   5   6
HETATM    6  C   UNL     1     -13.126  10.217  71.756  1.00  0.00    -0.570 C  
BRANCH   6   7
HETATM    7  C   UNL     1     -12.200   9.090  72.201  1.00  0.00    -0.427 C  
BRANCH   7   8
HETATM    8  C   UNL     1     -12.733   7.754  71.699  1.00  0.00    -0.358 C  
BRANCH   8   9
HETATM    9  C   UNL     1     -11.686   6.998  70.886  1.00  0.00    -0.387 C  
BRANCH   9  10
HETATM   10  C   UNL     1     -10.513   7.888  70.473  1.00  0.00    -0.214 C  
BRANCH  10  11
HETATM   11  C   UNL     1     -10.351   8.086  68.962  1.00  0.00    -0.228 C  
BRANCH  11  12
HETATM   12  C   UNL     1      -9.943   9.515  68.585  1.00  0.00    -0.167 C  
BRANCH  12  13
HETATM   13  N   UNL     1      -9.026   9.591  67.348  1.00  0.00    -0.131 N  
HETATM   14  C   UNL     1      -7.700   8.891  67.618  1.00  0.00    -0.101 C  
HETATM   15  C   UNL     1      -9.698   8.951  66.139  1.00  0.00    -0.268 C  
BRANCH  13  16
HETATM   16  C   UNL     1      -8.780  11.110  67.055  1.00  0.00    -0.148 C  
BRANCH  16  17
HETATM   17  C   UNL     1      -9.953  12.015  67.338  1.00  0.00    -0.200 A  
HETATM   18  C   UNL     1     -11.044  12.068  66.454  1.00  0.00    -0.365 A  
HETATM   19  C   UNL     1     -12.024  13.049  66.602  1.00  0.00    -0.453 A  
HETATM   20  C   UNL     1     -11.940  13.965  67.648  1.00  0.00    -0.403 A  
HETATM   21  C   UNL     1     -10.906  13.875  68.575  1.00  0.00    -0.274 A  
HETATM   22  C   UNL     1      -9.924  12.894  68.432  1.00  0.00    -0.211 A  
ENDBRANCH  16  17
ENDBRANCH  13  16
ENDBRANCH  12  13
ENDBRANCH  11  12
ENDBRANCH  10  11
ENDBRANCH   9  10
ENDBRANCH   8   9
ENDBRANCH   7   8
ENDBRANCH   6   7
ENDBRANCH   5   6
ENDBRANCH   4   5
ENDBRANCH   3   4
ENDBRANCH   2   3
TORSDOF 13
ENDMDL
MODEL       77
REMARK 921   NORMALIZED FREE ENERGY PREDICTED BY IDOCK:   -4.23 KCAL/MOL
REMARK 922        TOTAL FREE ENERGY PREDICTED BY IDOCK:   -8.92 KCAL/MOL
REMARK 923 INTER-LIGAND FREE ENERGY PREDICTED BY IDOCK:   -7.90 KCAL/MOL
REMARK 924 INTRA-LIGAND FREE ENERGY PREDICTED BY IDOCK:   -1.02 KCAL/MOL
REMARK 927      BINDING AFFINITY PREDICTED BY RF-SCORE:    0.00 PKD
ROOT
HETATM    1  C   UNL     1      -8.723  15.568  66.531  1.00  0.00    -0.340 C  
HETATM    2  C   UNL     1     -10.120  15.035  66.260  1.00  0.00    -0.298 C  
ENDROOT
BRANCH   2   3
HETATM    3  C   UNL     1     -10.758  15.751  65.072  1.00  0.00    -0.443 C  
BRANCH   3   4
HETATM    4  C   UNL     1     -11.990  15.002  64.575  1.00  0.00    -0.379 C  
BRANCH   4   5
HETATM    5  C   UNL     1     -12.374  13.893  65.551  1.00  0.00    -0.506 C  
BRANCH   5   6
HETATM    6  C   UNL     1     -12.389  12.541  64.851  1.00  0.00    -0.539 C  
BRANCH   6   7
HETATM    7  C   UNL     1     -11.555  12.573  63.574  1.00  0.00    -0.584 C  
BRANCH   7   8
HETATM    8  C   UNL     1     -10.610  11.379  63.543  1.00  0.00    -0.468 C  
BRANCH   8   9
HETATM    9  C   UNL     1      -9.896  11.188  64.878  1.00  0.00    -0.316 C  
BRANCH   9  10
HETATM   10  C   UNL     1      -9.854   9.722  65.312  1.00  0.00    -0.335 C  
BRANCH  10  11
HETATM   11  C   UNL     1      -9.827   9.496  66.828  1.00  0.00    -0.277 C  
BRANCH  11  12
HETATM   12  C   UNL     1     -11.035  10.111  67.546  1.00  0.00    -0.255 C  
BRANCH  12  13
HETATM   13  N   UNL     1     -10.656  10.978  68.763  1.00  0.00    -0.191 N  
HETATM   14  C   UNL     1      -9.750  12.129  68.342  1.00  0.00    -0.193 C  
HETATM   15  C   UNL     1     -11.904  11.537  69.437  1.00  0.00    -0.350 C  
BRANCH  13  16
HETATM   16  C   UNL     1      -9.903  10.045  69.771  1.00  0.00    -0.235 C  
BRANCH  16  17
HETATM   17  C   UNL     1     -10.753   8.976  70.412  1.00  0.00    -0.267 A  
HETATM   18  C   UNL     1     -11.389   9.212  71.642  1.00  0.00    -0.446 A  
HETATM   19  C   UNL     1     -11.997   8.165  72.333  1.00  0.00    -0.431 A  
HETATM   20  C   UNL     1     -12.002   6.882  71.791  1.00  0.00    -0.372 A  
HETATM   21  C   UNL     1     -11.442   6.651  70.537  1.00  0.00    -0.432 A  
HETATM   22  C   UNL     1     -10.834   7.696  69.842  1.00  0.00    -0.241 A  
ENDBRANCH  16  17
ENDBRANCH  13  16
ENDBRANCH  12  13
ENDBRANCH  11  12
ENDBRANCH  10  11
ENDBRANCH   9  10
ENDBRANCH   8   9
ENDBRANCH   7   8
ENDBRANCH   6   7
ENDBRANCH   5   6
ENDBRANCH   4   5
ENDBRANCH   3   4
ENDBRANCH   2   3
TORSDOF 13
ENDMDL
MODEL       78
REMARK 921   NORMALIZED FREE ENERGY PREDICTED BY IDOCK:   -4.23 KCAL/MOL
REMARK 922        TOTAL FREE ENERGY PREDICTED BY IDOCK:   -8.92 KCAL/MOL
REMARK 923 INTER-LIGAND FREE ENERGY PREDICTED BY IDOCK:   -6.76 KCAL/MOL
REMARK 924 INTRA-LIGAND FREE ENERGY PREDICTED BY IDOCK:   -2.15 KCAL/MOL
REMARK 927      BINDING AFFINITY PREDICTED BY RF-SCORE:    0.00 PKD
ROOT
HETATM    1  C   UNL     1     -10.303   5.231  69.880  1.00  0.00    -0.374 C  
HETATM    2  C   UNL     1     -11.323   6.329  69.631  1.00  0.00    -0.492 C  
ENDROOT
BRANCH   2   3
HETATM    3  C   UNL     1     -12.146   6.607  70.886  1.00  0.00    -0.379 C  
BRANCH   3   4
HETATM    4  C   UNL     1     -11.706   7.904  71.557  1.00  0.00    -0.317 C  
BRANCH   4   5
HETATM    5  C   UNL     1     -11.150   7.627  72.950  1.00  0.00    -0.448 C  
BRANCH   5   6
HETATM    6  C   UNL     1      -9.650   7.886  72.992  1.00  0.00    -0.341 C  
BRANCH   6   7
HETATM    7  C   UNL     1      -9.202   8.721  71.797  1.00  0.00    -0.332 C  
BRANCH   7   8
HETATM    8  C   UNL     1      -8.055   8.022  71.078  1.00  0.00    -0.097 C  
BRANCH   8   9
HETATM    9  C   UNL     1      -8.080   8.293  69.577  1.00  0.00    -0.114 C  
BRANCH   9  10
HETATM   10  C   UNL     1      -9.100   9.367  69.195  1.00  0.00    -0.148 C  
BRANCH  10  11
HETATM   11  C   UNL     1      -8.844  10.052  67.848  1.00  0.00    -0.125 C  
BRANCH  11  12
HETATM   12  C   UNL     1      -9.262  11.528  67.838  1.00  0.00    -0.168 C  
BRANCH  12  13
HETATM   13  N   UNL     1     -10.181  11.903  66.659  1.00  0.00    -0.206 N  
HETATM   14  C   UNL     1      -9.874  13.311  66.164  1.00  0.00    -0.280 C  
HETATM   15  C   UNL     1     -10.015  10.915  65.510  1.00  0.00    -0.260 C  
BRANCH  13  16
HETATM   16  C   UNL     1     -11.654  11.831  67.188  1.00  0.00    -0.266 C  
BRANCH  16  17
HETATM   17  C   UNL     1     -11.828  12.182  68.645  1.00  0.00    -0.358 A  
HETATM   18  C   UNL     1     -12.027  11.175  69.604  1.00  0.00    -0.429 A  
HETATM   19  C   UNL     1     -12.395  11.505  70.907  1.00  0.00    -0.460 A  
HETATM   20  C   UNL     1     -12.540  12.841  71.273  1.00  0.00    -0.347 A  
HETATM   21  C   UNL     1     -12.272  13.850  70.353  1.00  0.00    -0.438 A  
HETATM   22  C   UNL     1     -11.902  13.525  69.048  1.00  0.00    -0.385 A  
ENDBRANCH  16  17
ENDBRANCH  13  16
ENDBRANCH  12  13
ENDBRANCH  11  12
ENDBRANCH  10  11
ENDBRANCH   9  10
ENDBRANCH   8   9
ENDBRANCH   7   8
ENDBRANCH   6   7
ENDBRANCH   5   6
ENDBRANCH   4   5
ENDBRANCH   3   4
ENDBRANCH   2   3
TORSDOF 13
ENDMDL
MODEL       79
REMARK 921   NORMALIZED FREE ENERGY PREDICTED BY IDOCK:   -4.23 KCAL/MOL
REMARK 922        TOTAL FREE ENERGY PREDICTED BY IDOCK:   -8.91 KCAL/MOL
REMARK 923 INTER-LIGAND FREE ENERGY PREDICTED BY IDOCK:   -7.18 KCAL/MOL
REMARK 924 INTRA-LIGAND FREE ENERGY PREDICTED BY IDOCK:   -1.73 KCAL/MOL
REMARK 927      BINDING AFFINITY PREDICTED BY RF-SCORE:    0.00 PKD
ROOT
HETATM    1  C   UNL     1     -10.544  15.101  65.350  1.00  0.00    -0.410 C  
HETATM    2  C   UNL     1     -11.650  14.590  66.258  1.00  0.00    -0.364 C  
ENDROOT
BRANCH   2   3
HETATM    3  C   UNL     1     -12.655  13.748  65.475  1.00  0.00    -0.551 C  
BRANCH   3   4
HETATM    4  C   UNL     1     -12.211  13.566  64.027  1.00  0.00    -0.458 C  
BRANCH   4   5
HETATM    5  C   UNL     1     -12.136  12.084  63.670  1.00  0.00    -0.627 C  
BRANCH   5   6
HETATM    6  C   UNL     1     -10.728  11.708  63.228  1.00  0.00    -0.404 C  
BRANCH   6   7
HETATM    7  C   UNL     1      -9.789  11.587  64.423  1.00  0.00    -0.277 C  
BRANCH   7   8
HETATM    8  C   UNL     1     -10.267  10.474  65.347  1.00  0.00    -0.340 C  
BRANCH   8   9
HETATM    9  C   UNL     1     -10.491  10.977  66.769  1.00  0.00    -0.300 C  
BRANCH   9  10
HETATM   10  C   UNL     1      -9.286  11.746  67.312  1.00  0.00    -0.173 C  
BRANCH  10  11
HETATM   11  C   UNL     1      -8.571  11.079  68.494  1.00  0.00    -0.158 C  
BRANCH  11  12
HETATM   12  C   UNL     1      -8.262   9.598  68.247  1.00  0.00    -0.106 C  
BRANCH  12  13
HETATM   13  N   UNL     1      -8.698   8.674  69.401  1.00  0.00    -0.137 N  
HETATM   14  C   UNL     1      -7.879   7.389  69.400  1.00  0.00    -0.122 C  
HETATM   15  C   UNL     1      -8.535   9.376  70.744  1.00  0.00    -0.135 C  
BRANCH  13  16
HETATM   16  C   UNL     1     -10.213   8.344  69.174  1.00  0.00    -0.211 C  
BRANCH  16  17
HETATM   17  C   UNL     1     -11.147   8.866  70.237  1.00  0.00    -0.251 A  
HETATM   18  C   UNL     1     -11.712   7.993  71.182  1.00  0.00    -0.307 A  
HETATM   19  C   UNL     1     -12.730   8.432  72.027  1.00  0.00    -0.399 A  
HETATM   20  C   UNL     1     -13.174   9.750  71.957  1.00  0.00    -0.557 A  
HETATM   21  C   UNL     1     -12.570  10.644  71.077  1.00  0.00    -0.516 A  
HETATM   22  C   UNL     1     -11.550  10.210  70.231  1.00  0.00    -0.379 A  
ENDBRANCH  16  17
ENDBRANCH  13  16
ENDBRANCH  12  13
ENDBRANCH  11  12
ENDBRANCH  10  11
ENDBRANCH   9  10
ENDBRANCH   8   9
ENDBRANCH   7   8
ENDBRANCH   6   7
ENDBRANCH   5   6
ENDBRANCH   4   5
ENDBRANCH   3   4
ENDBRANCH   2   3
TORSDOF 13
ENDMDL
MODEL       80
REMARK 921   NORMALIZED FREE ENERGY PREDICTED BY IDOCK:   -4.22 KCAL/MOL
REMARK 922        TOTAL FREE ENERGY PREDICTED BY IDOCK:   -8.90 KCAL/MOL
REMARK 923 INTER-LIGAND FREE ENERGY PREDICTED BY IDOCK:   -7.76 KCAL/MOL
REMARK 924 INTRA-LIGAND FREE ENERGY PREDICTED BY IDOCK:   -1.14 KCAL/MOL
REMARK 927      BINDING AFFINITY PREDICTED BY RF-SCORE:    0.00 PKD
ROOT
HETATM    1  C   UNL     1     -10.274   5.442  69.889  1.00  0.00    -0.351 C  
HETATM    2  C   UNL     1     -11.492   6.295  69.578  1.00  0.00    -0.387 C  
ENDROOT
BRANCH   2   3
HETATM    3  C   UNL     1     -12.149   6.800  70.860  1.00  0.00    -0.421 C  
BRANCH   3   4
HETATM    4  C   UNL     1     -11.114   7.016  71.960  1.00  0.00    -0.276 C  
BRANCH   4   5
HETATM    5  C   UNL     1     -10.888   8.506  72.199  1.00  0.00    -0.427 C  
BRANCH   5   6
HETATM    6  C   UNL     1      -9.776   9.033  71.301  1.00  0.00    -0.371 C  
BRANCH   6   7
HETATM    7  C   UNL     1     -10.345   9.767  70.092  1.00  0.00    -0.335 C  
BRANCH   7   8
HETATM    8  C   UNL     1     -11.575  10.567  70.503  1.00  0.00    -0.441 C  
BRANCH   8   9
HETATM    9  C   UNL     1     -12.011  11.536  69.409  1.00  0.00    -0.392 C  
BRANCH   9  10
HETATM   10  C   UNL     1     -11.683  12.990  69.754  1.00  0.00    -0.346 C  
BRANCH  10  11
HETATM   11  C   UNL     1     -12.166  14.023  68.729  1.00  0.00    -0.237 C  
BRANCH  11  12
HETATM   12  C   UNL     1     -11.038  14.920  68.206  1.00  0.00    -0.282 C  
BRANCH  12  13
HETATM   13  N   UNL     1     -10.501  14.496  66.825  1.00  0.00    -0.268 N  
HETATM   14  C   UNL     1     -10.334  15.708  65.917  1.00  0.00    -0.350 C  
HETATM   15  C   UNL     1      -9.162  13.780  66.963  1.00  0.00    -0.251 C  
BRANCH  13  16
HETATM   16  C   UNL     1     -11.551  13.508  66.211  1.00  0.00    -0.345 C  
BRANCH  16  17
HETATM   17  C   UNL     1     -10.970  12.404  65.361  1.00  0.00    -0.335 A  
HETATM   18  C   UNL     1     -10.568  11.191  65.944  1.00  0.00    -0.294 A  
HETATM   19  C   UNL     1      -9.845  10.258  65.203  1.00  0.00    -0.389 A  
HETATM   20  C   UNL     1      -9.541  10.514  63.867  1.00  0.00    -0.363 A  
HETATM   21  C   UNL     1     -10.000  11.679  63.258  1.00  0.00    -0.442 A  
HETATM   22  C   UNL     1     -10.726  12.614  63.996  1.00  0.00    -0.457 A  
ENDBRANCH  16  17
ENDBRANCH  13  16
ENDBRANCH  12  13
ENDBRANCH  11  12
ENDBRANCH  10  11
ENDBRANCH   9  10
ENDBRANCH   8   9
ENDBRANCH   7   8
ENDBRANCH   6   7
ENDBRANCH   5   6
ENDBRANCH   4   5
ENDBRANCH   3   4
ENDBRANCH   2   3
TORSDOF 13
ENDMDL
MODEL       81
REMARK 921   NORMALIZED FREE ENERGY PREDICTED BY IDOCK:   -4.20 KCAL/MOL
REMARK 922        TOTAL FREE ENERGY PREDICTED BY IDOCK:   -8.87 KCAL/MOL
REMARK 923 INTER-LIGAND FREE ENERGY PREDICTED BY IDOCK:   -7.38 KCAL/MOL
REMARK 924 INTRA-LIGAND FREE ENERGY PREDICTED BY IDOCK:   -1.49 KCAL/MOL
REMARK 927      BINDING AFFINITY PREDICTED BY RF-SCORE:    0.00 PKD
ROOT
HETATM    1  C   UNL     1     -12.132  15.854  72.922  1.00  0.00    -0.612 C  
HETATM    2  C   UNL     1     -13.105  14.786  72.451  1.00  0.00    -0.463 C  
ENDROOT
BRANCH   2   3
HETATM    3  C   UNL     1     -12.716  14.262  71.071  1.00  0.00    -0.430 C  
BRANCH   3   4
HETATM    4  C   UNL     1     -11.720  15.195  70.389  1.00  0.00    -0.333 C  
BRANCH   4   5
HETATM    5  C   UNL     1     -11.607  14.866  68.903  1.00  0.00    -0.339 C  
BRANCH   5   6
HETATM    6  C   UNL     1     -11.903  13.393  68.654  1.00  0.00    -0.397 C  
BRANCH   6   7
HETATM    7  C   UNL     1     -10.734  12.706  67.956  1.00  0.00    -0.243 C  
BRANCH   7   8
HETATM    8  C   UNL     1     -11.256  11.713  66.927  1.00  0.00    -0.376 C  
BRANCH   8   9
HETATM    9  C   UNL     1     -10.355  10.487  66.816  1.00  0.00    -0.301 C  
BRANCH   9  10
HETATM   10  C   UNL     1      -9.162  10.551  67.772  1.00  0.00    -0.151 C  
BRANCH  10  11
HETATM   11  C   UNL     1      -8.690   9.195  68.309  1.00  0.00    -0.129 C  
BRANCH  11  12
HETATM   12  C   UNL     1      -9.770   8.110  68.230  1.00  0.00    -0.161 C  
BRANCH  12  13
HETATM   13  N   UNL     1      -9.924   7.294  69.528  1.00  0.00    -0.167 N  
HETATM   14  C   UNL     1     -11.308   6.661  69.605  1.00  0.00    -0.329 C  
HETATM   15  C   UNL     1      -8.864   6.202  69.608  1.00  0.00    -0.134 C  
BRANCH  13  16
HETATM   16  C   UNL     1      -9.724   8.291  70.720  1.00  0.00    -0.172 C  
BRANCH  16  17
HETATM   17  C   UNL     1     -10.977   8.988  71.189  1.00  0.00    -0.371 A  
HETATM   18  C   UNL     1     -11.803   8.396  72.159  1.00  0.00    -0.441 A  
HETATM   19  C   UNL     1     -13.058   8.933  72.438  1.00  0.00    -0.476 A  
HETATM   20  C   UNL     1     -13.490  10.080  71.774  1.00  0.00    -0.422 A  
HETATM   21  C   UNL     1     -12.649  10.719  70.867  1.00  0.00    -0.498 A  
HETATM   22  C   UNL     1     -11.391  10.186  70.586  1.00  0.00    -0.433 A  
ENDBRANCH  16  17
ENDBRANCH  13  16
ENDBRANCH  12  13
ENDBRANCH  11  12
ENDBRANCH  10  11
ENDBRANCH   9  10
ENDBRANCH   8   9
ENDBRANCH   7   8
ENDBRANCH   6   7
ENDBRANCH   5   6
ENDBRANCH   4   5
ENDBRANCH   3   4
ENDBRANCH   2   3
TORSDOF 13
ENDMDL
MODEL       82
REMARK 921   NORMALIZED FREE ENERGY PREDICTED BY IDOCK:   -4.20 KCAL/MOL
REMARK 922        TOTAL FREE ENERGY PREDICTED BY IDOCK:   -8.86 KCAL/MOL
REMARK 923 INTER-LIGAND FREE ENERGY PREDICTED BY IDOCK:   -8.18 KCAL/MOL
REMARK 924 INTRA-LIGAND FREE ENERGY PREDICTED BY IDOCK:   -0.68 KCAL/MOL
REMARK 927      BINDING AFFINITY PREDICTED BY RF-SCORE:    0.00 PKD
ROOT
HETATM    1  C   UNL     1     -10.239   5.365  70.137  1.00  0.00    -0.342 C  
HETATM    2  C   UNL     1     -11.366   6.283  69.692  1.00  0.00    -0.492 C  
ENDROOT
BRANCH   2   3
HETATM    3  C   UNL     1     -12.162   6.791  70.891  1.00  0.00    -0.386 C  
BRANCH   3   4
HETATM    4  C   UNL     1     -11.237   7.204  72.032  1.00  0.00    -0.286 C  
BRANCH   4   5
HETATM    5  C   UNL     1     -11.086   8.721  72.078  1.00  0.00    -0.441 C  
BRANCH   5   6
HETATM    6  C   UNL     1      -9.833   9.160  71.330  1.00  0.00    -0.354 C  
BRANCH   6   7
HETATM    7  C   UNL     1     -10.189   9.844  70.015  1.00  0.00    -0.319 C  
BRANCH   7   8
HETATM    8  C   UNL     1     -11.545  10.527  70.136  1.00  0.00    -0.408 C  
BRANCH   8   9
HETATM    9  C   UNL     1     -11.837  11.423  68.936  1.00  0.00    -0.413 C  
BRANCH   9  10
HETATM   10  C   UNL     1     -11.602  12.903  69.242  1.00  0.00    -0.368 C  
BRANCH  10  11
HETATM   11  C   UNL     1     -11.816  13.851  68.056  1.00  0.00    -0.411 C  
BRANCH  11  12
HETATM   12  C   UNL     1     -10.629  13.873  67.085  1.00  0.00    -0.277 C  
BRANCH  12  13
HETATM   13  N   UNL     1     -10.184  15.293  66.684  1.00  0.00    -0.264 N  
HETATM   14  C   UNL     1      -8.668  15.362  66.545  1.00  0.00    -0.300 C  
HETATM   15  C   UNL     1     -10.831  15.710  65.369  1.00  0.00    -0.381 C  
BRANCH  13  16
HETATM   16  C   UNL     1     -10.663  16.259  67.821  1.00  0.00    -0.325 C  
BRANCH  16  17
HETATM   17  C   UNL     1     -10.077  17.648  67.768  1.00  0.00    -0.338 A  
HETATM   18  C   UNL     1     -10.607  18.614  66.896  1.00  0.00    -0.437 A  
HETATM   19  C   UNL     1      -9.942  19.822  66.695  1.00  0.00    -0.556 A  
HETATM   20  C   UNL     1      -8.759  20.090  67.381  1.00  0.00    -0.417 A  
HETATM   21  C   UNL     1      -8.266  19.173  68.305  1.00  0.00    -0.369 A  
HETATM   22  C   UNL     1      -8.929  17.964  68.511  1.00  0.00    -0.291 A  
ENDBRANCH  16  17
ENDBRANCH  13  16
ENDBRANCH  12  13
ENDBRANCH  11  12
ENDBRANCH  10  11
ENDBRANCH   9  10
ENDBRANCH   8   9
ENDBRANCH   7   8
ENDBRANCH   6   7
ENDBRANCH   5   6
ENDBRANCH   4   5
ENDBRANCH   3   4
ENDBRANCH   2   3
TORSDOF 13
ENDMDL
MODEL       83
REMARK 921   NORMALIZED FREE ENERGY PREDICTED BY IDOCK:   -4.20 KCAL/MOL
REMARK 922        TOTAL FREE ENERGY PREDICTED BY IDOCK:   -8.86 KCAL/MOL
REMARK 923 INTER-LIGAND FREE ENERGY PREDICTED BY IDOCK:   -7.19 KCAL/MOL
REMARK 924 INTRA-LIGAND FREE ENERGY PREDICTED BY IDOCK:   -1.67 KCAL/MOL
REMARK 927      BINDING AFFINITY PREDICTED BY RF-SCORE:    0.00 PKD
ROOT
HETATM    1  C   UNL     1      -9.833   5.670  68.716  1.00  0.00    -0.193 C  
HETATM    2  C   UNL     1     -11.109   6.381  68.298  1.00  0.00    -0.359 C  
ENDROOT
BRANCH   2   3
HETATM    3  C   UNL     1     -10.863   7.286  67.094  1.00  0.00    -0.378 C  
BRANCH   3   4
HETATM    4  C   UNL     1      -9.449   7.106  66.550  1.00  0.00    -0.208 C  
BRANCH   4   5
HETATM    5  C   UNL     1      -8.979   8.374  65.844  1.00  0.00    -0.223 C  
BRANCH   5   6
HETATM    6  C   UNL     1     -10.074   9.433  65.855  1.00  0.00    -0.243 C  
BRANCH   6   7
HETATM    7  C   UNL     1      -9.736  10.585  64.914  1.00  0.00    -0.360 C  
BRANCH   7   8
HETATM    8  C   UNL     1     -11.011  11.132  64.287  1.00  0.00    -0.276 C  
BRANCH   8   9
HETATM    9  C   UNL     1     -10.830  12.566  63.798  1.00  0.00    -0.489 C  
BRANCH   9  10
HETATM   10  C   UNL     1     -11.702  13.559  64.568  1.00  0.00    -0.431 C  
BRANCH  10  11
HETATM   11  C   UNL     1     -11.085  14.092  65.866  1.00  0.00    -0.306 C  
BRANCH  11  12
HETATM   12  C   UNL     1     -11.951  13.812  67.100  1.00  0.00    -0.405 C  
BRANCH  12  13
HETATM   13  N   UNL     1     -11.192  13.106  68.241  1.00  0.00    -0.257 N  
HETATM   14  C   UNL     1      -9.688  13.286  68.078  1.00  0.00    -0.223 C  
HETATM   15  C   UNL     1     -11.623  13.654  69.596  1.00  0.00    -0.278 C  
BRANCH  13  16
HETATM   16  C   UNL     1     -11.561  11.585  68.162  1.00  0.00    -0.308 C  
BRANCH  16  17
HETATM   17  C   UNL     1     -11.286  10.794  69.416  1.00  0.00    -0.351 A  
HETATM   18  C   UNL     1     -10.076  10.098  69.571  1.00  0.00    -0.258 A  
HETATM   19  C   UNL     1      -9.907   9.203  70.627  1.00  0.00    -0.308 A  
HETATM   20  C   UNL     1     -10.932   9.016  71.552  1.00  0.00    -0.418 A  
HETATM   21  C   UNL     1     -12.106   9.756  71.453  1.00  0.00    -0.486 A  
HETATM   22  C   UNL     1     -12.279  10.654  70.399  1.00  0.00    -0.432 A  
ENDBRANCH  16  17
ENDBRANCH  13  16
ENDBRANCH  12  13
ENDBRANCH  11  12
ENDBRANCH  10  11
ENDBRANCH   9  10
ENDBRANCH   8   9
ENDBRANCH   7   8
ENDBRANCH   6   7
ENDBRANCH   5   6
ENDBRANCH   4   5
ENDBRANCH   3   4
ENDBRANCH   2   3
TORSDOF 13
ENDMDL
MODEL       84
REMARK 921   NORMALIZED FREE ENERGY PREDICTED BY IDOCK:   -4.19 KCAL/MOL
REMARK 922        TOTAL FREE ENERGY PREDICTED BY IDOCK:   -8.85 KCAL/MOL
REMARK 923 INTER-LIGAND FREE ENERGY PREDICTED BY IDOCK:   -6.99 KCAL/MOL
REMARK 924 INTRA-LIGAND FREE ENERGY PREDICTED BY IDOCK:   -1.86 KCAL/MOL
REMARK 927      BINDING AFFINITY PREDICTED BY RF-SCORE:    0.00 PKD
ROOT
HETATM    1  C   UNL     1      -7.914   7.350  71.513  1.00  0.00    -0.095 C  
HETATM    2  C   UNL     1      -8.685   8.389  72.309  1.00  0.00    -0.277 C  
ENDROOT
BRANCH   2   3
HETATM    3  C   UNL     1      -9.253   7.786  73.591  1.00  0.00    -0.344 C  
BRANCH   3   4
HETATM    4  C   UNL     1     -10.606   7.129  73.337  1.00  0.00    -0.424 C  
BRANCH   4   5
HETATM    5  C   UNL     1     -11.501   8.046  72.509  1.00  0.00    -0.471 C  
BRANCH   5   6
HETATM    6  C   UNL     1     -12.075   7.300  71.312  1.00  0.00    -0.373 C  
BRANCH   6   7
HETATM    7  C   UNL     1     -11.331   5.991  71.070  1.00  0.00    -0.299 C  
BRANCH   7   8
HETATM    8  C   UNL     1     -10.820   5.943  69.635  1.00  0.00    -0.444 C  
BRANCH   8   9
HETATM    9  C   UNL     1     -10.998   7.282  68.927  1.00  0.00    -0.055 C  
BRANCH   9  10
HETATM   10  C   UNL     1     -10.700   7.194  67.430  1.00  0.00    -0.368 C  
BRANCH  10  11
HETATM   11  C   UNL     1     -10.222   8.501  66.786  1.00  0.00    -0.370 C  
BRANCH  11  12
HETATM   12  C   UNL     1      -9.697   9.515  67.810  1.00  0.00    -0.147 C  
BRANCH  12  13
HETATM   13  N   UNL     1      -9.810  10.980  67.344  1.00  0.00    -0.172 N  
HETATM   14  C   UNL     1      -8.901  11.880  68.172  1.00  0.00    -0.178 C  
HETATM   15  C   UNL     1      -9.443  11.108  65.871  1.00  0.00    -0.215 C  
BRANCH  13  16
HETATM   16  C   UNL     1     -11.306  11.406  67.539  1.00  0.00    -0.292 C  
BRANCH  16  17
HETATM   17  C   UNL     1     -11.676  11.820  68.942  1.00  0.00    -0.384 A  
HETATM   18  C   UNL     1     -12.078  10.861  69.886  1.00  0.00    -0.428 A  
HETATM   19  C   UNL     1     -12.617  11.259  71.109  1.00  0.00    -0.501 A  
HETATM   20  C   UNL     1     -12.734  12.614  71.411  1.00  0.00    -0.347 A  
HETATM   21  C   UNL     1     -12.268  13.572  70.514  1.00  0.00    -0.433 A  
HETATM   22  C   UNL     1     -11.726  13.178  69.291  1.00  0.00    -0.376 A  
ENDBRANCH  16  17
ENDBRANCH  13  16
ENDBRANCH  12  13
ENDBRANCH  11  12
ENDBRANCH  10  11
ENDBRANCH   9  10
ENDBRANCH   8   9
ENDBRANCH   7   8
ENDBRANCH   6   7
ENDBRANCH   5   6
ENDBRANCH   4   5
ENDBRANCH   3   4
ENDBRANCH   2   3
TORSDOF 13
ENDMDL
MODEL       85
REMARK 921   NORMALIZED FREE ENERGY PREDICTED BY IDOCK:   -4.18 KCAL/MOL
REMARK 922        TOTAL FREE ENERGY PREDICTED BY IDOCK:   -8.83 KCAL/MOL
REMARK 923 INTER-LIGAND FREE ENERGY PREDICTED BY IDOCK:   -6.73 KCAL/MOL
REMARK 924 INTRA-LIGAND FREE ENERGY PREDICTED BY IDOCK:   -2.10 KCAL/MOL
REMARK 927      BINDING AFFINITY PREDICTED BY RF-SCORE:    0.00 PKD
ROOT
HETATM    1  C   UNL     1     -10.898  15.201  64.953  1.00  0.00    -0.437 C  
HETATM    2  C   UNL     1     -10.544  13.750  64.674  1.00  0.00    -0.443 C  
ENDROOT
BRANCH   2   3
HETATM    3  C   UNL     1     -11.572  12.807  65.293  1.00  0.00    -0.379 C  
BRANCH   3   4
HETATM    4  C   UNL     1     -12.270  13.458  66.483  1.00  0.00    -0.414 C  
BRANCH   4   5
HETATM    5  C   UNL     1     -11.761  12.866  67.794  1.00  0.00    -0.412 C  
BRANCH   5   6
HETATM    6  C   UNL     1     -10.794  13.824  68.478  1.00  0.00    -0.280 C  
BRANCH   6   7
HETATM    7  C   UNL     1     -11.508  14.674  69.524  1.00  0.00    -0.334 C  
BRANCH   7   8
HETATM    8  C   UNL     1     -11.781  16.064  68.963  1.00  0.00    -0.322 C  
BRANCH   8   9
HETATM    9  C   UNL     1     -10.494  16.865  68.790  1.00  0.00    -0.343 C  
BRANCH   9  10
HETATM   10  C   UNL     1     -10.555  17.811  67.590  1.00  0.00    -0.385 C  
BRANCH  10  11
HETATM   11  C   UNL     1      -9.693  19.074  67.717  1.00  0.00    -0.383 C  
BRANCH  11  12
HETATM   12  C   UNL     1      -8.526  18.906  68.697  1.00  0.00    -0.346 C  
BRANCH  12  13
HETATM   13  N   UNL     1      -7.195  19.487  68.180  1.00  0.00    -0.285 N  
HETATM   14  C   UNL     1      -7.451  20.603  67.175  1.00  0.00    -0.330 C  
HETATM   15  C   UNL     1      -6.358  20.027  69.334  1.00  0.00    -0.339 C  
BRANCH  13  16
HETATM   16  C   UNL     1      -6.422  18.312  67.490  1.00  0.00    -0.190 C  
BRANCH  16  17
HETATM   17  C   UNL     1      -6.782  16.932  67.983  1.00  0.00    -0.155 A  
HETATM   18  C   UNL     1      -6.480  16.541  69.298  1.00  0.00    -0.201 A  
HETATM   19  C   UNL     1      -6.620  15.210  69.687  1.00  0.00    -0.173 A  
HETATM   20  C   UNL     1      -7.089  14.264  68.779  1.00  0.00    -0.105 A  
HETATM   21  C   UNL     1      -7.465  14.653  67.497  1.00  0.00    -0.217 A  
HETATM   22  C   UNL     1      -7.328  15.984  67.103  1.00  0.00    -0.257 A  
ENDBRANCH  16  17
ENDBRANCH  13  16
ENDBRANCH  12  13
ENDBRANCH  11  12
ENDBRANCH  10  11
ENDBRANCH   9  10
ENDBRANCH   8   9
ENDBRANCH   7   8
ENDBRANCH   6   7
ENDBRANCH   5   6
ENDBRANCH   4   5
ENDBRANCH   3   4
ENDBRANCH   2   3
TORSDOF 13
ENDMDL
MODEL       86
REMARK 921   NORMALIZED FREE ENERGY PREDICTED BY IDOCK:   -4.18 KCAL/MOL
REMARK 922        TOTAL FREE ENERGY PREDICTED BY IDOCK:   -8.83 KCAL/MOL
REMARK 923 INTER-LIGAND FREE ENERGY PREDICTED BY IDOCK:   -7.55 KCAL/MOL
REMARK 924 INTRA-LIGAND FREE ENERGY PREDICTED BY IDOCK:   -1.28 KCAL/MOL
REMARK 927      BINDING AFFINITY PREDICTED BY RF-SCORE:    0.00 PKD
ROOT
HETATM    1  C   UNL     1     -13.079  11.985  71.707  1.00  0.00    -0.460 C  
HETATM    2  C   UNL     1     -13.020  10.602  71.080  1.00  0.00    -0.483 C  
ENDROOT
BRANCH   2   3
HETATM    3  C   UNL     1     -13.131   9.513  72.145  1.00  0.00    -0.522 C  
BRANCH   3   4
HETATM    4  C   UNL     1     -14.124   8.434  71.726  1.00  0.00    -0.509 C  
BRANCH   4   5
HETATM    5  C   UNL     1     -13.412   7.099  71.523  1.00  0.00    -0.411 C  
BRANCH   5   6
HETATM    6  C   UNL     1     -12.027   7.127  72.155  1.00  0.00    -0.304 C  
BRANCH   6   7
HETATM    7  C   UNL     1     -10.970   6.604  71.187  1.00  0.00    -0.302 C  
BRANCH   7   8
HETATM    8  C   UNL     1     -11.494   6.678  69.759  1.00  0.00    -0.388 C  
BRANCH   8   9
HETATM    9  C   UNL     1     -10.554   7.466  68.852  1.00  0.00    -0.191 C  
BRANCH   9  10
HETATM   10  C   UNL     1      -9.675   8.445  69.632  1.00  0.00    -0.173 C  
BRANCH  10  11
HETATM   11  C   UNL     1     -10.040   9.924  69.458  1.00  0.00    -0.240 C  
BRANCH  11  12
HETATM   12  C   UNL     1      -8.948  10.731  68.745  1.00  0.00    -0.170 C  
BRANCH  12  13
HETATM   13  N   UNL     1      -9.227  10.961  67.247  1.00  0.00    -0.151 N  
HETATM   14  C   UNL     1      -8.720  12.331  66.811  1.00  0.00    -0.175 C  
HETATM   15  C   UNL     1      -8.560   9.883  66.402  1.00  0.00    -0.128 C  
BRANCH  13  16
HETATM   16  C   UNL     1     -10.779  10.878  67.054  1.00  0.00    -0.271 C  
BRANCH  16  17
HETATM   17  C   UNL     1     -11.348  11.822  66.023  1.00  0.00    -0.335 A  
HETATM   18  C   UNL     1     -11.131  11.597  64.654  1.00  0.00    -0.342 A  
HETATM   19  C   UNL     1     -11.472  12.572  63.717  1.00  0.00    -0.542 A  
HETATM   20  C   UNL     1     -12.058  13.765  64.135  1.00  0.00    -0.478 A  
HETATM   21  C   UNL     1     -12.348  13.967  65.481  1.00  0.00    -0.506 A  
HETATM   22  C   UNL     1     -12.009  12.993  66.422  1.00  0.00    -0.466 A  
ENDBRANCH  16  17
ENDBRANCH  13  16
ENDBRANCH  12  13
ENDBRANCH  11  12
ENDBRANCH  10  11
ENDBRANCH   9  10
ENDBRANCH   8   9
ENDBRANCH   7   8
ENDBRANCH   6   7
ENDBRANCH   5   6
ENDBRANCH   4   5
ENDBRANCH   3   4
ENDBRANCH   2   3
TORSDOF 13
ENDMDL
MODEL       87
REMARK 921   NORMALIZED FREE ENERGY PREDICTED BY IDOCK:   -4.16 KCAL/MOL
REMARK 922        TOTAL FREE ENERGY PREDICTED BY IDOCK:   -8.80 KCAL/MOL
REMARK 923 INTER-LIGAND FREE ENERGY PREDICTED BY IDOCK:   -7.27 KCAL/MOL
REMARK 924 INTRA-LIGAND FREE ENERGY PREDICTED BY IDOCK:   -1.54 KCAL/MOL
REMARK 927      BINDING AFFINITY PREDICTED BY RF-SCORE:    0.00 PKD
ROOT
HETATM    1  C   UNL     1     -10.967   6.578  67.282  1.00  0.00    -0.475 C  
HETATM    2  C   UNL     1     -10.762   7.109  68.691  1.00  0.00    -0.198 C  
ENDROOT
BRANCH   2   3
HETATM    3  C   UNL     1     -11.061   6.033  69.731  1.00  0.00    -0.476 C  
BRANCH   3   4
HETATM    4  C   UNL     1     -11.052   6.613  71.142  1.00  0.00    -0.326 C  
BRANCH   4   5
HETATM    5  C   UNL     1     -12.341   7.383  71.413  1.00  0.00    -0.394 C  
BRANCH   5   6
HETATM    6  C   UNL     1     -12.036   8.750  72.012  1.00  0.00    -0.447 C  
BRANCH   6   7
HETATM    7  C   UNL     1     -11.445   9.689  70.966  1.00  0.00    -0.444 C  
BRANCH   7   8
HETATM    8  C   UNL     1     -12.282  10.958  70.877  1.00  0.00    -0.485 C  
BRANCH   8   9
HETATM    9  C   UNL     1     -12.069  11.684  69.552  1.00  0.00    -0.336 C  
BRANCH   9  10
HETATM   10  C   UNL     1     -10.816  11.205  68.819  1.00  0.00    -0.256 C  
BRANCH  10  11
HETATM   11  C   UNL     1     -11.036  10.801  67.356  1.00  0.00    -0.363 C  
BRANCH  11  12
HETATM   12  C   UNL     1     -11.526  11.962  66.482  1.00  0.00    -0.314 C  
BRANCH  12  13
HETATM   13  N   UNL     1     -10.509  12.400  65.409  1.00  0.00    -0.270 N  
HETATM   14  C   UNL     1      -9.218  11.601  65.535  1.00  0.00    -0.099 C  
HETATM   15  C   UNL     1     -11.086  12.213  64.011  1.00  0.00    -0.386 C  
BRANCH  13  16
HETATM   16  C   UNL     1     -10.223  13.922  65.647  1.00  0.00    -0.328 C  
BRANCH  16  17
HETATM   17  C   UNL     1     -10.414  14.395  67.067  1.00  0.00    -0.268 A  
HETATM   18  C   UNL     1     -11.672  14.836  67.509  1.00  0.00    -0.370 A  
HETATM   19  C   UNL     1     -11.804  15.466  68.745  1.00  0.00    -0.339 A  
HETATM   20  C   UNL     1     -10.689  15.635  69.564  1.00  0.00    -0.271 A  
HETATM   21  C   UNL     1      -9.452  15.133  69.170  1.00  0.00    -0.221 A  
HETATM   22  C   UNL     1      -9.316  14.501  67.934  1.00  0.00    -0.201 A  
ENDBRANCH  16  17
ENDBRANCH  13  16
ENDBRANCH  12  13
ENDBRANCH  11  12
ENDBRANCH  10  11
ENDBRANCH   9  10
ENDBRANCH   8   9
ENDBRANCH   7   8
ENDBRANCH   6   7
ENDBRANCH   5   6
ENDBRANCH   4   5
ENDBRANCH   3   4
ENDBRANCH   2   3
TORSDOF 13
ENDMDL
MODEL       88
REMARK 921   NORMALIZED FREE ENERGY PREDICTED BY IDOCK:   -4.16 KCAL/MOL
REMARK 922        TOTAL FREE ENERGY PREDICTED BY IDOCK:   -8.80 KCAL/MOL
REMARK 923 INTER-LIGAND FREE ENERGY PREDICTED BY IDOCK:   -6.71 KCAL/MOL
REMARK 924 INTRA-LIGAND FREE ENERGY PREDICTED BY IDOCK:   -2.09 KCAL/MOL
REMARK 927      BINDING AFFINITY PREDICTED BY RF-SCORE:    0.00 PKD
ROOT
HETATM    1  C   UNL     1      -9.820   4.812  70.993  1.00  0.00    -0.267 C  
HETATM    2  C   UNL     1     -10.230   5.294  69.611  1.00  0.00    -0.348 C  
ENDROOT
BRANCH   2   3
HETATM    3  C   UNL     1     -11.387   6.286  69.699  1.00  0.00    -0.492 C  
BRANCH   3   4
HETATM    4  C   UNL     1     -11.949   6.352  71.116  1.00  0.00    -0.273 C  
BRANCH   4   5
HETATM    5  C   UNL     1     -12.622   7.699  71.364  1.00  0.00    -0.359 C  
BRANCH   5   6
HETATM    6  C   UNL     1     -11.663   8.660  72.055  1.00  0.00    -0.439 C  
BRANCH   6   7
HETATM    7  C   UNL     1     -10.702   7.913  72.974  1.00  0.00    -0.408 C  
BRANCH   7   8
HETATM    8  C   UNL     1      -9.264   8.194  72.557  1.00  0.00    -0.319 C  
BRANCH   8   9
HETATM    9  C   UNL     1      -9.197   8.975  71.248  1.00  0.00    -0.314 C  
BRANCH   9  10
HETATM   10  C   UNL     1      -8.140   8.421  70.292  1.00  0.00    -0.104 C  
BRANCH  10  11
HETATM   11  C   UNL     1      -8.398   8.705  68.807  1.00  0.00    -0.121 C  
BRANCH  11  12
HETATM   12  C   UNL     1      -9.744   9.393  68.554  1.00  0.00    -0.149 C  
BRANCH  12  13
HETATM   13  N   UNL     1      -9.671  10.535  67.522  1.00  0.00    -0.164 N  
HETATM   14  C   UNL     1      -8.801  11.674  68.041  1.00  0.00    -0.162 C  
HETATM   15  C   UNL     1      -9.107  10.032  66.199  1.00  0.00    -0.156 C  
BRANCH  13  16
HETATM   16  C   UNL     1     -11.137  11.041  67.297  1.00  0.00    -0.294 C  
BRANCH  16  17
HETATM   17  C   UNL     1     -11.682  11.929  68.388  1.00  0.00    -0.387 A  
HETATM   18  C   UNL     1     -11.693  13.326  68.233  1.00  0.00    -0.388 A  
HETATM   19  C   UNL     1     -11.998  14.152  69.314  1.00  0.00    -0.382 A  
HETATM   20  C   UNL     1     -12.323  13.593  70.548  1.00  0.00    -0.425 A  
HETATM   21  C   UNL     1     -12.391  12.211  70.692  1.00  0.00    -0.385 A  
HETATM   22  C   UNL     1     -12.088  11.380  69.614  1.00  0.00    -0.373 A  
ENDBRANCH  16  17
ENDBRANCH  13  16
ENDBRANCH  12  13
ENDBRANCH  11  12
ENDBRANCH  10  11
ENDBRANCH   9  10
ENDBRANCH   8   9
ENDBRANCH   7   8
ENDBRANCH   6   7
ENDBRANCH   5   6
ENDBRANCH   4   5
ENDBRANCH   3   4
ENDBRANCH   2   3
TORSDOF 13
ENDMDL
MODEL       89
REMARK 921   NORMALIZED FREE ENERGY PREDICTED BY IDOCK:   -4.16 KCAL/MOL
REMARK 922        TOTAL FREE ENERGY PREDICTED BY IDOCK:   -8.79 KCAL/MOL
REMARK 923 INTER-LIGAND FREE ENERGY PREDICTED BY IDOCK:   -6.65 KCAL/MOL
REMARK 924 INTRA-LIGAND FREE ENERGY PREDICTED BY IDOCK:   -2.14 KCAL/MOL
REMARK 927      BINDING AFFINITY PREDICTED BY RF-SCORE:    0.00 PKD
ROOT
HETATM    1  C   UNL     1     -12.212  12.195  63.607  1.00  0.00    -0.663 C  
HETATM    2  C   UNL     1     -10.806  11.648  63.420  1.00  0.00    -0.453 C  
ENDROOT
BRANCH   2   3
HETATM    3  C   UNL     1     -10.375  10.822  64.629  1.00  0.00    -0.394 C  
BRANCH   3   4
HETATM    4  C   UNL     1     -10.739  11.524  65.933  1.00  0.00    -0.325 C  
BRANCH   4   5
HETATM    5  C   UNL     1     -10.795  10.524  67.084  1.00  0.00    -0.319 C  
BRANCH   5   6
HETATM    6  C   UNL     1      -9.911  10.981  68.237  1.00  0.00    -0.185 C  
BRANCH   6   7
HETATM    7  C   UNL     1      -8.622  11.616  67.725  1.00  0.00    -0.144 C  
BRANCH   7   8
HETATM    8  C   UNL     1      -8.406  12.965  68.400  1.00  0.00    -0.116 C  
BRANCH   8   9
HETATM    9  C   UNL     1      -8.110  14.064  67.384  1.00  0.00    -0.199 C  
BRANCH   9  10
HETATM   10  C   UNL     1      -6.816  14.816  67.699  1.00  0.00    -0.205 C  
BRANCH  10  11
HETATM   11  C   UNL     1      -6.957  16.341  67.780  1.00  0.00    -0.155 C  
BRANCH  11  12
HETATM   12  C   UNL     1      -8.188  16.787  68.577  1.00  0.00    -0.242 C  
BRANCH  12  13
HETATM   13  N   UNL     1      -9.013  17.886  67.878  1.00  0.00    -0.259 N  
HETATM   14  C   UNL     1      -8.513  19.269  68.277  1.00  0.00    -0.331 C  
HETATM   15  C   UNL     1      -8.935  17.737  66.363  1.00  0.00    -0.229 C  
BRANCH  13  16
HETATM   16  C   UNL     1     -10.500  17.701  68.336  1.00  0.00    -0.359 C  
BRANCH  16  17
HETATM   17  C   UNL     1     -10.919  16.274  68.591  1.00  0.00    -0.340 A  
HETATM   18  C   UNL     1     -11.326  15.449  67.529  1.00  0.00    -0.269 A  
HETATM   19  C   UNL     1     -11.908  14.208  67.784  1.00  0.00    -0.414 A  
HETATM   20  C   UNL     1     -12.063  13.767  69.096  1.00  0.00    -0.374 A  
HETATM   21  C   UNL     1     -11.594  14.542  70.153  1.00  0.00    -0.334 A  
HETATM   22  C   UNL     1     -11.009  15.784  69.903  1.00  0.00    -0.335 A  
ENDBRANCH  16  17
ENDBRANCH  13  16
ENDBRANCH  12  13
ENDBRANCH  11  12
ENDBRANCH  10  11
ENDBRANCH   9  10
ENDBRANCH   8   9
ENDBRANCH   7   8
ENDBRANCH   6   7
ENDBRANCH   5   6
ENDBRANCH   4   5
ENDBRANCH   3   4
ENDBRANCH   2   3
TORSDOF 13
ENDMDL
MODEL       90
REMARK 921   NORMALIZED FREE ENERGY PREDICTED BY IDOCK:   -4.16 KCAL/MOL
REMARK 922        TOTAL FREE ENERGY PREDICTED BY IDOCK:   -8.79 KCAL/MOL
REMARK 923 INTER-LIGAND FREE ENERGY PREDICTED BY IDOCK:   -7.25 KCAL/MOL
REMARK 924 INTRA-LIGAND FREE ENERGY PREDICTED BY IDOCK:   -1.54 KCAL/MOL
REMARK 927      BINDING AFFINITY PREDICTED BY RF-SCORE:    0.00 PKD
ROOT
HETATM    1  C   UNL     1     -11.575   7.248  72.419  1.00  0.00    -0.307 C  
HETATM    2  C   UNL     1     -12.541   8.157  71.678  1.00  0.00    -0.347 C  
ENDROOT
BRANCH   2   3
HETATM    3  C   UNL     1     -11.951   9.553  71.498  1.00  0.00    -0.475 C  
BRANCH   3   4
HETATM    4  C   UNL     1     -11.280   9.696  70.135  1.00  0.00    -0.302 C  
BRANCH   4   5
HETATM    5  C   UNL     1      -9.769   9.527  70.260  1.00  0.00    -0.314 C  
BRANCH   5   6
HETATM    6  C   UNL     1      -9.192   8.892  69.002  1.00  0.00    -0.140 C  
BRANCH   6   7
HETATM    7  C   UNL     1     -10.214   7.983  68.326  1.00  0.00    -0.243 C  
BRANCH   7   8
HETATM    8  C   UNL     1     -10.298   8.313  66.842  1.00  0.00    -0.391 C  
BRANCH   8   9
HETATM    9  C   UNL     1      -9.557   9.603  66.506  1.00  0.00    -0.252 C  
BRANCH   9  10
HETATM   10  C   UNL     1     -10.350  10.500  65.554  1.00  0.00    -0.287 C  
BRANCH  10  11
HETATM   11  C   UNL     1     -11.208  11.571  66.238  1.00  0.00    -0.286 C  
BRANCH  11  12
HETATM   12  C   UNL     1     -10.453  12.333  67.335  1.00  0.00    -0.210 C  
BRANCH  12  13
HETATM   13  N   UNL     1     -10.766  13.842  67.367  1.00  0.00    -0.273 N  
HETATM   14  C   UNL     1      -9.882  14.595  66.381  1.00  0.00    -0.285 C  
HETATM   15  C   UNL     1     -12.230  14.096  67.031  1.00  0.00    -0.339 C  
BRANCH  13  16
HETATM   16  C   UNL     1     -10.481  14.335  68.827  1.00  0.00    -0.249 C  
BRANCH  16  17
HETATM   17  C   UNL     1     -11.672  14.315  69.753  1.00  0.00    -0.367 A  
HETATM   18  C   UNL     1     -12.304  15.512  70.129  1.00  0.00    -0.384 A  
HETATM   19  C   UNL     1     -13.263  15.515  71.141  1.00  0.00    -0.576 A  
HETATM   20  C   UNL     1     -13.621  14.322  71.765  1.00  0.00    -0.479 A  
HETATM   21  C   UNL     1     -13.058  13.119  71.348  1.00  0.00    -0.352 A  
HETATM   22  C   UNL     1     -12.099  13.112  70.336  1.00  0.00    -0.392 A  
ENDBRANCH  16  17
ENDBRANCH  13  16
ENDBRANCH  12  13
ENDBRANCH  11  12
ENDBRANCH  10  11
ENDBRANCH   9  10
ENDBRANCH   8   9
ENDBRANCH   7   8
ENDBRANCH   6   7
ENDBRANCH   5   6
ENDBRANCH   4   5
ENDBRANCH   3   4
ENDBRANCH   2   3
TORSDOF 13
ENDMDL
MODEL       91
REMARK 921   NORMALIZED FREE ENERGY PREDICTED BY IDOCK:   -4.15 KCAL/MOL
REMARK 922        TOTAL FREE ENERGY PREDICTED BY IDOCK:   -8.78 KCAL/MOL
REMARK 923 INTER-LIGAND FREE ENERGY PREDICTED BY IDOCK:   -6.20 KCAL/MOL
REMARK 924 INTRA-LIGAND FREE ENERGY PREDICTED BY IDOCK:   -2.59 KCAL/MOL
REMARK 927      BINDING AFFINITY PREDICTED BY RF-SCORE:    0.00 PKD
ROOT
HETATM    1  C   UNL     1     -11.929  12.696  65.626  1.00  0.00    -0.507 C  
HETATM    2  C   UNL     1     -11.553  13.276  66.980  1.00  0.00    -0.404 C  
ENDROOT
BRANCH   2   3
HETATM    3  C   UNL     1     -11.902  12.307  68.106  1.00  0.00    -0.372 C  
BRANCH   3   4
HETATM    4  C   UNL     1     -11.691  12.952  69.472  1.00  0.00    -0.387 C  
BRANCH   4   5
HETATM    5  C   UNL     1     -12.323  12.103  70.571  1.00  0.00    -0.358 C  
BRANCH   5   6
HETATM    6  C   UNL     1     -12.269  10.625  70.207  1.00  0.00    -0.417 C  
BRANCH   6   7
HETATM    7  C   UNL     1     -11.871   9.776  71.411  1.00  0.00    -0.488 C  
BRANCH   7   8
HETATM    8  C   UNL     1     -12.856   8.627  71.581  1.00  0.00    -0.380 C  
BRANCH   8   9
HETATM    9  C   UNL     1     -12.194   7.274  71.336  1.00  0.00    -0.384 C  
BRANCH   9  10
HETATM   10  C   UNL     1     -10.673   7.335  71.481  1.00  0.00    -0.241 C  
BRANCH  10  11
HETATM   11  C   UNL     1      -9.895   6.429  70.519  1.00  0.00    -0.207 C  
BRANCH  11  12
HETATM   12  C   UNL     1     -10.741   5.946  69.335  1.00  0.00    -0.336 C  
BRANCH  12  13
HETATM   13  N   UNL     1     -10.271   6.494  67.974  1.00  0.00    -0.150 N  
HETATM   14  C   UNL     1      -8.751   6.584  67.925  1.00  0.00    -0.116 C  
HETATM   15  C   UNL     1     -10.762   5.607  66.836  1.00  0.00    -0.272 C  
BRANCH  13  16
HETATM   16  C   UNL     1     -10.897   7.923  67.817  1.00  0.00    -0.024 C  
BRANCH  16  17
HETATM   17  C   UNL     1      -9.902   9.038  67.609  1.00  0.00    -0.220 A  
HETATM   18  C   UNL     1      -9.267   9.642  68.707  1.00  0.00    -0.141 A  
HETATM   19  C   UNL     1      -8.513  10.801  68.535  1.00  0.00    -0.143 A  
HETATM   20  C   UNL     1      -8.363  11.353  67.265  1.00  0.00    -0.149 A  
HETATM   21  C   UNL     1      -8.924  10.721  66.158  1.00  0.00    -0.192 A  
HETATM   22  C   UNL     1      -9.677   9.559  66.326  1.00  0.00    -0.310 A  
ENDBRANCH  16  17
ENDBRANCH  13  16
ENDBRANCH  12  13
ENDBRANCH  11  12
ENDBRANCH  10  11
ENDBRANCH   9  10
ENDBRANCH   8   9
ENDBRANCH   7   8
ENDBRANCH   6   7
ENDBRANCH   5   6
ENDBRANCH   4   5
ENDBRANCH   3   4
ENDBRANCH   2   3
TORSDOF 13
ENDMDL
MODEL       92
REMARK 921   NORMALIZED FREE ENERGY PREDICTED BY IDOCK:   -4.15 KCAL/MOL
REMARK 922        TOTAL FREE ENERGY PREDICTED BY IDOCK:   -8.78 KCAL/MOL
REMARK 923 INTER-LIGAND FREE ENERGY PREDICTED BY IDOCK:   -7.90 KCAL/MOL
REMARK 924 INTRA-LIGAND FREE ENERGY PREDICTED BY IDOCK:   -0.88 KCAL/MOL
REMARK 927      BINDING AFFINITY PREDICTED BY RF-SCORE:    0.00 PKD
ROOT
HETATM    1  C   UNL     1     -13.046  10.300  71.748  1.00  0.00    -0.570 C  
HETATM    2  C   UNL     1     -12.207   9.041  71.602  1.00  0.00    -0.418 C  
ENDROOT
BRANCH   2   3
HETATM    3  C   UNL     1     -10.757   9.385  71.270  1.00  0.00    -0.421 C  
BRANCH   3   4
HETATM    4  C   UNL     1     -10.623   9.872  69.830  1.00  0.00    -0.312 C  
BRANCH   4   5
HETATM    5  C   UNL     1     -10.128   8.746  68.927  1.00  0.00    -0.210 C  
BRANCH   5   6
HETATM    6  C   UNL     1     -10.314   9.113  67.460  1.00  0.00    -0.324 C  
BRANCH   6   7
HETATM    7  C   UNL     1     -10.761  10.563  67.307  1.00  0.00    -0.333 C  
BRANCH   7   8
HETATM    8  C   UNL     1      -9.833  11.291  66.343  1.00  0.00    -0.243 C  
BRANCH   8   9
HETATM    9  C   UNL     1     -10.613  12.072  65.290  1.00  0.00    -0.328 C  
BRANCH   9  10
HETATM   10  C   UNL     1     -12.009  12.468  65.772  1.00  0.00    -0.482 C  
BRANCH  10  11
HETATM   11  C   UNL     1     -12.200  13.965  66.044  1.00  0.00    -0.495 C  
BRANCH  11  12
HETATM   12  C   UNL     1     -11.975  14.340  67.513  1.00  0.00    -0.376 C  
BRANCH  12  13
HETATM   13  N   UNL     1     -10.747  15.244  67.739  1.00  0.00    -0.278 N  
HETATM   14  C   UNL     1     -11.064  16.339  68.750  1.00  0.00    -0.355 C  
HETATM   15  C   UNL     1      -9.559  14.427  68.235  1.00  0.00    -0.211 C  
BRANCH  13  16
HETATM   16  C   UNL     1     -10.389  15.882  66.354  1.00  0.00    -0.306 C  
BRANCH  16  17
HETATM   17  C   UNL     1      -9.740  17.242  66.424  1.00  0.00    -0.303 A  
HETATM   18  C   UNL     1     -10.523  18.408  66.413  1.00  0.00    -0.412 A  
HETATM   19  C   UNL     1      -9.924  19.658  66.266  1.00  0.00    -0.563 A  
HETATM   20  C   UNL     1      -8.538  19.758  66.158  1.00  0.00    -0.367 A  
HETATM   21  C   UNL     1      -7.747  18.617  66.245  1.00  0.00    -0.290 A  
HETATM   22  C   UNL     1      -8.342  17.364  66.393  1.00  0.00    -0.302 A  
ENDBRANCH  16  17
ENDBRANCH  13  16
ENDBRANCH  12  13
ENDBRANCH  11  12
ENDBRANCH  10  11
ENDBRANCH   9  10
ENDBRANCH   8   9
ENDBRANCH   7   8
ENDBRANCH   6   7
ENDBRANCH   5   6
ENDBRANCH   4   5
ENDBRANCH   3   4
ENDBRANCH   2   3
TORSDOF 13
ENDMDL
MODEL       93
REMARK 921   NORMALIZED FREE ENERGY PREDICTED BY IDOCK:   -4.15 KCAL/MOL
REMARK 922        TOTAL FREE ENERGY PREDICTED BY IDOCK:   -8.78 KCAL/MOL
REMARK 923 INTER-LIGAND FREE ENERGY PREDICTED BY IDOCK:   -8.31 KCAL/MOL
REMARK 924 INTRA-LIGAND FREE ENERGY PREDICTED BY IDOCK:   -0.47 KCAL/MOL
REMARK 927      BINDING AFFINITY PREDICTED BY RF-SCORE:    0.00 PKD
ROOT
HETATM    1  C   UNL     1     -11.913   7.446  71.326  1.00  0.00    -0.343 C  
HETATM    2  C   UNL     1     -12.166   8.850  71.848  1.00  0.00    -0.445 C  
ENDROOT
BRANCH   2   3
HETATM    3  C   UNL     1     -11.432   9.889  71.004  1.00  0.00    -0.466 C  
BRANCH   3   4
HETATM    4  C   UNL     1     -12.290  11.133  70.793  1.00  0.00    -0.504 C  
BRANCH   4   5
HETATM    5  C   UNL     1     -13.210  11.359  71.990  1.00  0.00    -0.432 C  
BRANCH   5   6
HETATM    6  C   UNL     1     -13.418  12.847  72.235  1.00  0.00    -0.631 C  
BRANCH   6   7
HETATM    7  C   UNL     1     -12.604  13.686  71.256  1.00  0.00    -0.435 C  
BRANCH   7   8
HETATM    8  C   UNL     1     -12.015  14.894  71.973  1.00  0.00    -0.428 C  
BRANCH   8   9
HETATM    9  C   UNL     1     -11.562  15.969  70.991  1.00  0.00    -0.472 C  
BRANCH   9  10
HETATM   10  C   UNL     1     -12.072  15.715  69.571  1.00  0.00    -0.307 C  
BRANCH  10  11
HETATM   11  C   UNL     1     -11.112  16.138  68.453  1.00  0.00    -0.359 C  
BRANCH  11  12
HETATM   12  C   UNL     1      -9.640  16.104  68.883  1.00  0.00    -0.245 C  
BRANCH  12  13
HETATM   13  N   UNL     1      -8.738  17.059  68.076  1.00  0.00    -0.213 N  
HETATM   14  C   UNL     1      -7.269  16.805  68.391  1.00  0.00    -0.191 C  
HETATM   15  C   UNL     1      -8.972  16.887  66.580  1.00  0.00    -0.252 C  
BRANCH  13  16
HETATM   16  C   UNL     1      -9.130  18.518  68.493  1.00  0.00    -0.328 C  
BRANCH  16  17
HETATM   17  C   UNL     1      -8.026  19.538  68.367  1.00  0.00    -0.374 A  
HETATM   18  C   UNL     1      -7.842  20.247  67.169  1.00  0.00    -0.370 A  
HETATM   19  C   UNL     1      -6.705  21.030  66.980  1.00  0.00    -0.409 A  
HETATM   20  C   UNL     1      -5.755  21.135  67.994  1.00  0.00    -0.396 A  
HETATM   21  C   UNL     1      -5.964  20.498  69.214  1.00  0.00    -0.383 A  
HETATM   22  C   UNL     1      -7.102  19.715  69.408  1.00  0.00    -0.326 A  
ENDBRANCH  16  17
ENDBRANCH  13  16
ENDBRANCH  12  13
ENDBRANCH  11  12
ENDBRANCH  10  11
ENDBRANCH   9  10
ENDBRANCH   8   9
ENDBRANCH   7   8
ENDBRANCH   6   7
ENDBRANCH   5   6
ENDBRANCH   4   5
ENDBRANCH   3   4
ENDBRANCH   2   3
TORSDOF 13
ENDMDL
MODEL       94
REMARK 921   NORMALIZED FREE ENERGY PREDICTED BY IDOCK:   -4.15 KCAL/MOL
REMARK 922        TOTAL FREE ENERGY PREDICTED BY IDOCK:   -8.78 KCAL/MOL
REMARK 923 INTER-LIGAND FREE ENERGY PREDICTED BY IDOCK:   -7.18 KCAL/MOL
REMARK 924 INTRA-LIGAND FREE ENERGY PREDICTED BY IDOCK:   -1.59 KCAL/MOL
REMARK 927      BINDING AFFINITY PREDICTED BY RF-SCORE:    0.00 PKD
ROOT
HETATM    1  C   UNL     1     -11.990  15.858  72.174  1.00  0.00    -0.612 C  
HETATM    2  C   UNL     1     -12.059  15.731  70.661  1.00  0.00    -0.424 C  
ENDROOT
BRANCH   2   3
HETATM    3  C   UNL     1     -11.957  14.271  70.229  1.00  0.00    -0.398 C  
BRANCH   3   4
HETATM    4  C   UNL     1     -10.925  14.096  69.119  1.00  0.00    -0.280 C  
BRANCH   4   5
HETATM    5  C   UNL     1     -11.417  14.736  67.824  1.00  0.00    -0.363 C  
BRANCH   5   6
HETATM    6  C   UNL     1     -11.871  13.669  66.836  1.00  0.00    -0.451 C  
BRANCH   6   7
HETATM    7  C   UNL     1     -12.418  14.299  65.559  1.00  0.00    -0.434 C  
BRANCH   7   8
HETATM    8  C   UNL     1     -11.944  13.507  64.347  1.00  0.00    -0.466 C  
BRANCH   8   9
HETATM    9  C   UNL     1     -11.962  12.005  64.611  1.00  0.00    -0.326 C  
BRANCH   9  10
HETATM   10  C   UNL     1     -10.781  11.285  63.960  1.00  0.00    -0.444 C  
BRANCH  10  11
HETATM   11  C   UNL     1      -9.591  11.021  64.891  1.00  0.00    -0.289 C  
BRANCH  11  12
HETATM   12  C   UNL     1      -9.225   9.534  64.989  1.00  0.00    -0.236 C  
BRANCH  12  13
HETATM   13  N   UNL     1      -8.937   9.061  66.427  1.00  0.00    -0.147 N  
HETATM   14  C   UNL     1      -9.934   7.989  66.850  1.00  0.00    -0.268 C  
HETATM   15  C   UNL     1      -7.521   8.509  66.540  1.00  0.00    -0.088 C  
BRANCH  13  16
HETATM   16  C   UNL     1      -9.075  10.316  67.356  1.00  0.00    -0.138 C  
BRANCH  16  17
HETATM   17  C   UNL     1     -10.044  10.160  68.502  1.00  0.00    -0.186 A  
HETATM   18  C   UNL     1     -11.364  10.629  68.389  1.00  0.00    -0.348 A  
HETATM   19  C   UNL     1     -12.192  10.676  69.509  1.00  0.00    -0.230 A  
HETATM   20  C   UNL     1     -11.723  10.231  70.743  1.00  0.00    -0.453 A  
HETATM   21  C   UNL     1     -10.443   9.694  70.851  1.00  0.00    -0.359 A  
HETATM   22  C   UNL     1      -9.611   9.643  69.732  1.00  0.00    -0.242 A  
ENDBRANCH  16  17
ENDBRANCH  13  16
ENDBRANCH  12  13
ENDBRANCH  11  12
ENDBRANCH  10  11
ENDBRANCH   9  10
ENDBRANCH   8   9
ENDBRANCH   7   8
ENDBRANCH   6   7
ENDBRANCH   5   6
ENDBRANCH   4   5
ENDBRANCH   3   4
ENDBRANCH   2   3
TORSDOF 13
ENDMDL
MODEL       95
REMARK 921   NORMALIZED FREE ENERGY PREDICTED BY IDOCK:   -4.14 KCAL/MOL
REMARK 922        TOTAL FREE ENERGY PREDICTED BY IDOCK:   -8.77 KCAL/MOL
REMARK 923 INTER-LIGAND FREE ENERGY PREDICTED BY IDOCK:   -7.39 KCAL/MOL
REMARK 924 INTRA-LIGAND FREE ENERGY PREDICTED BY IDOCK:   -1.37 KCAL/MOL
REMARK 927      BINDING AFFINITY PREDICTED BY RF-SCORE:    0.00 PKD
ROOT
HETATM    1  C   UNL     1     -12.324  15.418  74.290  1.00  0.00    -0.807 C  
HETATM    2  C   UNL     1     -13.270  15.986  73.245  1.00  0.00    -0.651 C  
ENDROOT
BRANCH   2   3
HETATM    3  C   UNL     1     -14.014  14.869  72.517  1.00  0.00    -0.540 C  
BRANCH   3   4
HETATM    4  C   UNL     1     -13.053  14.008  71.703  1.00  0.00    -0.435 C  
BRANCH   4   5
HETATM    5  C   UNL     1     -12.741  14.670  70.364  1.00  0.00    -0.370 C  
BRANCH   5   6
HETATM    6  C   UNL     1     -11.241  14.665  70.098  1.00  0.00    -0.230 C  
BRANCH   6   7
HETATM    7  C   UNL     1     -10.928  14.094  68.719  1.00  0.00    -0.275 C  
BRANCH   7   8
HETATM    8  C   UNL     1     -12.009  13.101  68.312  1.00  0.00    -0.328 C  
BRANCH   8   9
HETATM    9  C   UNL     1     -11.558  11.658  68.517  1.00  0.00    -0.379 C  
BRANCH   9  10
HETATM   10  C   UNL     1     -12.379  10.937  69.588  1.00  0.00    -0.290 C  
BRANCH  10  11
HETATM   11  C   UNL     1     -11.591  10.525  70.838  1.00  0.00    -0.385 C  
BRANCH  11  12
HETATM   12  C   UNL     1     -12.144   9.257  71.502  1.00  0.00    -0.361 C  
BRANCH  12  13
HETATM   13  N   UNL     1     -11.164   8.068  71.475  1.00  0.00    -0.248 N  
HETATM   14  C   UNL     1     -10.715   7.709  72.886  1.00  0.00    -0.371 C  
HETATM   15  C   UNL     1     -11.810   6.850  70.825  1.00  0.00    -0.377 C  
BRANCH  13  16
HETATM   16  C   UNL     1      -9.930   8.513  70.617  1.00  0.00    -0.189 C  
BRANCH  16  17
HETATM   17  C   UNL     1      -9.743   7.757  69.325  1.00  0.00    -0.165 A  
HETATM   18  C   UNL     1      -8.819   6.703  69.241  1.00  0.00    -0.133 A  
HETATM   19  C   UNL     1      -8.494   6.146  68.005  1.00  0.00    -0.116 A  
HETATM   20  C   UNL     1      -9.109   6.616  66.846  1.00  0.00    -0.144 A  
HETATM   21  C   UNL     1     -10.082   7.608  66.925  1.00  0.00    -0.348 A  
HETATM   22  C   UNL     1     -10.411   8.166  68.160  1.00  0.00    -0.251 A  
ENDBRANCH  16  17
ENDBRANCH  13  16
ENDBRANCH  12  13
ENDBRANCH  11  12
ENDBRANCH  10  11
ENDBRANCH   9  10
ENDBRANCH   8   9
ENDBRANCH   7   8
ENDBRANCH   6   7
ENDBRANCH   5   6
ENDBRANCH   4   5
ENDBRANCH   3   4
ENDBRANCH   2   3
TORSDOF 13
ENDMDL
MODEL       96
REMARK 921   NORMALIZED FREE ENERGY PREDICTED BY IDOCK:   -4.14 KCAL/MOL
REMARK 922        TOTAL FREE ENERGY PREDICTED BY IDOCK:   -8.76 KCAL/MOL
REMARK 923 INTER-LIGAND FREE ENERGY PREDICTED BY IDOCK:   -7.85 KCAL/MOL
REMARK 924 INTRA-LIGAND FREE ENERGY PREDICTED BY IDOCK:   -0.91 KCAL/MOL
REMARK 927      BINDING AFFINITY PREDICTED BY RF-SCORE:    0.00 PKD
ROOT
HETATM    1  C   UNL     1     -10.681   6.982  67.118  1.00  0.00    -0.433 C  
HETATM    2  C   UNL     1     -10.482   5.918  68.185  1.00  0.00    -0.291 C  
ENDROOT
BRANCH   2   3
HETATM    3  C   UNL     1     -11.275   6.251  69.445  1.00  0.00    -0.489 C  
BRANCH   3   4
HETATM    4  C   UNL     1     -10.580   5.712  70.692  1.00  0.00    -0.347 C  
BRANCH   4   5
HETATM    5  C   UNL     1     -10.827   6.632  71.884  1.00  0.00    -0.267 C  
BRANCH   5   6
HETATM    6  C   UNL     1     -10.080   7.948  71.713  1.00  0.00    -0.236 C  
BRANCH   6   7
HETATM    7  C   UNL     1     -11.044   9.129  71.688  1.00  0.00    -0.445 C  
BRANCH   7   8
HETATM    8  C   UNL     1     -10.952   9.845  70.346  1.00  0.00    -0.379 C  
BRANCH   8   9
HETATM    9  C   UNL     1     -12.081  10.854  70.164  1.00  0.00    -0.431 C  
BRANCH   9  10
HETATM   10  C   UNL     1     -12.976  10.956  71.400  1.00  0.00    -0.527 C  
BRANCH  10  11
HETATM   11  C   UNL     1     -13.268  12.386  71.872  1.00  0.00    -0.486 C  
BRANCH  11  12
HETATM   12  C   UNL     1     -12.443  13.442  71.126  1.00  0.00    -0.327 C  
BRANCH  12  13
HETATM   13  N   UNL     1     -12.751  14.888  71.561  1.00  0.00    -0.310 N  
HETATM   14  C   UNL     1     -14.216  15.030  71.956  1.00  0.00    -0.555 C  
HETATM   15  C   UNL     1     -11.870  15.299  72.735  1.00  0.00    -0.415 C  
BRANCH  13  16
HETATM   16  C   UNL     1     -12.436  15.811  70.335  1.00  0.00    -0.295 C  
BRANCH  16  17
HETATM   17  C   UNL     1     -11.386  15.281  69.389  1.00  0.00    -0.304 A  
HETATM   18  C   UNL     1     -10.021  15.466  69.662  1.00  0.00    -0.270 A  
HETATM   19  C   UNL     1      -9.062  15.166  68.696  1.00  0.00    -0.195 A  
HETATM   20  C   UNL     1      -9.453  14.654  67.461  1.00  0.00    -0.198 A  
HETATM   21  C   UNL     1     -10.797  14.396  67.207  1.00  0.00    -0.290 A  
HETATM   22  C   UNL     1     -11.760  14.693  68.172  1.00  0.00    -0.360 A  
ENDBRANCH  16  17
ENDBRANCH  13  16
ENDBRANCH  12  13
ENDBRANCH  11  12
ENDBRANCH  10  11
ENDBRANCH   9  10
ENDBRANCH   8   9
ENDBRANCH   7   8
ENDBRANCH   6   7
ENDBRANCH   5   6
ENDBRANCH   4   5
ENDBRANCH   3   4
ENDBRANCH   2   3
TORSDOF 13
ENDMDL
MODEL       97
REMARK 921   NORMALIZED FREE ENERGY PREDICTED BY IDOCK:   -4.14 KCAL/MOL
REMARK 922        TOTAL FREE ENERGY PREDICTED BY IDOCK:   -8.75 KCAL/MOL
REMARK 923 INTER-LIGAND FREE ENERGY PREDICTED BY IDOCK:   -7.83 KCAL/MOL
REMARK 924 INTRA-LIGAND FREE ENERGY PREDICTED BY IDOCK:   -0.92 KCAL/MOL
REMARK 927      BINDING AFFINITY PREDICTED BY RF-SCORE:    0.00 PKD
ROOT
HETATM    1  C   UNL     1     -10.546  11.956  63.648  1.00  0.00    -0.500 C  
HETATM    2  C   UNL     1     -12.054  12.081  63.501  1.00  0.00    -0.628 C  
ENDROOT
BRANCH   2   3
HETATM    3  C   UNL     1     -12.676  12.694  64.753  1.00  0.00    -0.460 C  
BRANCH   3   4
HETATM    4  C   UNL     1     -11.619  13.374  65.617  1.00  0.00    -0.350 C  
BRANCH   4   5
HETATM    5  C   UNL     1     -11.950  13.211  67.098  1.00  0.00    -0.397 C  
BRANCH   5   6
HETATM    6  C   UNL     1     -10.849  12.440  67.813  1.00  0.00    -0.257 C  
BRANCH   6   7
HETATM    7  C   UNL     1     -11.078  12.424  69.321  1.00  0.00    -0.209 C  
BRANCH   7   8
HETATM    8  C   UNL     1     -12.224  13.362  69.680  1.00  0.00    -0.279 C  
BRANCH   8   9
HETATM    9  C   UNL     1     -11.811  14.380  70.739  1.00  0.00    -0.349 C  
BRANCH   9  10
HETATM   10  C   UNL     1     -12.002  15.822  70.267  1.00  0.00    -0.383 C  
BRANCH  10  11
HETATM   11  C   UNL     1     -10.773  16.454  69.603  1.00  0.00    -0.337 C  
BRANCH  11  12
HETATM   12  C   UNL     1     -10.893  16.536  68.076  1.00  0.00    -0.337 C  
BRANCH  12  13
HETATM   13  N   UNL     1      -9.918  17.540  67.432  1.00  0.00    -0.304 N  
HETATM   14  C   UNL     1      -8.542  16.912  67.248  1.00  0.00    -0.196 C  
HETATM   15  C   UNL     1     -10.443  18.012  66.081  1.00  0.00    -0.331 C  
BRANCH  13  16
HETATM   16  C   UNL     1      -9.821  18.767  68.401  1.00  0.00    -0.382 C  
BRANCH  16  17
HETATM   17  C   UNL     1      -8.524  19.536  68.334  1.00  0.00    -0.387 A  
HETATM   18  C   UNL     1      -8.260  20.397  67.256  1.00  0.00    -0.390 A  
HETATM   19  C   UNL     1      -6.988  20.942  67.085  1.00  0.00    -0.426 A  
HETATM   20  C   UNL     1      -5.978  20.655  68.000  1.00  0.00    -0.325 A  
HETATM   21  C   UNL     1      -6.248  19.865  69.114  1.00  0.00    -0.344 A  
HETATM   22  C   UNL     1      -7.520  19.319  69.290  1.00  0.00    -0.255 A  
ENDBRANCH  16  17
ENDBRANCH  13  16
ENDBRANCH  12  13
ENDBRANCH  11  12
ENDBRANCH  10  11
ENDBRANCH   9  10
ENDBRANCH   8   9
ENDBRANCH   7   8
ENDBRANCH   6   7
ENDBRANCH   5   6
ENDBRANCH   4   5
ENDBRANCH   3   4
ENDBRANCH   2   3
TORSDOF 13
ENDMDL
MODEL       98
REMARK 921   NORMALIZED FREE ENERGY PREDICTED BY IDOCK:   -4.13 KCAL/MOL
REMARK 922        TOTAL FREE ENERGY PREDICTED BY IDOCK:   -8.74 KCAL/MOL
REMARK 923 INTER-LIGAND FREE ENERGY PREDICTED BY IDOCK:   -6.83 KCAL/MOL
REMARK 924 INTRA-LIGAND FREE ENERGY PREDICTED BY IDOCK:   -1.91 KCAL/MOL
REMARK 927      BINDING AFFINITY PREDICTED BY RF-SCORE:    0.00 PKD
ROOT
HETATM    1  C   UNL     1      -9.653  10.980  64.288  1.00  0.00    -0.303 C  
HETATM    2  C   UNL     1      -9.130   9.556  64.368  1.00  0.00    -0.234 C  
ENDROOT
BRANCH   2   3
HETATM    3  C   UNL     1      -9.320   8.980  65.769  1.00  0.00    -0.302 C  
BRANCH   3   4
HETATM    4  C   UNL     1      -9.917  10.019  66.714  1.00  0.00    -0.267 C  
BRANCH   4   5
HETATM    5  C   UNL     1      -9.064  10.153  67.972  1.00  0.00    -0.131 C  
BRANCH   5   6
HETATM    6  C   UNL     1      -9.802  10.949  69.041  1.00  0.00    -0.196 C  
BRANCH   6   7
HETATM    7  C   UNL     1     -11.298  10.655  69.011  1.00  0.00    -0.340 C  
BRANCH   7   8
HETATM    8  C   UNL     1     -11.690   9.836  70.233  1.00  0.00    -0.253 C  
BRANCH   8   9
HETATM    9  C   UNL     1     -13.047  10.258  70.787  1.00  0.00    -0.360 C  
BRANCH   9  10
HETATM   10  C   UNL     1     -12.921  11.199  71.986  1.00  0.00    -0.385 C  
BRANCH  10  11
HETATM   11  C   UNL     1     -13.407  12.632  71.739  1.00  0.00    -0.405 C  
BRANCH  11  12
HETATM   12  C   UNL     1     -12.398  13.480  70.955  1.00  0.00    -0.356 C  
BRANCH  12  13
HETATM   13  N   UNL     1     -12.558  14.996  71.178  1.00  0.00    -0.319 N  
HETATM   14  C   UNL     1     -13.978  15.327  71.622  1.00  0.00    -0.529 C  
HETATM   15  C   UNL     1     -11.572  15.494  72.228  1.00  0.00    -0.458 C  
BRANCH  13  16
HETATM   16  C   UNL     1     -12.248  15.695  69.810  1.00  0.00    -0.270 C  
BRANCH  16  17
HETATM   17  C   UNL     1     -11.412  14.882  68.852  1.00  0.00    -0.320 A  
HETATM   18  C   UNL     1     -10.010  14.888  68.946  1.00  0.00    -0.233 A  
HETATM   19  C   UNL     1      -9.234  14.312  67.942  1.00  0.00    -0.194 A  
HETATM   20  C   UNL     1      -9.848  13.701  66.851  1.00  0.00    -0.261 A  
HETATM   21  C   UNL     1     -11.236  13.622  66.785  1.00  0.00    -0.327 A  
HETATM   22  C   UNL     1     -12.017  14.196  67.789  1.00  0.00    -0.389 A  
ENDBRANCH  16  17
ENDBRANCH  13  16
ENDBRANCH  12  13
ENDBRANCH  11  12
ENDBRANCH  10  11
ENDBRANCH   9  10
ENDBRANCH   8   9
ENDBRANCH   7   8
ENDBRANCH   6   7
ENDBRANCH   5   6
ENDBRANCH   4   5
ENDBRANCH   3   4
ENDBRANCH   2   3
TORSDOF 13
ENDMDL
MODEL       99
REMARK 921   NORMALIZED FREE ENERGY PREDICTED BY IDOCK:   -4.12 KCAL/MOL
REMARK 922        TOTAL FREE ENERGY PREDICTED BY IDOCK:   -8.73 KCAL/MOL
REMARK 923 INTER-LIGAND FREE ENERGY PREDICTED BY IDOCK:   -7.69 KCAL/MOL
REMARK 924 INTRA-LIGAND FREE ENERGY PREDICTED BY IDOCK:   -1.04 KCAL/MOL
REMARK 927      BINDING AFFINITY PREDICTED BY RF-SCORE:    0.00 PKD
ROOT
HETATM    1  C   UNL     1     -12.680  15.540  73.705  1.00  0.00    -0.735 C  
HETATM    2  C   UNL     1     -13.783  15.545  72.661  1.00  0.00    -0.667 C  
ENDROOT
BRANCH   2   3
HETATM    3  C   UNL     1     -14.048  14.136  72.138  1.00  0.00    -0.643 C  
BRANCH   3   4
HETATM    4  C   UNL     1     -12.880  13.633  71.296  1.00  0.00    -0.424 C  
BRANCH   4   5
HETATM    5  C   UNL     1     -12.656  14.542  70.091  1.00  0.00    -0.339 C  
BRANCH   5   6
HETATM    6  C   UNL     1     -11.168  14.703  69.808  1.00  0.00    -0.296 C  
BRANCH   6   7
HETATM    7  C   UNL     1     -10.854  14.429  68.341  1.00  0.00    -0.256 C  
BRANCH   7   8
HETATM    8  C   UNL     1     -11.929  13.533  67.740  1.00  0.00    -0.369 C  
BRANCH   8   9
HETATM    9  C   UNL     1     -11.410  12.122  67.483  1.00  0.00    -0.392 C  
BRANCH   9  10
HETATM   10  C   UNL     1     -11.821  11.140  68.581  1.00  0.00    -0.357 C  
BRANCH  10  11
HETATM   11  C   UNL     1     -10.681  10.285  69.146  1.00  0.00    -0.259 C  
BRANCH  11  12
HETATM   12  C   UNL     1     -10.465   8.983  68.365  1.00  0.00    -0.192 C  
BRANCH  12  13
HETATM   13  N   UNL     1     -10.388   7.731  69.261  1.00  0.00    -0.216 N  
HETATM   14  C   UNL     1     -11.007   6.528  68.558  1.00  0.00    -0.286 C  
HETATM   15  C   UNL     1      -8.942   7.415  69.625  1.00  0.00    -0.141 C  
BRANCH  13  16
HETATM   16  C   UNL     1     -11.188   8.056  70.569  1.00  0.00    -0.250 C  
BRANCH  16  17
HETATM   17  C   UNL     1     -10.759   7.281  71.790  1.00  0.00    -0.243 A  
HETATM   18  C   UNL     1     -11.295   6.010  72.055  1.00  0.00    -0.345 A  
HETATM   19  C   UNL     1     -11.062   5.388  73.280  1.00  0.00    -0.352 A  
HETATM   20  C   UNL     1     -10.269   6.014  74.240  1.00  0.00    -0.314 A  
HETATM   21  C   UNL     1      -9.670   7.238  73.960  1.00  0.00    -0.277 A  
HETATM   22  C   UNL     1      -9.899   7.864  72.734  1.00  0.00    -0.335 A  
ENDBRANCH  16  17
ENDBRANCH  13  16
ENDBRANCH  12  13
ENDBRANCH  11  12
ENDBRANCH  10  11
ENDBRANCH   9  10
ENDBRANCH   8   9
ENDBRANCH   7   8
ENDBRANCH   6   7
ENDBRANCH   5   6
ENDBRANCH   4   5
ENDBRANCH   3   4
ENDBRANCH   2   3
TORSDOF 13
ENDMDL
MODEL      100
REMARK 921   NORMALIZED FREE ENERGY PREDICTED BY IDOCK:   -4.12 KCAL/MOL
REMARK 922        TOTAL FREE ENERGY PREDICTED BY IDOCK:   -8.72 KCAL/MOL
REMARK 923 INTER-LIGAND FREE ENERGY PREDICTED BY IDOCK:   -7.43 KCAL/MOL
REMARK 924 INTRA-LIGAND FREE ENERGY PREDICTED BY IDOCK:   -1.29 KCAL/MOL
REMARK 927      BINDING AFFINITY PREDICTED BY RF-SCORE:    0.00 PKD
ROOT
HETATM    1  C   UNL     1     -13.165  15.563  73.293  1.00  0.00    -0.635 C  
HETATM    2  C   UNL     1     -11.996  16.295  72.657  1.00  0.00    -0.644 C  
ENDROOT
BRANCH   2   3
HETATM    3  C   UNL     1     -11.885  15.963  71.171  1.00  0.00    -0.483 C  
BRANCH   3   4
HETATM    4  C   UNL     1     -12.910  14.908  70.765  1.00  0.00    -0.428 C  
BRANCH   4   5
HETATM    5  C   UNL     1     -12.215  13.606  70.375  1.00  0.00    -0.434 C  
BRANCH   5   6
HETATM    6  C   UNL     1     -12.710  12.453  71.238  1.00  0.00    -0.347 C  
BRANCH   6   7
HETATM    7  C   UNL     1     -12.322  11.107  70.634  1.00  0.00    -0.482 C  
BRANCH   7   8
HETATM    8  C   UNL     1     -12.540   9.999  71.656  1.00  0.00    -0.524 C  
BRANCH   8   9
HETATM    9  C   UNL     1     -11.498   8.893  71.522  1.00  0.00    -0.391 C  
BRANCH   9  10
HETATM   10  C   UNL     1     -10.145   9.422  71.041  1.00  0.00    -0.353 C  
BRANCH  10  11
HETATM   11  C   UNL     1      -9.558   8.690  69.828  1.00  0.00    -0.171 C  
BRANCH  11  12
HETATM   12  C   UNL     1     -10.471   8.744  68.597  1.00  0.00    -0.183 C  
BRANCH  12  13
HETATM   13  N   UNL     1      -9.908   7.990  67.376  1.00  0.00    -0.171 N  
HETATM   14  C   UNL     1      -8.490   7.505  67.650  1.00  0.00    -0.117 C  
HETATM   15  C   UNL     1     -10.790   6.798  67.025  1.00  0.00    -0.383 C  
BRANCH  13  16
HETATM   16  C   UNL     1      -9.907   8.999  66.177  1.00  0.00    -0.278 C  
BRANCH  16  17
HETATM   17  C   UNL     1      -9.843  10.455  66.566  1.00  0.00    -0.256 A  
HETATM   18  C   UNL     1      -8.635  11.025  67.001  1.00  0.00    -0.140 A  
HETATM   19  C   UNL     1      -8.619  12.304  67.556  1.00  0.00    -0.174 A  
HETATM   20  C   UNL     1      -9.800  13.035  67.656  1.00  0.00    -0.212 A  
HETATM   21  C   UNL     1     -10.990  12.511  67.159  1.00  0.00    -0.302 A  
HETATM   22  C   UNL     1     -11.010  11.233  66.601  1.00  0.00    -0.326 A  
ENDBRANCH  16  17
ENDBRANCH  13  16
ENDBRANCH  12  13
ENDBRANCH  11  12
ENDBRANCH  10  11
ENDBRANCH   9  10
ENDBRANCH   8   9
ENDBRANCH   7   8
ENDBRANCH   6   7
ENDBRANCH   5   6
ENDBRANCH   4   5
ENDBRANCH   3   4
ENDBRANCH   2   3
TORSDOF 13
ENDMDL
MODEL      101
REMARK 921   NORMALIZED FREE ENERGY PREDICTED BY IDOCK:   -4.11 KCAL/MOL
REMARK 922        TOTAL FREE ENERGY PREDICTED BY IDOCK:   -8.71 KCAL/MOL
REMARK 923 INTER-LIGAND FREE ENERGY PREDICTED BY IDOCK:   -7.67 KCAL/MOL
REMARK 924 INTRA-LIGAND FREE ENERGY PREDICTED BY IDOCK:   -1.03 KCAL/MOL
REMARK 927      BINDING AFFINITY PREDICTED BY RF-SCORE:    0.00 PKD
ROOT
HETATM    1  C   UNL     1     -10.685  11.839  63.477  1.00  0.00    -0.501 C  
HETATM    2  C   UNL     1     -12.037  12.519  63.608  1.00  0.00    -0.642 C  
ENDROOT
BRANCH   2   3
HETATM    3  C   UNL     1     -11.917  13.829  64.383  1.00  0.00    -0.480 C  
BRANCH   3   4
HETATM    4  C   UNL     1     -12.596  13.727  65.745  1.00  0.00    -0.525 C  
BRANCH   4   5
HETATM    5  C   UNL     1     -11.615  14.077  66.861  1.00  0.00    -0.407 C  
BRANCH   5   6
HETATM    6  C   UNL     1     -11.555  12.961  67.894  1.00  0.00    -0.391 C  
BRANCH   6   7
HETATM    7  C   UNL     1     -11.395  11.599  67.226  1.00  0.00    -0.372 C  
BRANCH   7   8
HETATM    8  C   UNL     1     -11.196  10.522  68.284  1.00  0.00    -0.354 C  
BRANCH   8   9
HETATM    9  C   UNL     1     -11.346  11.082  69.695  1.00  0.00    -0.363 C  
BRANCH   9  10
HETATM   10  C   UNL     1     -12.495  10.426  70.464  1.00  0.00    -0.403 C  
BRANCH  10  11
HETATM   11  C   UNL     1     -12.064   9.409  71.527  1.00  0.00    -0.456 C  
BRANCH  11  12
HETATM   12  C   UNL     1     -10.545   9.203  71.578  1.00  0.00    -0.358 C  
BRANCH  12  13
HETATM   13  N   UNL     1     -10.102   7.775  71.203  1.00  0.00    -0.187 N  
HETATM   14  C   UNL     1      -8.915   7.815  70.248  1.00  0.00    -0.148 C  
HETATM   15  C   UNL     1      -9.722   6.983  72.449  1.00  0.00    -0.153 C  
BRANCH  13  16
HETATM   16  C   UNL     1     -11.325   7.085  70.508  1.00  0.00    -0.312 C  
BRANCH  16  17
HETATM   17  C   UNL     1     -10.982   6.213  69.326  1.00  0.00    -0.450 A  
HETATM   18  C   UNL     1     -10.323   4.986  69.512  1.00  0.00    -0.231 A  
HETATM   19  C   UNL     1      -9.821   4.283  68.418  1.00  0.00    -0.104 A  
HETATM   20  C   UNL     1      -9.996   4.781  67.129  1.00  0.00    -0.224 A  
HETATM   21  C   UNL     1     -10.714   5.957  66.927  1.00  0.00    -0.395 A  
HETATM   22  C   UNL     1     -11.219   6.663  68.019  1.00  0.00    -0.217 A  
ENDBRANCH  16  17
ENDBRANCH  13  16
ENDBRANCH  12  13
ENDBRANCH  11  12
ENDBRANCH  10  11
ENDBRANCH   9  10
ENDBRANCH   8   9
ENDBRANCH   7   8
ENDBRANCH   6   7
ENDBRANCH   5   6
ENDBRANCH   4   5
ENDBRANCH   3   4
ENDBRANCH   2   3
TORSDOF 13
ENDMDL
MODEL      102
REMARK 921   NORMALIZED FREE ENERGY PREDICTED BY IDOCK:   -4.09 KCAL/MOL
REMARK 922        TOTAL FREE ENERGY PREDICTED BY IDOCK:   -8.66 KCAL/MOL
REMARK 923 INTER-LIGAND FREE ENERGY PREDICTED BY IDOCK:   -7.23 KCAL/MOL
REMARK 924 INTRA-LIGAND FREE ENERGY PREDICTED BY IDOCK:   -1.43 KCAL/MOL
REMARK 927      BINDING AFFINITY PREDICTED BY RF-SCORE:    0.00 PKD
ROOT
HETATM    1  C   UNL     1     -12.261  14.958  69.957  1.00  0.00    -0.381 C  
HETATM    2  C   UNL     1     -11.580  15.687  68.810  1.00  0.00    -0.393 C  
ENDROOT
BRANCH   2   3
HETATM    3  C   UNL     1     -10.968  14.698  67.820  1.00  0.00    -0.291 C  
BRANCH   3   4
HETATM    4  C   UNL     1     -11.969  14.318  66.733  1.00  0.00    -0.462 C  
BRANCH   4   5
HETATM    5  C   UNL     1     -12.025  12.802  66.562  1.00  0.00    -0.428 C  
BRANCH   5   6
HETATM    6  C   UNL     1     -10.889  12.133  67.324  1.00  0.00    -0.286 C  
BRANCH   6   7
HETATM    7  C   UNL     1     -11.389  10.921  68.104  1.00  0.00    -0.383 C  
BRANCH   7   8
HETATM    8  C   UNL     1     -12.195  11.379  69.313  1.00  0.00    -0.271 C  
BRANCH   8   9
HETATM    9  C   UNL     1     -11.710  10.719  70.599  1.00  0.00    -0.442 C  
BRANCH   9  10
HETATM   10  C   UNL     1     -12.860  10.379  71.549  1.00  0.00    -0.569 C  
BRANCH  10  11
HETATM   11  C   UNL     1     -12.783   8.986  72.185  1.00  0.00    -0.470 C  
BRANCH  11  12
HETATM   12  C   UNL     1     -12.045   7.967  71.308  1.00  0.00    -0.296 C  
BRANCH  12  13
HETATM   13  N   UNL     1     -11.143   7.003  72.104  1.00  0.00    -0.237 N  
HETATM   14  C   UNL     1     -10.549   7.704  73.320  1.00  0.00    -0.352 C  
HETATM   15  C   UNL     1     -11.930   5.780  72.559  1.00  0.00    -0.100 C  
BRANCH  13  16
HETATM   16  C   UNL     1      -9.998   6.547  71.136  1.00  0.00    -0.182 C  
BRANCH  16  17
HETATM   17  C   UNL     1     -10.188   6.935  69.691  1.00  0.00    -0.206 A  
HETATM   18  C   UNL     1     -11.101   6.240  68.880  1.00  0.00    -0.434 A  
HETATM   19  C   UNL     1     -11.126   6.456  67.503  1.00  0.00    -0.401 A  
HETATM   20  C   UNL     1     -10.263   7.385  66.927  1.00  0.00    -0.346 A  
HETATM   21  C   UNL     1      -9.408   8.135  67.730  1.00  0.00    -0.149 A  
HETATM   22  C   UNL     1      -9.381   7.923  69.109  1.00  0.00    -0.154 A  
ENDBRANCH  16  17
ENDBRANCH  13  16
ENDBRANCH  12  13
ENDBRANCH  11  12
ENDBRANCH  10  11
ENDBRANCH   9  10
ENDBRANCH   8   9
ENDBRANCH   7   8
ENDBRANCH   6   7
ENDBRANCH   5   6
ENDBRANCH   4   5
ENDBRANCH   3   4
ENDBRANCH   2   3
TORSDOF 13
ENDMDL
MODEL      103
REMARK 921   NORMALIZED FREE ENERGY PREDICTED BY IDOCK:   -4.09 KCAL/MOL
REMARK 922        TOTAL FREE ENERGY PREDICTED BY IDOCK:   -8.66 KCAL/MOL
REMARK 923 INTER-LIGAND FREE ENERGY PREDICTED BY IDOCK:   -7.60 KCAL/MOL
REMARK 924 INTRA-LIGAND FREE ENERGY PREDICTED BY IDOCK:   -1.07 KCAL/MOL
REMARK 927      BINDING AFFINITY PREDICTED BY RF-SCORE:    0.00 PKD
ROOT
HETATM    1  C   UNL     1     -12.741  16.066  73.692  1.00  0.00    -0.715 C  
HETATM    2  C   UNL     1     -13.693  15.411  72.706  1.00  0.00    -0.613 C  
ENDROOT
BRANCH   2   3
HETATM    3  C   UNL     1     -13.178  15.546  71.275  1.00  0.00    -0.588 C  
BRANCH   3   4
HETATM    4  C   UNL     1     -11.975  14.638  71.036  1.00  0.00    -0.399 C  
BRANCH   4   5
HETATM    5  C   UNL     1     -12.126  13.884  69.718  1.00  0.00    -0.404 C  
BRANCH   5   6
HETATM    6  C   UNL     1     -11.847  12.399  69.913  1.00  0.00    -0.376 C  
BRANCH   6   7
HETATM    7  C   UNL     1     -12.593  11.853  71.126  1.00  0.00    -0.390 C  
BRANCH   7   8
HETATM    8  C   UNL     1     -12.903  10.376  70.921  1.00  0.00    -0.482 C  
BRANCH   8   9
HETATM    9  C   UNL     1     -11.851   9.482  71.569  1.00  0.00    -0.478 C  
BRANCH   9  10
HETATM   10  C   UNL     1     -12.436   8.161  72.071  1.00  0.00    -0.375 C  
BRANCH  10  11
HETATM   11  C   UNL     1     -11.821   6.902  71.449  1.00  0.00    -0.373 C  
BRANCH  11  12
HETATM   12  C   UNL     1     -10.352   7.089  71.048  1.00  0.00    -0.200 C  
BRANCH  12  13
HETATM   13  N   UNL     1      -9.943   6.275  69.805  1.00  0.00    -0.164 N  
HETATM   14  C   UNL     1      -8.521   6.622  69.380  1.00  0.00    -0.131 C  
HETATM   15  C   UNL     1     -10.036   4.780  70.085  1.00  0.00    -0.251 C  
BRANCH  13  16
HETATM   16  C   UNL     1     -10.949   6.648  68.664  1.00  0.00    -0.251 C  
BRANCH  16  17
HETATM   17  C   UNL     1     -10.542   7.823  67.810  1.00  0.00    -0.254 A  
HETATM   18  C   UNL     1      -9.802   7.627  66.632  1.00  0.00    -0.283 A  
HETATM   19  C   UNL     1      -9.249   8.715  65.958  1.00  0.00    -0.276 A  
HETATM   20  C   UNL     1      -9.452  10.008  66.436  1.00  0.00    -0.235 A  
HETATM   21  C   UNL     1     -10.246  10.220  67.560  1.00  0.00    -0.254 A  
HETATM   22  C   UNL     1     -10.803   9.134  68.236  1.00  0.00    -0.104 A  
ENDBRANCH  16  17
ENDBRANCH  13  16
ENDBRANCH  12  13
ENDBRANCH  11  12
ENDBRANCH  10  11
ENDBRANCH   9  10
ENDBRANCH   8   9
ENDBRANCH   7   8
ENDBRANCH   6   7
ENDBRANCH   5   6
ENDBRANCH   4   5
ENDBRANCH   3   4
ENDBRANCH   2   3
TORSDOF 13
ENDMDL
MODEL      104
REMARK 921   NORMALIZED FREE ENERGY PREDICTED BY IDOCK:   -4.08 KCAL/MOL
REMARK 922        TOTAL FREE ENERGY PREDICTED BY IDOCK:   -8.65 KCAL/MOL
REMARK 923 INTER-LIGAND FREE ENERGY PREDICTED BY IDOCK:   -7.26 KCAL/MOL
REMARK 924 INTRA-LIGAND FREE ENERGY PREDICTED BY IDOCK:   -1.38 KCAL/MOL
REMARK 927      BINDING AFFINITY PREDICTED BY RF-SCORE:    0.00 PKD
ROOT
HETATM    1  C   UNL     1     -13.353   9.930  71.965  1.00  0.00    -0.532 C  
HETATM    2  C   UNL     1     -12.110   9.198  71.489  1.00  0.00    -0.422 C  
ENDROOT
BRANCH   2   3
HETATM    3  C   UNL     1     -11.714   8.096  72.469  1.00  0.00    -0.457 C  
BRANCH   3   4
HETATM    4  C   UNL     1     -10.202   7.895  72.489  1.00  0.00    -0.342 C  
BRANCH   4   5
HETATM    5  C   UNL     1      -9.859   6.408  72.528  1.00  0.00    -0.175 C  
BRANCH   5   6
HETATM    6  C   UNL     1     -10.809   5.614  71.641  1.00  0.00    -0.301 C  
BRANCH   6   7
HETATM    7  C   UNL     1     -10.247   5.459  70.232  1.00  0.00    -0.338 C  
BRANCH   7   8
HETATM    8  C   UNL     1     -11.135   6.194  69.236  1.00  0.00    -0.463 C  
BRANCH   8   9
HETATM    9  C   UNL     1     -10.422   7.396  68.624  1.00  0.00    -0.211 C  
BRANCH   9  10
HETATM   10  C   UNL     1     -10.703   7.540  67.128  1.00  0.00    -0.379 C  
BRANCH  10  11
HETATM   11  C   UNL     1      -9.778   8.513  66.386  1.00  0.00    -0.328 C  
BRANCH  11  12
HETATM   12  C   UNL     1      -9.502   9.798  67.177  1.00  0.00    -0.154 C  
BRANCH  12  13
HETATM   13  N   UNL     1      -9.604  11.080  66.328  1.00  0.00    -0.194 N  
HETATM   14  C   UNL     1      -8.795  12.207  66.958  1.00  0.00    -0.203 C  
HETATM   15  C   UNL     1      -9.103  10.830  64.910  1.00  0.00    -0.198 C  
BRANCH  13  16
HETATM   16  C   UNL     1     -11.119  11.473  66.275  1.00  0.00    -0.263 C  
BRANCH  16  17
HETATM   17  C   UNL     1     -11.600  12.325  67.424  1.00  0.00    -0.425 A  
HETATM   18  C   UNL     1     -11.781  13.708  67.260  1.00  0.00    -0.416 A  
HETATM   19  C   UNL     1     -12.021  14.523  68.365  1.00  0.00    -0.309 A  
HETATM   20  C   UNL     1     -12.109  13.964  69.638  1.00  0.00    -0.404 A  
HETATM   21  C   UNL     1     -12.008  12.586  69.803  1.00  0.00    -0.359 A  
HETATM   22  C   UNL     1     -11.770  11.766  68.700  1.00  0.00    -0.389 A  
ENDBRANCH  16  17
ENDBRANCH  13  16
ENDBRANCH  12  13
ENDBRANCH  11  12
ENDBRANCH  10  11
ENDBRANCH   9  10
ENDBRANCH   8   9
ENDBRANCH   7   8
ENDBRANCH   6   7
ENDBRANCH   5   6
ENDBRANCH   4   5
ENDBRANCH   3   4
ENDBRANCH   2   3
TORSDOF 13
ENDMDL
MODEL      105
REMARK 921   NORMALIZED FREE ENERGY PREDICTED BY IDOCK:   -4.08 KCAL/MOL
REMARK 922        TOTAL FREE ENERGY PREDICTED BY IDOCK:   -8.65 KCAL/MOL
REMARK 923 INTER-LIGAND FREE ENERGY PREDICTED BY IDOCK:   -6.44 KCAL/MOL
REMARK 924 INTRA-LIGAND FREE ENERGY PREDICTED BY IDOCK:   -2.20 KCAL/MOL
REMARK 927      BINDING AFFINITY PREDICTED BY RF-SCORE:    0.00 PKD
ROOT
HETATM    1  C   UNL     1      -6.409  16.319  67.403  1.00  0.00    -0.206 C  
HETATM    2  C   UNL     1      -7.128  17.597  67.801  1.00  0.00    -0.191 C  
ENDROOT
BRANCH   2   3
HETATM    3  C   UNL     1      -8.299  17.881  66.864  1.00  0.00    -0.260 C  
BRANCH   3   4
HETATM    4  C   UNL     1      -9.145  19.042  67.377  1.00  0.00    -0.325 C  
BRANCH   4   5
HETATM    5  C   UNL     1     -10.371  18.524  68.123  1.00  0.00    -0.391 C  
BRANCH   5   6
HETATM    6  C   UNL     1     -10.687  17.093  67.711  1.00  0.00    -0.329 C  
BRANCH   6   7
HETATM    7  C   UNL     1     -10.994  16.224  68.927  1.00  0.00    -0.334 C  
BRANCH   7   8
HETATM    8  C   UNL     1      -9.736  15.484  69.365  1.00  0.00    -0.283 C  
BRANCH   8   9
HETATM    9  C   UNL     1      -9.493  14.236  68.523  1.00  0.00    -0.206 C  
BRANCH   9  10
HETATM   10  C   UNL     1     -10.593  13.189  68.700  1.00  0.00    -0.259 C  
BRANCH  10  11
HETATM   11  C   UNL     1     -10.131  11.734  68.559  1.00  0.00    -0.212 C  
BRANCH  11  12
HETATM   12  C   UNL     1     -10.814  10.998  67.399  1.00  0.00    -0.274 C  
BRANCH  12  13
HETATM   13  N   UNL     1      -9.835  10.508  66.316  1.00  0.00    -0.208 N  
HETATM   14  C   UNL     1      -8.446  11.093  66.541  1.00  0.00    -0.165 C  
HETATM   15  C   UNL     1      -9.748   8.986  66.316  1.00  0.00    -0.275 C  
BRANCH  13  16
HETATM   16  C   UNL     1     -10.402  10.989  64.936  1.00  0.00    -0.313 C  
BRANCH  16  17
HETATM   17  C   UNL     1     -10.923  12.405  64.918  1.00  0.00    -0.341 A  
HETATM   18  C   UNL     1     -10.039  13.490  64.797  1.00  0.00    -0.267 A  
HETATM   19  C   UNL     1     -10.493  14.794  64.989  1.00  0.00    -0.443 A  
HETATM   20  C   UNL     1     -11.836  15.029  65.275  1.00  0.00    -0.148 A  
HETATM   21  C   UNL     1     -12.736  13.968  65.322  1.00  0.00    -0.468 A  
HETATM   22  C   UNL     1     -12.287  12.662  65.128  1.00  0.00    -0.547 A  
ENDBRANCH  16  17
ENDBRANCH  13  16
ENDBRANCH  12  13
ENDBRANCH  11  12
ENDBRANCH  10  11
ENDBRANCH   9  10
ENDBRANCH   8   9
ENDBRANCH   7   8
ENDBRANCH   6   7
ENDBRANCH   5   6
ENDBRANCH   4   5
ENDBRANCH   3   4
ENDBRANCH   2   3
TORSDOF 13
ENDMDL
MODEL      106
REMARK 921   NORMALIZED FREE ENERGY PREDICTED BY IDOCK:   -4.08 KCAL/MOL
REMARK 922        TOTAL FREE ENERGY PREDICTED BY IDOCK:   -8.65 KCAL/MOL
REMARK 923 INTER-LIGAND FREE ENERGY PREDICTED BY IDOCK:   -6.90 KCAL/MOL
REMARK 924 INTRA-LIGAND FREE ENERGY PREDICTED BY IDOCK:   -1.75 KCAL/MOL
REMARK 927      BINDING AFFINITY PREDICTED BY RF-SCORE:    0.00 PKD
ROOT
HETATM    1  C   UNL     1      -7.012  11.743  68.841  1.00  0.00    -0.109 C  
HETATM    2  C   UNL     1      -7.608  10.609  68.024  1.00  0.00    -0.091 C  
ENDROOT
BRANCH   2   3
HETATM    3  C   UNL     1      -7.473  10.881  66.529  1.00  0.00    -0.142 C  
BRANCH   3   4
HETATM    4  C   UNL     1      -8.814  10.724  65.818  1.00  0.00    -0.201 C  
BRANCH   4   5
HETATM    5  C   UNL     1      -9.874  10.199  66.782  1.00  0.00    -0.247 C  
BRANCH   5   6
HETATM    6  C   UNL     1     -11.068  11.143  66.834  1.00  0.00    -0.313 C  
BRANCH   6   7
HETATM    7  C   UNL     1     -10.930  12.264  65.809  1.00  0.00    -0.338 C  
BRANCH   7   8
HETATM    8  C   UNL     1     -12.281  12.929  65.583  1.00  0.00    -0.519 C  
BRANCH   8   9
HETATM    9  C   UNL     1     -12.132  14.325  64.988  1.00  0.00    -0.428 C  
BRANCH   9  10
HETATM   10  C   UNL     1     -10.671  14.769  64.901  1.00  0.00    -0.438 C  
BRANCH  10  11
HETATM   11  C   UNL     1     -10.337  16.051  65.673  1.00  0.00    -0.414 C  
BRANCH  11  12
HETATM   12  C   UNL     1      -9.090  15.911  66.555  1.00  0.00    -0.286 C  
BRANCH  12  13
HETATM   13  N   UNL     1      -9.204  16.639  67.908  1.00  0.00    -0.217 N  
HETATM   14  C   UNL     1      -8.443  15.884  68.991  1.00  0.00    -0.242 C  
HETATM   15  C   UNL     1      -8.661  18.059  67.805  1.00  0.00    -0.251 C  
BRANCH  13  16
HETATM   16  C   UNL     1     -10.728  16.697  68.268  1.00  0.00    -0.351 C  
BRANCH  16  17
HETATM   17  C   UNL     1     -11.185  15.683  69.288  1.00  0.00    -0.320 A  
HETATM   18  C   UNL     1     -11.433  14.353  68.910  1.00  0.00    -0.319 A  
HETATM   19  C   UNL     1     -12.051  13.473  69.797  1.00  0.00    -0.381 A  
HETATM   20  C   UNL     1     -12.400  13.902  71.076  1.00  0.00    -0.453 A  
HETATM   21  C   UNL     1     -12.089  15.195  71.487  1.00  0.00    -0.407 A  
HETATM   22  C   UNL     1     -11.470  16.079  70.603  1.00  0.00    -0.427 A  
ENDBRANCH  16  17
ENDBRANCH  13  16
ENDBRANCH  12  13
ENDBRANCH  11  12
ENDBRANCH  10  11
ENDBRANCH   9  10
ENDBRANCH   8   9
ENDBRANCH   7   8
ENDBRANCH   6   7
ENDBRANCH   5   6
ENDBRANCH   4   5
ENDBRANCH   3   4
ENDBRANCH   2   3
TORSDOF 13
ENDMDL
MODEL      107
REMARK 921   NORMALIZED FREE ENERGY PREDICTED BY IDOCK:   -4.07 KCAL/MOL
REMARK 922        TOTAL FREE ENERGY PREDICTED BY IDOCK:   -8.63 KCAL/MOL
REMARK 923 INTER-LIGAND FREE ENERGY PREDICTED BY IDOCK:   -7.99 KCAL/MOL
REMARK 924 INTRA-LIGAND FREE ENERGY PREDICTED BY IDOCK:   -0.64 KCAL/MOL
REMARK 927      BINDING AFFINITY PREDICTED BY RF-SCORE:    0.00 PKD
ROOT
HETATM    1  C   UNL     1     -11.013   6.330  68.948  1.00  0.00    -0.435 C  
HETATM    2  C   UNL     1     -11.625   6.278  70.338  1.00  0.00    -0.371 C  
ENDROOT
BRANCH   2   3
HETATM    3  C   UNL     1     -10.547   6.380  71.415  1.00  0.00    -0.274 C  
BRANCH   3   4
HETATM    4  C   UNL     1     -11.054   7.153  72.628  1.00  0.00    -0.330 C  
BRANCH   4   5
HETATM    5  C   UNL     1     -11.230   8.631  72.289  1.00  0.00    -0.399 C  
BRANCH   5   6
HETATM    6  C   UNL     1     -10.044   9.143  71.483  1.00  0.00    -0.381 C  
BRANCH   6   7
HETATM    7  C   UNL     1     -10.505   9.986  70.298  1.00  0.00    -0.331 C  
BRANCH   7   8
HETATM    8  C   UNL     1     -11.845  10.636  70.616  1.00  0.00    -0.463 C  
BRANCH   8   9
HETATM    9  C   UNL     1     -11.966  12.019  69.983  1.00  0.00    -0.400 C  
BRANCH   9  10
HETATM   10  C   UNL     1     -11.794  11.982  68.464  1.00  0.00    -0.369 C  
BRANCH  10  11
HETATM   11  C   UNL     1     -11.863  13.348  67.771  1.00  0.00    -0.395 C  
BRANCH  11  12
HETATM   12  C   UNL     1     -10.490  13.863  67.325  1.00  0.00    -0.271 C  
BRANCH  12  13
HETATM   13  N   UNL     1     -10.112  15.226  67.936  1.00  0.00    -0.231 N  
HETATM   14  C   UNL     1     -11.346  15.928  68.490  1.00  0.00    -0.374 C  
HETATM   15  C   UNL     1      -9.086  15.052  69.051  1.00  0.00    -0.205 C  
BRANCH  13  16
HETATM   16  C   UNL     1      -9.479  16.083  66.787  1.00  0.00    -0.231 C  
BRANCH  16  17
HETATM   17  C   UNL     1      -9.534  17.576  66.996  1.00  0.00    -0.268 A  
HETATM   18  C   UNL     1      -8.791  18.180  68.024  1.00  0.00    -0.286 A  
HETATM   19  C   UNL     1      -9.001  19.519  68.351  1.00  0.00    -0.397 A  
HETATM   20  C   UNL     1      -9.931  20.273  67.639  1.00  0.00    -0.551 A  
HETATM   21  C   UNL     1     -10.617  19.706  66.569  1.00  0.00    -0.591 A  
HETATM   22  C   UNL     1     -10.410  18.367  66.237  1.00  0.00    -0.440 A  
ENDBRANCH  16  17
ENDBRANCH  13  16
ENDBRANCH  12  13
ENDBRANCH  11  12
ENDBRANCH  10  11
ENDBRANCH   9  10
ENDBRANCH   8   9
ENDBRANCH   7   8
ENDBRANCH   6   7
ENDBRANCH   5   6
ENDBRANCH   4   5
ENDBRANCH   3   4
ENDBRANCH   2   3
TORSDOF 13
ENDMDL
MODEL      108
REMARK 921   NORMALIZED FREE ENERGY PREDICTED BY IDOCK:   -4.06 KCAL/MOL
REMARK 922        TOTAL FREE ENERGY PREDICTED BY IDOCK:   -8.61 KCAL/MOL
REMARK 923 INTER-LIGAND FREE ENERGY PREDICTED BY IDOCK:   -7.88 KCAL/MOL
REMARK 924 INTRA-LIGAND FREE ENERGY PREDICTED BY IDOCK:   -0.73 KCAL/MOL
REMARK 927      BINDING AFFINITY PREDICTED BY RF-SCORE:    0.00 PKD
ROOT
HETATM    1  C   UNL     1     -12.686  15.525  73.700  1.00  0.00    -0.713 C  
HETATM    2  C   UNL     1     -13.911  15.784  72.839  1.00  0.00    -0.565 C  
ENDROOT
BRANCH   2   3
HETATM    3  C   UNL     1     -14.077  14.694  71.783  1.00  0.00    -0.592 C  
BRANCH   3   4
HETATM    4  C   UNL     1     -13.626  13.338  72.315  1.00  0.00    -0.703 C  
BRANCH   4   5
HETATM    5  C   UNL     1     -12.936  12.533  71.218  1.00  0.00    -0.301 C  
BRANCH   5   6
HETATM    6  C   UNL     1     -12.991  11.043  71.528  1.00  0.00    -0.553 C  
BRANCH   6   7
HETATM    7  C   UNL     1     -12.311  10.227  70.433  1.00  0.00    -0.319 C  
BRANCH   7   8
HETATM    8  C   UNL     1     -10.941  10.815  70.125  1.00  0.00    -0.230 C  
BRANCH   8   9
HETATM    9  C   UNL     1     -10.699  10.929  68.623  1.00  0.00    -0.238 C  
BRANCH   9  10
HETATM   10  C   UNL     1     -11.599  11.976  67.965  1.00  0.00    -0.407 C  
BRANCH  10  11
HETATM   11  C   UNL     1     -10.859  13.167  67.344  1.00  0.00    -0.269 C  
BRANCH  11  12
HETATM   12  C   UNL     1     -11.568  14.505  67.587  1.00  0.00    -0.378 C  
BRANCH  12  13
HETATM   13  N   UNL     1     -10.708  15.530  68.352  1.00  0.00    -0.254 N  
HETATM   14  C   UNL     1     -11.500  16.147  69.499  1.00  0.00    -0.292 C  
HETATM   15  C   UNL     1      -9.448  14.874  68.903  1.00  0.00    -0.209 C  
BRANCH  13  16
HETATM   16  C   UNL     1     -10.301  16.641  67.324  1.00  0.00    -0.298 C  
BRANCH  16  17
HETATM   17  C   UNL     1      -8.997  17.339  67.620  1.00  0.00    -0.224 A  
HETATM   18  C   UNL     1      -8.980  18.546  68.339  1.00  0.00    -0.346 A  
HETATM   19  C   UNL     1      -7.808  19.295  68.431  1.00  0.00    -0.377 A  
HETATM   20  C   UNL     1      -6.637  18.834  67.832  1.00  0.00    -0.223 A  
HETATM   21  C   UNL     1      -6.623  17.603  67.183  1.00  0.00    -0.188 A  
HETATM   22  C   UNL     1      -7.793  16.850  67.090  1.00  0.00    -0.207 A  
ENDBRANCH  16  17
ENDBRANCH  13  16
ENDBRANCH  12  13
ENDBRANCH  11  12
ENDBRANCH  10  11
ENDBRANCH   9  10
ENDBRANCH   8   9
ENDBRANCH   7   8
ENDBRANCH   6   7
ENDBRANCH   5   6
ENDBRANCH   4   5
ENDBRANCH   3   4
ENDBRANCH   2   3
TORSDOF 13
ENDMDL
MODEL      109
REMARK 921   NORMALIZED FREE ENERGY PREDICTED BY IDOCK:   -4.06 KCAL/MOL
REMARK 922        TOTAL FREE ENERGY PREDICTED BY IDOCK:   -8.61 KCAL/MOL
REMARK 923 INTER-LIGAND FREE ENERGY PREDICTED BY IDOCK:   -6.60 KCAL/MOL
REMARK 924 INTRA-LIGAND FREE ENERGY PREDICTED BY IDOCK:   -2.01 KCAL/MOL
REMARK 927      BINDING AFFINITY PREDICTED BY RF-SCORE:    0.00 PKD
ROOT
HETATM    1  C   UNL     1      -6.869  10.303  66.905  1.00  0.00    -0.086 C  
HETATM    2  C   UNL     1      -7.773   9.586  67.893  1.00  0.00    -0.087 C  
ENDROOT
BRANCH   2   3
HETATM    3  C   UNL     1      -8.960   8.942  67.182  1.00  0.00    -0.141 C  
BRANCH   3   4
HETATM    4  C   UNL     1      -8.969   9.294  65.697  1.00  0.00    -0.243 C  
BRANCH   4   5
HETATM    5  C   UNL     1     -10.160  10.187  65.365  1.00  0.00    -0.342 C  
BRANCH   5   6
HETATM    6  C   UNL     1      -9.713  11.408  64.571  1.00  0.00    -0.268 C  
BRANCH   6   7
HETATM    7  C   UNL     1     -10.618  11.642  63.366  1.00  0.00    -0.472 C  
BRANCH   7   8
HETATM    8  C   UNL     1     -12.033  11.956  63.834  1.00  0.00    -0.503 C  
BRANCH   8   9
HETATM    9  C   UNL     1     -12.339  13.448  63.753  1.00  0.00    -0.418 C  
BRANCH   9  10
HETATM   10  C   UNL     1     -12.148  14.156  65.095  1.00  0.00    -0.416 C  
BRANCH  10  11
HETATM   11  C   UNL     1     -11.141  15.313  65.079  1.00  0.00    -0.436 C  
BRANCH  11  12
HETATM   12  C   UNL     1      -9.802  14.950  65.733  1.00  0.00    -0.348 C  
BRANCH  12  13
HETATM   13  N   UNL     1      -9.295  16.009  66.732  1.00  0.00    -0.225 N  
HETATM   14  C   UNL     1      -8.010  16.653  66.227  1.00  0.00    -0.305 C  
HETATM   15  C   UNL     1     -10.348  17.088  66.955  1.00  0.00    -0.304 C  
BRANCH  13  16
HETATM   16  C   UNL     1      -9.026  15.266  68.085  1.00  0.00    -0.173 C  
BRANCH  16  17
HETATM   17  C   UNL     1     -10.046  14.217  68.454  1.00  0.00    -0.238 A  
HETATM   18  C   UNL     1     -11.137  14.540  69.278  1.00  0.00    -0.296 A  
HETATM   19  C   UNL     1     -11.957  13.535  69.787  1.00  0.00    -0.405 A  
HETATM   20  C   UNL     1     -11.715  12.203  69.457  1.00  0.00    -0.402 A  
HETATM   21  C   UNL     1     -10.684  11.878  68.580  1.00  0.00    -0.266 A  
HETATM   22  C   UNL     1      -9.861  12.881  68.067  1.00  0.00    -0.223 A  
ENDBRANCH  16  17
ENDBRANCH  13  16
ENDBRANCH  12  13
ENDBRANCH  11  12
ENDBRANCH  10  11
ENDBRANCH   9  10
ENDBRANCH   8   9
ENDBRANCH   7   8
ENDBRANCH   6   7
ENDBRANCH   5   6
ENDBRANCH   4   5
ENDBRANCH   3   4
ENDBRANCH   2   3
TORSDOF 13
ENDMDL
MODEL      110
REMARK 921   NORMALIZED FREE ENERGY PREDICTED BY IDOCK:   -4.05 KCAL/MOL
REMARK 922        TOTAL FREE ENERGY PREDICTED BY IDOCK:   -8.61 KCAL/MOL
REMARK 923 INTER-LIGAND FREE ENERGY PREDICTED BY IDOCK:   -6.44 KCAL/MOL
REMARK 924 INTRA-LIGAND FREE ENERGY PREDICTED BY IDOCK:   -2.16 KCAL/MOL
REMARK 927      BINDING AFFINITY PREDICTED BY RF-SCORE:    0.00 PKD
ROOT
HETATM    1  C   UNL     1      -7.945   8.230  72.641  1.00  0.00    -0.193 C  
HETATM    2  C   UNL     1      -9.103   7.960  73.587  1.00  0.00    -0.337 C  
ENDROOT
BRANCH   2   3
HETATM    3  C   UNL     1      -8.926   6.623  74.302  1.00  0.00    -0.195 C  
BRANCH   3   4
HETATM    4  C   UNL     1      -9.490   5.476  73.469  1.00  0.00    -0.138 C  
BRANCH   4   5
HETATM    5  C   UNL     1     -10.939   5.756  73.080  1.00  0.00    -0.314 C  
BRANCH   5   6
HETATM    6  C   UNL     1     -11.125   5.629  71.574  1.00  0.00    -0.235 C  
BRANCH   6   7
HETATM    7  C   UNL     1      -9.812   5.278  70.883  1.00  0.00    -0.257 C  
BRANCH   7   8
HETATM    8  C   UNL     1      -9.707   6.025  69.559  1.00  0.00    -0.182 C  
BRANCH   8   9
HETATM    9  C   UNL     1     -11.074   6.227  68.915  1.00  0.00    -0.434 C  
BRANCH   9  10
HETATM   10  C   UNL     1     -10.974   6.556  67.424  1.00  0.00    -0.458 C  
BRANCH  10  11
HETATM   11  C   UNL     1     -10.108   7.776  67.088  1.00  0.00    -0.328 C  
BRANCH  11  12
HETATM   12  C   UNL     1     -10.784   9.106  67.442  1.00  0.00    -0.177 C  
BRANCH  12  13
HETATM   13  N   UNL     1      -9.823  10.311  67.432  1.00  0.00    -0.174 N  
HETATM   14  C   UNL     1      -8.466   9.911  66.867  1.00  0.00    -0.125 C  
HETATM   15  C   UNL     1     -10.399  11.453  66.603  1.00  0.00    -0.233 C  
BRANCH  13  16
HETATM   16  C   UNL     1      -9.667  10.783  68.918  1.00  0.00    -0.198 C  
BRANCH  16  17
HETATM   17  C   UNL     1     -10.854  10.505  69.806  1.00  0.00    -0.335 A  
HETATM   18  C   UNL     1     -11.920  11.417  69.879  1.00  0.00    -0.434 A  
HETATM   19  C   UNL     1     -12.911  11.267  70.848  1.00  0.00    -0.343 A  
HETATM   20  C   UNL     1     -12.864  10.192  71.733  1.00  0.00    -0.554 A  
HETATM   21  C   UNL     1     -11.855   9.240  71.620  1.00  0.00    -0.453 A  
HETATM   22  C   UNL     1     -10.862   9.385  70.651  1.00  0.00    -0.346 A  
ENDBRANCH  16  17
ENDBRANCH  13  16
ENDBRANCH  12  13
ENDBRANCH  11  12
ENDBRANCH  10  11
ENDBRANCH   9  10
ENDBRANCH   8   9
ENDBRANCH   7   8
ENDBRANCH   6   7
ENDBRANCH   5   6
ENDBRANCH   4   5
ENDBRANCH   3   4
ENDBRANCH   2   3
TORSDOF 13
ENDMDL
MODEL      111
REMARK 921   NORMALIZED FREE ENERGY PREDICTED BY IDOCK:   -4.04 KCAL/MOL
REMARK 922        TOTAL FREE ENERGY PREDICTED BY IDOCK:   -8.59 KCAL/MOL
REMARK 923 INTER-LIGAND FREE ENERGY PREDICTED BY IDOCK:   -6.24 KCAL/MOL
REMARK 924 INTRA-LIGAND FREE ENERGY PREDICTED BY IDOCK:   -2.36 KCAL/MOL
REMARK 927      BINDING AFFINITY PREDICTED BY RF-SCORE:    0.00 PKD
ROOT
HETATM    1  C   UNL     1      -8.736   9.015  65.139  1.00  0.00    -0.223 C  
HETATM    2  C   UNL     1      -7.394   9.687  65.373  1.00  0.00    -0.108 C  
ENDROOT
BRANCH   2   3
HETATM    3  C   UNL     1      -7.288  10.215  66.802  1.00  0.00    -0.104 C  
BRANCH   3   4
HETATM    4  C   UNL     1      -8.415   9.671  67.674  1.00  0.00    -0.125 C  
BRANCH   4   5
HETATM    5  C   UNL     1      -8.474  10.421  69.002  1.00  0.00    -0.155 C  
BRANCH   5   6
HETATM    6  C   UNL     1      -9.869  10.333  69.608  1.00  0.00    -0.230 C  
BRANCH   6   7
HETATM    7  C   UNL     1     -10.938  10.267  68.521  1.00  0.00    -0.294 C  
BRANCH   7   8
HETATM    8  C   UNL     1     -11.936  11.402  68.707  1.00  0.00    -0.353 C  
BRANCH   8   9
HETATM    9  C   UNL     1     -11.737  12.118  70.039  1.00  0.00    -0.330 C  
BRANCH   9  10
HETATM   10  C   UNL     1     -12.521  13.429  70.120  1.00  0.00    -0.243 C  
BRANCH  10  11
HETATM   11  C   UNL     1     -11.660  14.689  70.271  1.00  0.00    -0.335 C  
BRANCH  11  12
HETATM   12  C   UNL     1     -11.717  15.603  69.041  1.00  0.00    -0.395 C  
BRANCH  12  13
HETATM   13  N   UNL     1     -10.339  16.137  68.603  1.00  0.00    -0.240 N  
HETATM   14  C   UNL     1     -10.204  17.617  68.940  1.00  0.00    -0.354 C  
HETATM   15  C   UNL     1      -9.218  15.360  69.284  1.00  0.00    -0.259 C  
BRANCH  13  16
HETATM   16  C   UNL     1     -10.240  15.929  67.053  1.00  0.00    -0.283 C  
BRANCH  16  17
HETATM   17  C   UNL     1     -10.741  14.597  66.553  1.00  0.00    -0.312 A  
HETATM   18  C   UNL     1      -9.851  13.527  66.358  1.00  0.00    -0.299 A  
HETATM   19  C   UNL     1     -10.272  12.371  65.703  1.00  0.00    -0.285 A  
HETATM   20  C   UNL     1     -11.589  12.260  65.262  1.00  0.00    -0.405 A  
HETATM   21  C   UNL     1     -12.499  13.282  65.518  1.00  0.00    -0.531 A  
HETATM   22  C   UNL     1     -12.083  14.440  66.174  1.00  0.00    -0.373 A  
ENDBRANCH  16  17
ENDBRANCH  13  16
ENDBRANCH  12  13
ENDBRANCH  11  12
ENDBRANCH  10  11
ENDBRANCH   9  10
ENDBRANCH   8   9
ENDBRANCH   7   8
ENDBRANCH   6   7
ENDBRANCH   5   6
ENDBRANCH   4   5
ENDBRANCH   3   4
ENDBRANCH   2   3
TORSDOF 13
ENDMDL
MODEL      112
REMARK 921   NORMALIZED FREE ENERGY PREDICTED BY IDOCK:   -4.04 KCAL/MOL
REMARK 922        TOTAL FREE ENERGY PREDICTED BY IDOCK:   -8.59 KCAL/MOL
REMARK 923 INTER-LIGAND FREE ENERGY PREDICTED BY IDOCK:   -7.09 KCAL/MOL
REMARK 924 INTRA-LIGAND FREE ENERGY PREDICTED BY IDOCK:   -1.50 KCAL/MOL
REMARK 927      BINDING AFFINITY PREDICTED BY RF-SCORE:    0.00 PKD
ROOT
HETATM    1  C   UNL     1      -7.833  14.670  67.343  1.00  0.00    -0.225 C  
HETATM    2  C   UNL     1      -9.319  14.955  67.204  1.00  0.00    -0.227 C  
ENDROOT
BRANCH   2   3
HETATM    3  C   UNL     1      -9.596  15.824  65.980  1.00  0.00    -0.388 C  
BRANCH   3   4
HETATM    4  C   UNL     1     -10.745  15.257  65.151  1.00  0.00    -0.455 C  
BRANCH   4   5
HETATM    5  C   UNL     1     -11.756  14.549  66.048  1.00  0.00    -0.347 C  
BRANCH   5   6
HETATM    6  C   UNL     1     -12.768  13.776  65.213  1.00  0.00    -0.481 C  
BRANCH   6   7
HETATM    7  C   UNL     1     -12.282  13.607  63.777  1.00  0.00    -0.413 C  
BRANCH   7   8
HETATM    8  C   UNL     1     -12.106  12.127  63.462  1.00  0.00    -0.649 C  
BRANCH   8   9
HETATM    9  C   UNL     1     -10.640  11.766  63.245  1.00  0.00    -0.427 C  
BRANCH   9  10
HETATM   10  C   UNL     1      -9.877  11.606  64.561  1.00  0.00    -0.254 C  
BRANCH  10  11
HETATM   11  C   UNL     1      -9.679  10.157  65.023  1.00  0.00    -0.384 C  
BRANCH  11  12
HETATM   12  C   UNL     1      -8.707  10.032  66.202  1.00  0.00    -0.140 C  
BRANCH  12  13
HETATM   13  N   UNL     1      -8.888   8.737  67.018  1.00  0.00    -0.126 N  
HETATM   14  C   UNL     1      -8.544   7.517  66.172  1.00  0.00    -0.149 C  
HETATM   15  C   UNL     1      -8.008   8.755  68.262  1.00  0.00    -0.106 C  
BRANCH  13  16
HETATM   16  C   UNL     1     -10.392   8.679  67.454  1.00  0.00    -0.284 C  
BRANCH  16  17
HETATM   17  C   UNL     1     -10.771   9.619  68.571  1.00  0.00    -0.239 A  
HETATM   18  C   UNL     1     -10.793   9.173  69.903  1.00  0.00    -0.242 A  
HETATM   19  C   UNL     1     -11.341   9.972  70.905  1.00  0.00    -0.439 A  
HETATM   20  C   UNL     1     -11.844  11.233  70.594  1.00  0.00    -0.368 A  
HETATM   21  C   UNL     1     -11.758  11.717  69.291  1.00  0.00    -0.396 A  
HETATM   22  C   UNL     1     -11.209  10.921  68.286  1.00  0.00    -0.347 A  
ENDBRANCH  16  17
ENDBRANCH  13  16
ENDBRANCH  12  13
ENDBRANCH  11  12
ENDBRANCH  10  11
ENDBRANCH   9  10
ENDBRANCH   8   9
ENDBRANCH   7   8
ENDBRANCH   6   7
ENDBRANCH   5   6
ENDBRANCH   4   5
ENDBRANCH   3   4
ENDBRANCH   2   3
TORSDOF 13
ENDMDL
MODEL      113
REMARK 921   NORMALIZED FREE ENERGY PREDICTED BY IDOCK:   -4.02 KCAL/MOL
REMARK 922        TOTAL FREE ENERGY PREDICTED BY IDOCK:   -8.55 KCAL/MOL
REMARK 923 INTER-LIGAND FREE ENERGY PREDICTED BY IDOCK:   -7.44 KCAL/MOL
REMARK 924 INTRA-LIGAND FREE ENERGY PREDICTED BY IDOCK:   -1.12 KCAL/MOL
REMARK 927      BINDING AFFINITY PREDICTED BY RF-SCORE:    0.00 PKD
ROOT
HETATM    1  C   UNL     1      -7.019  17.352  66.207  1.00  0.00    -0.319 C  
HETATM    2  C   UNL     1      -6.340  18.695  66.420  1.00  0.00    -0.220 C  
ENDROOT
BRANCH   2   3
HETATM    3  C   UNL     1      -7.216  19.838  65.912  1.00  0.00    -0.320 C  
BRANCH   3   4
HETATM    4  C   UNL     1      -7.737  20.687  67.067  1.00  0.00    -0.319 C  
BRANCH   4   5
HETATM    5  C   UNL     1      -9.214  20.400  67.321  1.00  0.00    -0.525 C  
BRANCH   5   6
HETATM    6  C   UNL     1      -9.913  19.994  66.031  1.00  0.00    -0.542 C  
BRANCH   6   7
HETATM    7  C   UNL     1     -10.688  18.693  66.210  1.00  0.00    -0.278 C  
BRANCH   7   8
HETATM    8  C   UNL     1     -10.495  18.166  67.627  1.00  0.00    -0.432 C  
BRANCH   8   9
HETATM    9  C   UNL     1     -10.474  16.642  67.665  1.00  0.00    -0.320 C  
BRANCH   9  10
HETATM   10  C   UNL     1     -10.590  16.021  66.272  1.00  0.00    -0.288 C  
BRANCH  10  11
HETATM   11  C   UNL     1     -10.332  14.511  66.212  1.00  0.00    -0.300 C  
BRANCH  11  12
HETATM   12  C   UNL     1     -11.475  13.683  66.811  1.00  0.00    -0.346 C  
BRANCH  12  13
HETATM   13  N   UNL     1     -11.103  12.976  68.129  1.00  0.00    -0.243 N  
HETATM   14  C   UNL     1      -9.593  12.973  68.329  1.00  0.00    -0.213 C  
HETATM   15  C   UNL     1     -11.770  13.661  69.316  1.00  0.00    -0.325 C  
BRANCH  13  16
HETATM   16  C   UNL     1     -11.632  11.505  68.022  1.00  0.00    -0.300 C  
BRANCH  16  17
HETATM   17  C   UNL     1     -11.415  10.656  69.250  1.00  0.00    -0.351 A  
HETATM   18  C   UNL     1     -12.354  10.657  70.294  1.00  0.00    -0.406 A  
HETATM   19  C   UNL     1     -12.057  10.043  71.510  1.00  0.00    -0.475 A  
HETATM   20  C   UNL     1     -10.835   9.398  71.685  1.00  0.00    -0.348 A  
HETATM   21  C   UNL     1      -9.928   9.324  70.631  1.00  0.00    -0.336 A  
HETATM   22  C   UNL     1     -10.222   9.936  69.413  1.00  0.00    -0.231 A  
ENDBRANCH  16  17
ENDBRANCH  13  16
ENDBRANCH  12  13
ENDBRANCH  11  12
ENDBRANCH  10  11
ENDBRANCH   9  10
ENDBRANCH   8   9
ENDBRANCH   7   8
ENDBRANCH   6   7
ENDBRANCH   5   6
ENDBRANCH   4   5
ENDBRANCH   3   4
ENDBRANCH   2   3
TORSDOF 13
ENDMDL
MODEL      114
REMARK 921   NORMALIZED FREE ENERGY PREDICTED BY IDOCK:   -4.01 KCAL/MOL
REMARK 922        TOTAL FREE ENERGY PREDICTED BY IDOCK:   -8.53 KCAL/MOL
REMARK 923 INTER-LIGAND FREE ENERGY PREDICTED BY IDOCK:   -7.56 KCAL/MOL
REMARK 924 INTRA-LIGAND FREE ENERGY PREDICTED BY IDOCK:   -0.97 KCAL/MOL
REMARK 927      BINDING AFFINITY PREDICTED BY RF-SCORE:    0.00 PKD
ROOT
HETATM    1  C   UNL     1     -10.153  19.662  68.476  1.00  0.00    -0.557 C  
HETATM    2  C   UNL     1      -9.983  19.529  66.972  1.00  0.00    -0.489 C  
ENDROOT
BRANCH   2   3
HETATM    3  C   UNL     1     -10.337  18.120  66.504  1.00  0.00    -0.397 C  
BRANCH   3   4
HETATM    4  C   UNL     1     -10.380  17.145  67.677  1.00  0.00    -0.344 C  
BRANCH   4   5
HETATM    5  C   UNL     1     -10.565  15.714  67.180  1.00  0.00    -0.308 C  
BRANCH   5   6
HETATM    6  C   UNL     1     -10.259  15.619  65.691  1.00  0.00    -0.402 C  
BRANCH   6   7
HETATM    7  C   UNL     1     -10.600  14.235  65.146  1.00  0.00    -0.423 C  
BRANCH   7   8
HETATM    8  C   UNL     1     -11.753  13.636  65.941  1.00  0.00    -0.378 C  
BRANCH   8   9
HETATM    9  C   UNL     1     -11.574  12.135  66.152  1.00  0.00    -0.418 C  
BRANCH   9  10
HETATM   10  C   UNL     1     -10.145  11.672  65.864  1.00  0.00    -0.267 C  
BRANCH  10  11
HETATM   11  C   UNL     1      -9.349  11.225  67.096  1.00  0.00    -0.172 C  
BRANCH  11  12
HETATM   12  C   UNL     1      -8.919   9.754  67.029  1.00  0.00    -0.138 C  
BRANCH  12  13
HETATM   13  N   UNL     1      -9.138   8.985  68.347  1.00  0.00    -0.133 N  
HETATM   14  C   UNL     1     -10.326   8.038  68.225  1.00  0.00    -0.197 C  
HETATM   15  C   UNL     1      -7.893   8.190  68.721  1.00  0.00    -0.113 C  
BRANCH  13  16
HETATM   16  C   UNL     1      -9.418  10.055  69.458  1.00  0.00    -0.226 C  
BRANCH  16  17
HETATM   17  C   UNL     1     -10.709   9.868  70.215  1.00  0.00    -0.367 A  
HETATM   18  C   UNL     1     -11.797  10.729  69.996  1.00  0.00    -0.424 A  
HETATM   19  C   UNL     1     -12.908  10.690  70.837  1.00  0.00    -0.473 A  
HETATM   20  C   UNL     1     -12.956   9.775  71.886  1.00  0.00    -0.535 A  
HETATM   21  C   UNL     1     -11.918   8.865  72.067  1.00  0.00    -0.439 A  
HETATM   22  C   UNL     1     -10.805   8.899  71.226  1.00  0.00    -0.360 A  
ENDBRANCH  16  17
ENDBRANCH  13  16
ENDBRANCH  12  13
ENDBRANCH  11  12
ENDBRANCH  10  11
ENDBRANCH   9  10
ENDBRANCH   8   9
ENDBRANCH   7   8
ENDBRANCH   6   7
ENDBRANCH   5   6
ENDBRANCH   4   5
ENDBRANCH   3   4
ENDBRANCH   2   3
TORSDOF 13
ENDMDL
MODEL      115
REMARK 921   NORMALIZED FREE ENERGY PREDICTED BY IDOCK:   -4.01 KCAL/MOL
REMARK 922        TOTAL FREE ENERGY PREDICTED BY IDOCK:   -8.53 KCAL/MOL
REMARK 923 INTER-LIGAND FREE ENERGY PREDICTED BY IDOCK:   -7.56 KCAL/MOL
REMARK 924 INTRA-LIGAND FREE ENERGY PREDICTED BY IDOCK:   -0.97 KCAL/MOL
REMARK 927      BINDING AFFINITY PREDICTED BY RF-SCORE:    0.00 PKD
ROOT
HETATM    1  C   UNL     1     -11.112  10.184  70.395  1.00  0.00    -0.393 C  
HETATM    2  C   UNL     1     -12.274  10.013  71.359  1.00  0.00    -0.510 C  
ENDROOT
BRANCH   2   3
HETATM    3  C   UNL     1     -12.164   8.695  72.122  1.00  0.00    -0.453 C  
BRANCH   3   4
HETATM    4  C   UNL     1     -10.959   7.886  71.650  1.00  0.00    -0.280 C  
BRANCH   4   5
HETATM    5  C   UNL     1     -11.369   6.452  71.328  1.00  0.00    -0.361 C  
BRANCH   5   6
HETATM    6  C   UNL     1     -11.587   6.279  69.830  1.00  0.00    -0.361 C  
BRANCH   6   7
HETATM    7  C   UNL     1     -10.468   6.938  69.031  1.00  0.00    -0.223 C  
BRANCH   7   8
HETATM    8  C   UNL     1     -10.776   6.852  67.541  1.00  0.00    -0.368 C  
BRANCH   8   9
HETATM    9  C   UNL     1      -9.897   7.796  66.727  1.00  0.00    -0.312 C  
BRANCH   9  10
HETATM   10  C   UNL     1     -10.316   9.259  66.876  1.00  0.00    -0.316 C  
BRANCH  10  11
HETATM   11  C   UNL     1     -10.035  10.141  65.653  1.00  0.00    -0.348 C  
BRANCH  11  12
HETATM   12  C   UNL     1     -11.022  11.306  65.516  1.00  0.00    -0.131 C  
BRANCH  12  13
HETATM   13  N   UNL     1     -10.899  12.068  64.182  1.00  0.00    -0.320 N  
HETATM   14  C   UNL     1      -9.791  11.471  63.323  1.00  0.00    -0.409 C  
HETATM   15  C   UNL     1     -12.214  12.025  63.413  1.00  0.00    -0.519 C  
BRANCH  13  16
HETATM   16  C   UNL     1     -10.560  13.556  64.536  1.00  0.00    -0.424 C  
BRANCH  16  17
HETATM   17  C   UNL     1     -10.585  13.886  66.008  1.00  0.00    -0.293 A  
HETATM   18  C   UNL     1     -11.795  14.203  66.647  1.00  0.00    -0.447 A  
HETATM   19  C   UNL     1     -11.794  14.709  67.946  1.00  0.00    -0.352 A  
HETATM   20  C   UNL     1     -10.591  14.875  68.628  1.00  0.00    -0.251 A  
HETATM   21  C   UNL     1      -9.392  14.492  68.033  1.00  0.00    -0.201 A  
HETATM   22  C   UNL     1      -9.389  13.984  66.734  1.00  0.00    -0.289 A  
ENDBRANCH  16  17
ENDBRANCH  13  16
ENDBRANCH  12  13
ENDBRANCH  11  12
ENDBRANCH  10  11
ENDBRANCH   9  10
ENDBRANCH   8   9
ENDBRANCH   7   8
ENDBRANCH   6   7
ENDBRANCH   5   6
ENDBRANCH   4   5
ENDBRANCH   3   4
ENDBRANCH   2   3
TORSDOF 13
ENDMDL
MODEL      116
REMARK 921   NORMALIZED FREE ENERGY PREDICTED BY IDOCK:   -4.01 KCAL/MOL
REMARK 922        TOTAL FREE ENERGY PREDICTED BY IDOCK:   -8.53 KCAL/MOL
REMARK 923 INTER-LIGAND FREE ENERGY PREDICTED BY IDOCK:   -7.17 KCAL/MOL
REMARK 924 INTRA-LIGAND FREE ENERGY PREDICTED BY IDOCK:   -1.35 KCAL/MOL
REMARK 927      BINDING AFFINITY PREDICTED BY RF-SCORE:    0.00 PKD
ROOT
HETATM    1  C   UNL     1     -13.540   9.324  72.298  1.00  0.00    -0.544 C  
HETATM    2  C   UNL     1     -14.389   8.205  71.718  1.00  0.00    -0.582 C  
ENDROOT
BRANCH   2   3
HETATM    3  C   UNL     1     -13.527   7.005  71.335  1.00  0.00    -0.323 C  
BRANCH   3   4
HETATM    4  C   UNL     1     -12.124   7.126  71.924  1.00  0.00    -0.357 C  
BRANCH   4   5
HETATM    5  C   UNL     1     -11.122   6.333  71.091  1.00  0.00    -0.356 C  
BRANCH   5   6
HETATM    6  C   UNL     1     -11.225   6.714  69.620  1.00  0.00    -0.397 C  
BRANCH   6   7
HETATM    7  C   UNL     1     -10.064   7.609  69.200  1.00  0.00    -0.194 C  
BRANCH   7   8
HETATM    8  C   UNL     1     -10.598   8.922  68.640  1.00  0.00    -0.182 C  
BRANCH   8   9
HETATM    9  C   UNL     1     -10.816   9.957  69.739  1.00  0.00    -0.300 C  
BRANCH   9  10
HETATM   10  C   UNL     1     -11.974  10.906  69.424  1.00  0.00    -0.393 C  
BRANCH  10  11
HETATM   11  C   UNL     1     -11.563  12.354  69.133  1.00  0.00    -0.369 C  
BRANCH  11  12
HETATM   12  C   UNL     1     -11.832  12.772  67.682  1.00  0.00    -0.339 C  
BRANCH  12  13
HETATM   13  N   UNL     1     -10.578  12.736  66.786  1.00  0.00    -0.250 N  
HETATM   14  C   UNL     1      -9.312  12.718  67.633  1.00  0.00    -0.191 C  
HETATM   15  C   UNL     1     -10.598  11.510  65.880  1.00  0.00    -0.268 C  
BRANCH  13  16
HETATM   16  C   UNL     1     -10.613  14.029  65.901  1.00  0.00    -0.301 C  
BRANCH  16  17
HETATM   17  C   UNL     1     -10.094  15.277  66.571  1.00  0.00    -0.280 A  
HETATM   18  C   UNL     1     -10.877  15.956  67.520  1.00  0.00    -0.305 A  
HETATM   19  C   UNL     1     -10.492  17.213  67.981  1.00  0.00    -0.369 A  
HETATM   20  C   UNL     1      -9.311  17.793  67.523  1.00  0.00    -0.245 A  
HETATM   21  C   UNL     1      -8.489  17.097  66.642  1.00  0.00    -0.284 A  
HETATM   22  C   UNL     1      -8.869  15.837  66.178  1.00  0.00    -0.346 A  
ENDBRANCH  16  17
ENDBRANCH  13  16
ENDBRANCH  12  13
ENDBRANCH  11  12
ENDBRANCH  10  11
ENDBRANCH   9  10
ENDBRANCH   8   9
ENDBRANCH   7   8
ENDBRANCH   6   7
ENDBRANCH   5   6
ENDBRANCH   4   5
ENDBRANCH   3   4
ENDBRANCH   2   3
TORSDOF 13
ENDMDL
MODEL      117
REMARK 921   NORMALIZED FREE ENERGY PREDICTED BY IDOCK:   -4.01 KCAL/MOL
REMARK 922        TOTAL FREE ENERGY PREDICTED BY IDOCK:   -8.52 KCAL/MOL
REMARK 923 INTER-LIGAND FREE ENERGY PREDICTED BY IDOCK:   -7.04 KCAL/MOL
REMARK 924 INTRA-LIGAND FREE ENERGY PREDICTED BY IDOCK:   -1.49 KCAL/MOL
REMARK 927      BINDING AFFINITY PREDICTED BY RF-SCORE:    0.00 PKD
ROOT
HETATM    1  C   UNL     1     -10.404   6.379  68.392  1.00  0.00    -0.228 C  
HETATM    2  C   UNL     1     -11.259   6.094  69.616  1.00  0.00    -0.488 C  
ENDROOT
BRANCH   2   3
HETATM    3  C   UNL     1     -10.811   6.939  70.806  1.00  0.00    -0.279 C  
BRANCH   3   4
HETATM    4  C   UNL     1      -9.847   8.037  70.369  1.00  0.00    -0.183 C  
BRANCH   4   5
HETATM    5  C   UNL     1     -10.324   9.399  70.866  1.00  0.00    -0.380 C  
BRANCH   5   6
HETATM    6  C   UNL     1     -11.433   9.939  69.973  1.00  0.00    -0.274 C  
BRANCH   6   7
HETATM    7  C   UNL     1     -10.987  10.001  68.516  1.00  0.00    -0.255 C  
BRANCH   7   8
HETATM    8  C   UNL     1     -11.344  11.357  67.921  1.00  0.00    -0.371 C  
BRANCH   8   9
HETATM    9  C   UNL     1     -10.174  11.965  67.155  1.00  0.00    -0.230 C  
BRANCH   9  10
HETATM   10  C   UNL     1      -9.035  12.399  68.079  1.00  0.00    -0.194 C  
BRANCH  10  11
HETATM   11  C   UNL     1      -8.723  13.900  68.061  1.00  0.00    -0.183 C  
BRANCH  11  12
HETATM   12  C   UNL     1      -9.576  14.701  69.053  1.00  0.00    -0.145 C  
BRANCH  12  13
HETATM   13  N   UNL     1     -10.602  15.631  68.377  1.00  0.00    -0.244 N  
HETATM   14  C   UNL     1     -10.553  17.024  68.992  1.00  0.00    -0.314 C  
HETATM   15  C   UNL     1     -10.336  15.729  66.879  1.00  0.00    -0.295 C  
BRANCH  13  16
HETATM   16  C   UNL     1     -12.015  14.993  68.606  1.00  0.00    -0.246 C  
BRANCH  16  17
HETATM   17  C   UNL     1     -12.361  14.705  70.046  1.00  0.00    -0.365 A  
HETATM   18  C   UNL     1     -12.428  13.382  70.513  1.00  0.00    -0.350 A  
HETATM   19  C   UNL     1     -12.948  13.105  71.777  1.00  0.00    -0.435 A  
HETATM   20  C   UNL     1     -13.378  14.147  72.596  1.00  0.00    -0.638 A  
HETATM   21  C   UNL     1     -13.246  15.467  72.175  1.00  0.00    -0.517 A  
HETATM   22  C   UNL     1     -12.725  15.748  70.912  1.00  0.00    -0.422 A  
ENDBRANCH  16  17
ENDBRANCH  13  16
ENDBRANCH  12  13
ENDBRANCH  11  12
ENDBRANCH  10  11
ENDBRANCH   9  10
ENDBRANCH   8   9
ENDBRANCH   7   8
ENDBRANCH   6   7
ENDBRANCH   5   6
ENDBRANCH   4   5
ENDBRANCH   3   4
ENDBRANCH   2   3
TORSDOF 13
ENDMDL
MODEL      118
REMARK 921   NORMALIZED FREE ENERGY PREDICTED BY IDOCK:   -4.00 KCAL/MOL
REMARK 922        TOTAL FREE ENERGY PREDICTED BY IDOCK:   -8.51 KCAL/MOL
REMARK 923 INTER-LIGAND FREE ENERGY PREDICTED BY IDOCK:   -7.37 KCAL/MOL
REMARK 924 INTRA-LIGAND FREE ENERGY PREDICTED BY IDOCK:   -1.14 KCAL/MOL
REMARK 927      BINDING AFFINITY PREDICTED BY RF-SCORE:    0.00 PKD
ROOT
HETATM    1  C   UNL     1     -11.127  10.456  67.583  1.00  0.00    -0.361 C  
HETATM    2  C   UNL     1     -10.638  11.265  66.393  1.00  0.00    -0.316 C  
ENDROOT
BRANCH   2   3
HETATM    3  C   UNL     1     -11.457  12.541  66.224  1.00  0.00    -0.421 C  
BRANCH   3   4
HETATM    4  C   UNL     1     -11.014  13.615  67.213  1.00  0.00    -0.299 C  
BRANCH   4   5
HETATM    5  C   UNL     1     -12.159  13.985  68.152  1.00  0.00    -0.307 C  
BRANCH   5   6
HETATM    6  C   UNL     1     -11.623  14.607  69.435  1.00  0.00    -0.342 C  
BRANCH   6   7
HETATM    7  C   UNL     1     -12.177  13.896  70.665  1.00  0.00    -0.443 C  
BRANCH   7   8
HETATM    8  C   UNL     1     -12.064  12.388  70.486  1.00  0.00    -0.363 C  
BRANCH   8   9
HETATM    9  C   UNL     1     -12.882  11.632  71.529  1.00  0.00    -0.469 C  
BRANCH   9  10
HETATM   10  C   UNL     1     -12.905  10.125  71.272  1.00  0.00    -0.508 C  
BRANCH  10  11
HETATM   11  C   UNL     1     -11.556   9.417  71.450  1.00  0.00    -0.451 C  
BRANCH  11  12
HETATM   12  C   UNL     1     -11.589   8.328  72.529  1.00  0.00    -0.385 C  
BRANCH  12  13
HETATM   13  N   UNL     1     -10.670   7.129  72.225  1.00  0.00    -0.214 N  
HETATM   14  C   UNL     1      -9.418   7.585  71.485  1.00  0.00    -0.150 C  
HETATM   15  C   UNL     1     -10.265   6.420  73.513  1.00  0.00    -0.248 C  
BRANCH  13  16
HETATM   16  C   UNL     1     -11.491   6.139  71.330  1.00  0.00    -0.254 C  
BRANCH  16  17
HETATM   17  C   UNL     1     -10.932   5.913  69.947  1.00  0.00    -0.444 A  
HETATM   18  C   UNL     1     -11.390   6.672  68.858  1.00  0.00    -0.209 A  
HETATM   19  C   UNL     1     -11.033   6.326  67.557  1.00  0.00    -0.444 A  
HETATM   20  C   UNL     1     -10.193   5.237  67.331  1.00  0.00    -0.240 A  
HETATM   21  C   UNL     1      -9.670   4.524  68.406  1.00  0.00    -0.188 A  
HETATM   22  C   UNL     1     -10.025   4.869  69.711  1.00  0.00    -0.314 A  
ENDBRANCH  16  17
ENDBRANCH  13  16
ENDBRANCH  12  13
ENDBRANCH  11  12
ENDBRANCH  10  11
ENDBRANCH   9  10
ENDBRANCH   8   9
ENDBRANCH   7   8
ENDBRANCH   6   7
ENDBRANCH   5   6
ENDBRANCH   4   5
ENDBRANCH   3   4
ENDBRANCH   2   3
TORSDOF 13
ENDMDL
MODEL      119
REMARK 921   NORMALIZED FREE ENERGY PREDICTED BY IDOCK:   -3.99 KCAL/MOL
REMARK 922        TOTAL FREE ENERGY PREDICTED BY IDOCK:   -8.49 KCAL/MOL
REMARK 923 INTER-LIGAND FREE ENERGY PREDICTED BY IDOCK:   -7.52 KCAL/MOL
REMARK 924 INTRA-LIGAND FREE ENERGY PREDICTED BY IDOCK:   -0.97 KCAL/MOL
REMARK 927      BINDING AFFINITY PREDICTED BY RF-SCORE:    0.00 PKD
ROOT
HETATM    1  C   UNL     1     -10.293   8.216  72.690  1.00  0.00    -0.398 C  
HETATM    2  C   UNL     1     -11.479   8.090  71.748  1.00  0.00    -0.324 C  
ENDROOT
BRANCH   2   3
HETATM    3  C   UNL     1     -12.697   8.827  72.299  1.00  0.00    -0.466 C  
BRANCH   3   4
HETATM    4  C   UNL     1     -13.259   9.806  71.273  1.00  0.00    -0.452 C  
BRANCH   4   5
HETATM    5  C   UNL     1     -12.824  11.232  71.598  1.00  0.00    -0.510 C  
BRANCH   5   6
HETATM    6  C   UNL     1     -12.268  11.920  70.358  1.00  0.00    -0.399 C  
BRANCH   6   7
HETATM    7  C   UNL     1     -11.105  11.131  69.765  1.00  0.00    -0.271 C  
BRANCH   7   8
HETATM    8  C   UNL     1     -11.404  10.782  68.312  1.00  0.00    -0.376 C  
BRANCH   8   9
HETATM    9  C   UNL     1     -10.560  11.607  67.347  1.00  0.00    -0.257 C  
BRANCH   9  10
HETATM   10  C   UNL     1     -11.321  12.810  66.787  1.00  0.00    -0.362 C  
BRANCH  10  11
HETATM   11  C   UNL     1     -10.798  14.177  67.243  1.00  0.00    -0.288 C  
BRANCH  11  12
HETATM   12  C   UNL     1      -9.384  14.478  66.733  1.00  0.00    -0.261 C  
BRANCH  12  13
HETATM   13  N   UNL     1      -8.503  15.223  67.754  1.00  0.00    -0.147 N  
HETATM   14  C   UNL     1      -7.899  14.248  68.757  1.00  0.00    -0.128 C  
HETATM   15  C   UNL     1      -7.384  15.982  67.049  1.00  0.00    -0.223 C  
BRANCH  13  16
HETATM   16  C   UNL     1      -9.430  16.247  68.494  1.00  0.00    -0.219 C  
BRANCH  16  17
HETATM   17  C   UNL     1      -9.447  17.636  67.907  1.00  0.00    -0.276 A  
HETATM   18  C   UNL     1      -8.816  18.701  68.572  1.00  0.00    -0.361 A  
HETATM   19  C   UNL     1      -9.008  20.013  68.142  1.00  0.00    -0.271 A  
HETATM   20  C   UNL     1      -9.806  20.273  67.031  1.00  0.00    -0.607 A  
HETATM   21  C   UNL     1     -10.375  19.221  66.318  1.00  0.00    -0.566 A  
HETATM   22  C   UNL     1     -10.184  17.906  66.743  1.00  0.00    -0.360 A  
ENDBRANCH  16  17
ENDBRANCH  13  16
ENDBRANCH  12  13
ENDBRANCH  11  12
ENDBRANCH  10  11
ENDBRANCH   9  10
ENDBRANCH   8   9
ENDBRANCH   7   8
ENDBRANCH   6   7
ENDBRANCH   5   6
ENDBRANCH   4   5
ENDBRANCH   3   4
ENDBRANCH   2   3
TORSDOF 13
ENDMDL
MODEL      120
REMARK 921   NORMALIZED FREE ENERGY PREDICTED BY IDOCK:   -3.99 KCAL/MOL
REMARK 922        TOTAL FREE ENERGY PREDICTED BY IDOCK:   -8.49 KCAL/MOL
REMARK 923 INTER-LIGAND FREE ENERGY PREDICTED BY IDOCK:   -7.05 KCAL/MOL
REMARK 924 INTRA-LIGAND FREE ENERGY PREDICTED BY IDOCK:   -1.44 KCAL/MOL
REMARK 927      BINDING AFFINITY PREDICTED BY RF-SCORE:    0.00 PKD
ROOT
HETATM    1  C   UNL     1     -12.274  12.690  63.434  1.00  0.00    -0.610 C  
HETATM    2  C   UNL     1     -11.360  13.196  64.538  1.00  0.00    -0.383 C  
ENDROOT
BRANCH   2   3
HETATM    3  C   UNL     1     -12.121  13.342  65.854  1.00  0.00    -0.486 C  
BRANCH   3   4
HETATM    4  C   UNL     1     -11.450  12.544  66.968  1.00  0.00    -0.419 C  
BRANCH   4   5
HETATM    5  C   UNL     1     -11.034  11.165  66.465  1.00  0.00    -0.270 C  
BRANCH   5   6
HETATM    6  C   UNL     1      -9.573  10.890  66.794  1.00  0.00    -0.210 C  
BRANCH   6   7
HETATM    7  C   UNL     1      -9.416   9.573  67.546  1.00  0.00    -0.155 C  
BRANCH   7   8
HETATM    8  C   UNL     1     -10.417   8.553  67.019  1.00  0.00    -0.362 C  
BRANCH   8   9
HETATM    9  C   UNL     1     -10.092   7.142  67.497  1.00  0.00    -0.241 C  
BRANCH   9  10
HETATM   10  C   UNL     1      -8.752   7.069  68.232  1.00  0.00    -0.127 C  
BRANCH  10  11
HETATM   11  C   UNL     1      -8.804   6.396  69.609  1.00  0.00    -0.137 C  
BRANCH  11  12
HETATM   12  C   UNL     1     -10.203   6.428  70.238  1.00  0.00    -0.195 C  
BRANCH  12  13
HETATM   13  N   UNL     1     -10.188   6.398  71.779  1.00  0.00    -0.196 N  
HETATM   14  C   UNL     1     -11.475   5.785  72.317  1.00  0.00    -0.262 C  
HETATM   15  C   UNL     1      -8.995   5.600  72.292  1.00  0.00    -0.139 C  
BRANCH  13  16
HETATM   16  C   UNL     1     -10.058   7.883  72.263  1.00  0.00    -0.236 C  
BRANCH  16  17
HETATM   17  C   UNL     1     -11.053   8.842  71.658  1.00  0.00    -0.420 A  
HETATM   18  C   UNL     1     -10.658   9.742  70.655  1.00  0.00    -0.382 A  
HETATM   19  C   UNL     1     -11.514  10.763  70.246  1.00  0.00    -0.406 A  
HETATM   20  C   UNL     1     -12.781  10.879  70.813  1.00  0.00    -0.431 A  
HETATM   21  C   UNL     1     -13.213   9.947  71.753  1.00  0.00    -0.535 A  
HETATM   22  C   UNL     1     -12.360   8.923  72.164  1.00  0.00    -0.449 A  
ENDBRANCH  16  17
ENDBRANCH  13  16
ENDBRANCH  12  13
ENDBRANCH  11  12
ENDBRANCH  10  11
ENDBRANCH   9  10
ENDBRANCH   8   9
ENDBRANCH   7   8
ENDBRANCH   6   7
ENDBRANCH   5   6
ENDBRANCH   4   5
ENDBRANCH   3   4
ENDBRANCH   2   3
TORSDOF 13
ENDMDL
MODEL      121
REMARK 921   NORMALIZED FREE ENERGY PREDICTED BY IDOCK:   -3.99 KCAL/MOL
REMARK 922        TOTAL FREE ENERGY PREDICTED BY IDOCK:   -8.49 KCAL/MOL
REMARK 923 INTER-LIGAND FREE ENERGY PREDICTED BY IDOCK:   -6.65 KCAL/MOL
REMARK 924 INTRA-LIGAND FREE ENERGY PREDICTED BY IDOCK:   -1.83 KCAL/MOL
REMARK 927      BINDING AFFINITY PREDICTED BY RF-SCORE:    0.00 PKD
ROOT
HETATM    1  C   UNL     1     -11.445   6.643  71.777  1.00  0.00    -0.334 C  
HETATM    2  C   UNL     1     -11.855   7.943  72.450  1.00  0.00    -0.402 C  
ENDROOT
BRANCH   2   3
HETATM    3  C   UNL     1     -11.139   9.135  71.819  1.00  0.00    -0.437 C  
BRANCH   3   4
HETATM    4  C   UNL     1     -12.100   9.972  70.980  1.00  0.00    -0.469 C  
BRANCH   4   5
HETATM    5  C   UNL     1     -13.097  10.702  71.875  1.00  0.00    -0.563 C  
BRANCH   5   6
HETATM    6  C   UNL     1     -12.964  12.210  71.711  1.00  0.00    -0.437 C  
BRANCH   6   7
HETATM    7  C   UNL     1     -12.244  12.562  70.412  1.00  0.00    -0.368 C  
BRANCH   7   8
HETATM    8  C   UNL     1     -12.341  14.060  70.156  1.00  0.00    -0.409 C  
BRANCH   8   9
HETATM    9  C   UNL     1     -11.640  14.459  68.861  1.00  0.00    -0.340 C  
BRANCH   9  10
HETATM   10  C   UNL     1     -10.145  14.139  68.885  1.00  0.00    -0.155 C  
BRANCH  10  11
HETATM   11  C   UNL     1      -9.538  13.779  67.524  1.00  0.00    -0.219 C  
BRANCH  11  12
HETATM   12  C   UNL     1     -10.597  13.468  66.459  1.00  0.00    -0.281 C  
BRANCH  12  13
HETATM   13  N   UNL     1     -10.560  12.012  65.957  1.00  0.00    -0.258 N  
HETATM   14  C   UNL     1     -11.365  11.866  64.671  1.00  0.00    -0.293 C  
HETATM   15  C   UNL     1      -9.125  11.562  65.708  1.00  0.00    -0.154 C  
BRANCH  13  16
HETATM   16  C   UNL     1     -11.188  11.124  67.085  1.00  0.00    -0.249 C  
BRANCH  16  17
HETATM   17  C   UNL     1     -10.317   9.991  67.567  1.00  0.00    -0.282 A  
HETATM   18  C   UNL     1     -10.499   8.689  67.071  1.00  0.00    -0.354 A  
HETATM   19  C   UNL     1      -9.843   7.611  67.663  1.00  0.00    -0.207 A  
HETATM   20  C   UNL     1      -8.979   7.824  68.735  1.00  0.00    -0.141 A  
HETATM   21  C   UNL     1      -8.732   9.118  69.185  1.00  0.00    -0.138 A  
HETATM   22  C   UNL     1      -9.385  10.200  68.595  1.00  0.00    -0.161 A  
ENDBRANCH  16  17
ENDBRANCH  13  16
ENDBRANCH  12  13
ENDBRANCH  11  12
ENDBRANCH  10  11
ENDBRANCH   9  10
ENDBRANCH   8   9
ENDBRANCH   7   8
ENDBRANCH   6   7
ENDBRANCH   5   6
ENDBRANCH   4   5
ENDBRANCH   3   4
ENDBRANCH   2   3
TORSDOF 13
ENDMDL
MODEL      122
REMARK 921   NORMALIZED FREE ENERGY PREDICTED BY IDOCK:   -3.98 KCAL/MOL
REMARK 922        TOTAL FREE ENERGY PREDICTED BY IDOCK:   -8.47 KCAL/MOL
REMARK 923 INTER-LIGAND FREE ENERGY PREDICTED BY IDOCK:   -7.75 KCAL/MOL
REMARK 924 INTRA-LIGAND FREE ENERGY PREDICTED BY IDOCK:   -0.72 KCAL/MOL
REMARK 927      BINDING AFFINITY PREDICTED BY RF-SCORE:    0.00 PKD
ROOT
HETATM    1  C   UNL     1     -11.227   8.164  72.229  1.00  0.00    -0.425 C  
HETATM    2  C   UNL     1     -12.619   8.638  71.845  1.00  0.00    -0.411 C  
ENDROOT
BRANCH   2   3
HETATM    3  C   UNL     1     -12.691  10.162  71.820  1.00  0.00    -0.534 C  
BRANCH   3   4
HETATM    4  C   UNL     1     -12.795  10.685  70.391  1.00  0.00    -0.277 C  
BRANCH   4   5
HETATM    5  C   UNL     1     -11.425  11.116  69.876  1.00  0.00    -0.386 C  
BRANCH   5   6
HETATM    6  C   UNL     1     -11.278  10.787  68.396  1.00  0.00    -0.345 C  
BRANCH   6   7
HETATM    7  C   UNL     1     -10.592   9.439  68.197  1.00  0.00    -0.261 C  
BRANCH   7   8
HETATM    8  C   UNL     1      -9.995   9.363  66.798  1.00  0.00    -0.305 C  
BRANCH   8   9
HETATM    9  C   UNL     1      -9.823  10.747  66.181  1.00  0.00    -0.269 C  
BRANCH   9  10
HETATM   10  C   UNL     1     -10.306  10.804  64.731  1.00  0.00    -0.380 C  
BRANCH  10  11
HETATM   11  C   UNL     1     -11.104  12.060  64.363  1.00  0.00    -0.399 C  
BRANCH  11  12
HETATM   12  C   UNL     1     -10.350  13.360  64.672  1.00  0.00    -0.381 C  
BRANCH  12  13
HETATM   13  N   UNL     1     -11.088  14.283  65.662  1.00  0.00    -0.308 N  
HETATM   14  C   UNL     1     -12.592  14.051  65.594  1.00  0.00    -0.512 C  
HETATM   15  C   UNL     1     -10.602  14.043  67.087  1.00  0.00    -0.274 C  
BRANCH  13  16
HETATM   16  C   UNL     1     -10.754  15.756  65.247  1.00  0.00    -0.428 C  
BRANCH  16  17
HETATM   17  C   UNL     1     -10.034  16.569  66.295  1.00  0.00    -0.346 A  
HETATM   18  C   UNL     1     -10.756  17.277  67.270  1.00  0.00    -0.215 A  
HETATM   19  C   UNL     1     -10.109  18.189  68.102  1.00  0.00    -0.388 A  
HETATM   20  C   UNL     1      -8.734  18.381  67.990  1.00  0.00    -0.302 A  
HETATM   21  C   UNL     1      -7.996  17.629  67.079  1.00  0.00    -0.242 A  
HETATM   22  C   UNL     1      -8.639  16.715  66.246  1.00  0.00    -0.359 A  
ENDBRANCH  16  17
ENDBRANCH  13  16
ENDBRANCH  12  13
ENDBRANCH  11  12
ENDBRANCH  10  11
ENDBRANCH   9  10
ENDBRANCH   8   9
ENDBRANCH   7   8
ENDBRANCH   6   7
ENDBRANCH   5   6
ENDBRANCH   4   5
ENDBRANCH   3   4
ENDBRANCH   2   3
TORSDOF 13
ENDMDL
MODEL      123
REMARK 921   NORMALIZED FREE ENERGY PREDICTED BY IDOCK:   -3.96 KCAL/MOL
REMARK 922        TOTAL FREE ENERGY PREDICTED BY IDOCK:   -8.45 KCAL/MOL
REMARK 923 INTER-LIGAND FREE ENERGY PREDICTED BY IDOCK:   -7.76 KCAL/MOL
REMARK 924 INTRA-LIGAND FREE ENERGY PREDICTED BY IDOCK:   -0.68 KCAL/MOL
REMARK 927      BINDING AFFINITY PREDICTED BY RF-SCORE:    0.00 PKD
ROOT
HETATM    1  C   UNL     1      -9.651   4.230  69.781  1.00  0.00    -0.279 C  
HETATM    2  C   UNL     1     -10.443   5.364  70.410  1.00  0.00    -0.345 C  
ENDROOT
BRANCH   2   3
HETATM    3  C   UNL     1     -11.115   6.221  69.342  1.00  0.00    -0.477 C  
BRANCH   3   4
HETATM    4  C   UNL     1     -10.545   5.924  67.958  1.00  0.00    -0.321 C  
BRANCH   4   5
HETATM    5  C   UNL     1     -10.634   7.157  67.064  1.00  0.00    -0.413 C  
BRANCH   5   6
HETATM    6  C   UNL     1     -10.464   8.430  67.884  1.00  0.00    -0.255 C  
BRANCH   6   7
HETATM    7  C   UNL     1     -10.337   9.653  66.982  1.00  0.00    -0.315 C  
BRANCH   7   8
HETATM    8  C   UNL     1     -11.131  10.813  67.569  1.00  0.00    -0.374 C  
BRANCH   8   9
HETATM    9  C   UNL     1     -11.482  11.852  66.508  1.00  0.00    -0.381 C  
BRANCH   9  10
HETATM   10  C   UNL     1     -12.227  13.053  67.092  1.00  0.00    -0.200 C  
BRANCH  10  11
HETATM   11  C   UNL     1     -11.534  14.406  66.888  1.00  0.00    -0.379 C  
BRANCH  11  12
HETATM   12  C   UNL     1     -11.739  15.368  68.064  1.00  0.00    -0.221 C  
BRANCH  12  13
HETATM   13  N   UNL     1     -10.425  15.931  68.639  1.00  0.00    -0.231 N  
HETATM   14  C   UNL     1      -9.244  15.549  67.756  1.00  0.00    -0.179 C  
HETATM   15  C   UNL     1     -10.496  17.449  68.761  1.00  0.00    -0.333 C  
BRANCH  13  16
HETATM   16  C   UNL     1     -10.249  15.309  70.067  1.00  0.00    -0.197 C  
BRANCH  16  17
HETATM   17  C   UNL     1     -11.533  15.052  70.816  1.00  0.00    -0.335 A  
HETATM   18  C   UNL     1     -12.093  16.045  71.636  1.00  0.00    -0.537 A  
HETATM   19  C   UNL     1     -13.155  15.742  72.486  1.00  0.00    -0.558 A  
HETATM   20  C   UNL     1     -13.686  14.454  72.505  1.00  0.00    -0.589 A  
HETATM   21  C   UNL     1     -13.190  13.481  71.642  1.00  0.00    -0.449 A  
HETATM   22  C   UNL     1     -12.128  13.781  70.789  1.00  0.00    -0.395 A  
ENDBRANCH  16  17
ENDBRANCH  13  16
ENDBRANCH  12  13
ENDBRANCH  11  12
ENDBRANCH  10  11
ENDBRANCH   9  10
ENDBRANCH   8   9
ENDBRANCH   7   8
ENDBRANCH   6   7
ENDBRANCH   5   6
ENDBRANCH   4   5
ENDBRANCH   3   4
ENDBRANCH   2   3
TORSDOF 13
ENDMDL
MODEL      124
REMARK 921   NORMALIZED FREE ENERGY PREDICTED BY IDOCK:   -3.96 KCAL/MOL
REMARK 922        TOTAL FREE ENERGY PREDICTED BY IDOCK:   -8.44 KCAL/MOL
REMARK 923 INTER-LIGAND FREE ENERGY PREDICTED BY IDOCK:   -7.80 KCAL/MOL
REMARK 924 INTRA-LIGAND FREE ENERGY PREDICTED BY IDOCK:   -0.64 KCAL/MOL
REMARK 927      BINDING AFFINITY PREDICTED BY RF-SCORE:    0.00 PKD
ROOT
HETATM    1  C   UNL     1      -8.417   7.866  72.516  1.00  0.00    -0.197 C  
HETATM    2  C   UNL     1      -8.435   8.659  71.220  1.00  0.00    -0.226 C  
ENDROOT
BRANCH   2   3
HETATM    3  C   UNL     1      -9.865   8.990  70.801  1.00  0.00    -0.304 C  
BRANCH   3   4
HETATM    4  C   UNL     1     -10.809   8.967  72.000  1.00  0.00    -0.404 C  
BRANCH   4   5
HETATM    5  C   UNL     1     -12.135   8.312  71.626  1.00  0.00    -0.346 C  
BRANCH   5   6
HETATM    6  C   UNL     1     -13.271   9.325  71.689  1.00  0.00    -0.456 C  
BRANCH   6   7
HETATM    7  C   UNL     1     -12.830  10.682  71.152  1.00  0.00    -0.518 C  
BRANCH   7   8
HETATM    8  C   UNL     1     -13.436  11.795  71.997  1.00  0.00    -0.319 C  
BRANCH   8   9
HETATM    9  C   UNL     1     -12.895  13.165  71.600  1.00  0.00    -0.388 C  
BRANCH   9  10
HETATM   10  C   UNL     1     -12.152  13.134  70.264  1.00  0.00    -0.399 C  
BRANCH  10  11
HETATM   11  C   UNL     1     -11.457  14.445  69.878  1.00  0.00    -0.314 C  
BRANCH  11  12
HETATM   12  C   UNL     1     -10.297  14.242  68.896  1.00  0.00    -0.215 C  
BRANCH  12  13
HETATM   13  N   UNL     1     -10.472  15.001  67.567  1.00  0.00    -0.252 N  
HETATM   14  C   UNL     1     -10.593  16.500  67.815  1.00  0.00    -0.332 C  
HETATM   15  C   UNL     1      -9.294  14.737  66.636  1.00  0.00    -0.268 C  
BRANCH  13  16
HETATM   16  C   UNL     1     -11.783  14.461  66.902  1.00  0.00    -0.402 C  
BRANCH  16  17
HETATM   17  C   UNL     1     -11.572  13.546  65.720  1.00  0.00    -0.351 A  
HETATM   18  C   UNL     1     -11.910  13.966  64.423  1.00  0.00    -0.456 A  
HETATM   19  C   UNL     1     -11.913  13.057  63.367  1.00  0.00    -0.592 A  
HETATM   20  C   UNL     1     -11.552  11.729  63.588  1.00  0.00    -0.521 A  
HETATM   21  C   UNL     1     -11.142  11.320  64.854  1.00  0.00    -0.183 A  
HETATM   22  C   UNL     1     -11.136  12.227  65.913  1.00  0.00    -0.360 A  
ENDBRANCH  16  17
ENDBRANCH  13  16
ENDBRANCH  12  13
ENDBRANCH  11  12
ENDBRANCH  10  11
ENDBRANCH   9  10
ENDBRANCH   8   9
ENDBRANCH   7   8
ENDBRANCH   6   7
ENDBRANCH   5   6
ENDBRANCH   4   5
ENDBRANCH   3   4
ENDBRANCH   2   3
TORSDOF 13
ENDMDL
MODEL      125
REMARK 921   NORMALIZED FREE ENERGY PREDICTED BY IDOCK:   -3.96 KCAL/MOL
REMARK 922        TOTAL FREE ENERGY PREDICTED BY IDOCK:   -8.43 KCAL/MOL
REMARK 923 INTER-LIGAND FREE ENERGY PREDICTED BY IDOCK:   -7.06 KCAL/MOL
REMARK 924 INTRA-LIGAND FREE ENERGY PREDICTED BY IDOCK:   -1.37 KCAL/MOL
REMARK 927      BINDING AFFINITY PREDICTED BY RF-SCORE:    0.00 PKD
ROOT
HETATM    1  C   UNL     1     -12.596  11.650  71.184  1.00  0.00    -0.439 C  
HETATM    2  C   UNL     1     -13.151  10.278  70.838  1.00  0.00    -0.423 C  
ENDROOT
BRANCH   2   3
HETATM    3  C   UNL     1     -13.585   9.530  72.096  1.00  0.00    -0.500 C  
BRANCH   3   4
HETATM    4  C   UNL     1     -14.032   8.109  71.764  1.00  0.00    -0.479 C  
BRANCH   4   5
HETATM    5  C   UNL     1     -12.852   7.277  71.270  1.00  0.00    -0.391 C  
BRANCH   5   6
HETATM    6  C   UNL     1     -11.684   7.369  72.242  1.00  0.00    -0.326 C  
BRANCH   6   7
HETATM    7  C   UNL     1     -10.413   7.829  71.534  1.00  0.00    -0.239 C  
BRANCH   7   8
HETATM    8  C   UNL     1     -10.388   7.286  70.111  1.00  0.00    -0.221 C  
BRANCH   8   9
HETATM    9  C   UNL     1     -10.202   8.399  69.085  1.00  0.00    -0.217 C  
BRANCH   9  10
HETATM   10  C   UNL     1      -9.653   9.683  69.710  1.00  0.00    -0.242 C  
BRANCH  10  11
HETATM   11  C   UNL     1      -9.562  10.879  68.755  1.00  0.00    -0.195 C  
BRANCH  11  12
HETATM   12  C   UNL     1     -10.617  10.840  67.642  1.00  0.00    -0.231 C  
BRANCH  12  13
HETATM   13  N   UNL     1     -10.435  11.940  66.579  1.00  0.00    -0.216 N  
HETATM   14  C   UNL     1      -9.192  12.771  66.872  1.00  0.00    -0.229 C  
HETATM   15  C   UNL     1     -10.320  11.331  65.186  1.00  0.00    -0.295 C  
BRANCH  13  16
HETATM   16  C   UNL     1     -11.712  12.847  66.638  1.00  0.00    -0.390 C  
BRANCH  16  17
HETATM   17  C   UNL     1     -11.506  14.202  67.268  1.00  0.00    -0.371 A  
HETATM   18  C   UNL     1     -10.906  15.243  66.540  1.00  0.00    -0.311 A  
HETATM   19  C   UNL     1     -10.526  16.422  67.180  1.00  0.00    -0.297 A  
HETATM   20  C   UNL     1     -10.767  16.584  68.543  1.00  0.00    -0.336 A  
HETATM   21  C   UNL     1     -11.429  15.591  69.258  1.00  0.00    -0.349 A  
HETATM   22  C   UNL     1     -11.813  14.410  68.621  1.00  0.00    -0.366 A  
ENDBRANCH  16  17
ENDBRANCH  13  16
ENDBRANCH  12  13
ENDBRANCH  11  12
ENDBRANCH  10  11
ENDBRANCH   9  10
ENDBRANCH   8   9
ENDBRANCH   7   8
ENDBRANCH   6   7
ENDBRANCH   5   6
ENDBRANCH   4   5
ENDBRANCH   3   4
ENDBRANCH   2   3
TORSDOF 13
ENDMDL
MODEL      126
REMARK 921   NORMALIZED FREE ENERGY PREDICTED BY IDOCK:   -3.95 KCAL/MOL
REMARK 922        TOTAL FREE ENERGY PREDICTED BY IDOCK:   -8.42 KCAL/MOL
REMARK 923 INTER-LIGAND FREE ENERGY PREDICTED BY IDOCK:   -7.21 KCAL/MOL
REMARK 924 INTRA-LIGAND FREE ENERGY PREDICTED BY IDOCK:   -1.20 KCAL/MOL
REMARK 927      BINDING AFFINITY PREDICTED BY RF-SCORE:    0.00 PKD
ROOT
HETATM    1  C   UNL     1     -12.125  10.011  70.953  1.00  0.00    -0.448 C  
HETATM    2  C   UNL     1     -10.898   9.316  71.518  1.00  0.00    -0.442 C  
ENDROOT
BRANCH   2   3
HETATM    3  C   UNL     1      -9.997   8.799  70.399  1.00  0.00    -0.219 C  
BRANCH   3   4
HETATM    4  C   UNL     1     -10.736   7.798  69.516  1.00  0.00    -0.200 C  
BRANCH   4   5
HETATM    5  C   UNL     1      -9.915   7.470  68.273  1.00  0.00    -0.193 C  
BRANCH   5   6
HETATM    6  C   UNL     1     -10.522   8.125  67.039  1.00  0.00    -0.396 C  
BRANCH   6   7
HETATM    7  C   UNL     1      -9.773   9.401  66.668  1.00  0.00    -0.280 C  
BRANCH   7   8
HETATM    8  C   UNL     1     -10.767  10.507  66.340  1.00  0.00    -0.166 C  
BRANCH   8   9
HETATM    9  C   UNL     1     -11.138  11.319  67.577  1.00  0.00    -0.346 C  
BRANCH   9  10
HETATM   10  C   UNL     1      -9.910  11.876  68.298  1.00  0.00    -0.199 C  
BRANCH  10  11
HETATM   11  C   UNL     1      -9.790  13.405  68.286  1.00  0.00    -0.235 C  
BRANCH  11  12
HETATM   12  C   UNL     1      -9.334  13.959  66.931  1.00  0.00    -0.258 C  
BRANCH  12  13
HETATM   13  N   UNL     1     -10.131  15.194  66.468  1.00  0.00    -0.260 N  
HETATM   14  C   UNL     1     -10.980  14.860  65.248  1.00  0.00    -0.380 C  
HETATM   15  C   UNL     1     -11.031  15.706  67.586  1.00  0.00    -0.315 C  
BRANCH  13  16
HETATM   16  C   UNL     1      -9.084  16.302  66.104  1.00  0.00    -0.341 C  
BRANCH  16  17
HETATM   17  C   UNL     1      -9.390  17.676  66.649  1.00  0.00    -0.289 A  
HETATM   18  C   UNL     1     -10.315  18.511  66.001  1.00  0.00    -0.423 A  
HETATM   19  C   UNL     1     -10.443  19.847  66.377  1.00  0.00    -0.589 A  
HETATM   20  C   UNL     1      -9.671  20.354  67.420  1.00  0.00    -0.597 A  
HETATM   21  C   UNL     1      -8.807  19.517  68.120  1.00  0.00    -0.378 A  
HETATM   22  C   UNL     1      -8.677  18.179  67.748  1.00  0.00    -0.259 A  
ENDBRANCH  16  17
ENDBRANCH  13  16
ENDBRANCH  12  13
ENDBRANCH  11  12
ENDBRANCH  10  11
ENDBRANCH   9  10
ENDBRANCH   8   9
ENDBRANCH   7   8
ENDBRANCH   6   7
ENDBRANCH   5   6
ENDBRANCH   4   5
ENDBRANCH   3   4
ENDBRANCH   2   3
TORSDOF 13
ENDMDL
MODEL      127
REMARK 921   NORMALIZED FREE ENERGY PREDICTED BY IDOCK:   -3.94 KCAL/MOL
REMARK 922        TOTAL FREE ENERGY PREDICTED BY IDOCK:   -8.41 KCAL/MOL
REMARK 923 INTER-LIGAND FREE ENERGY PREDICTED BY IDOCK:   -7.83 KCAL/MOL
REMARK 924 INTRA-LIGAND FREE ENERGY PREDICTED BY IDOCK:   -0.58 KCAL/MOL
REMARK 927      BINDING AFFINITY PREDICTED BY RF-SCORE:    0.00 PKD
ROOT
HETATM    1  C   UNL     1      -9.599   6.271  74.556  1.00  0.00    -0.277 C  
HETATM    2  C   UNL     1      -9.579   7.486  73.644  1.00  0.00    -0.347 C  
ENDROOT
BRANCH   2   3
HETATM    3  C   UNL     1     -10.892   7.613  72.874  1.00  0.00    -0.446 C  
BRANCH   3   4
HETATM    4  C   UNL     1     -10.690   7.319  71.390  1.00  0.00    -0.247 C  
BRANCH   4   5
HETATM    5  C   UNL     1     -11.175   8.491  70.541  1.00  0.00    -0.262 C  
BRANCH   5   6
HETATM    6  C   UNL     1     -11.732   9.600  71.422  1.00  0.00    -0.478 C  
BRANCH   6   7
HETATM    7  C   UNL     1     -12.393  10.690  70.584  1.00  0.00    -0.462 C  
BRANCH   7   8
HETATM    8  C   UNL     1     -11.776  10.718  69.192  1.00  0.00    -0.368 C  
BRANCH   8   9
HETATM    9  C   UNL     1     -11.783  12.122  68.598  1.00  0.00    -0.382 C  
BRANCH   9  10
HETATM   10  C   UNL     1     -11.566  12.117  67.084  1.00  0.00    -0.405 C  
BRANCH  10  11
HETATM   11  C   UNL     1     -11.680  13.488  66.408  1.00  0.00    -0.405 C  
BRANCH  11  12
HETATM   12  C   UNL     1     -10.316  14.106  66.074  1.00  0.00    -0.309 C  
BRANCH  12  13
HETATM   13  N   UNL     1      -9.873  15.199  67.067  1.00  0.00    -0.228 N  
HETATM   14  C   UNL     1     -11.078  15.793  67.786  1.00  0.00    -0.313 C  
HETATM   15  C   UNL     1      -8.900  14.632  68.094  1.00  0.00    -0.173 C  
BRANCH  13  16
HETATM   16  C   UNL     1      -9.149  16.308  66.230  1.00  0.00    -0.331 C  
BRANCH  16  17
HETATM   17  C   UNL     1      -9.253  17.704  66.793  1.00  0.00    -0.281 A  
HETATM   18  C   UNL     1     -10.112  18.648  66.205  1.00  0.00    -0.399 A  
HETATM   19  C   UNL     1     -10.055  19.987  66.587  1.00  0.00    -0.607 A  
HETATM   20  C   UNL     1      -9.163  20.392  67.578  1.00  0.00    -0.475 A  
HETATM   21  C   UNL     1      -8.362  19.453  68.222  1.00  0.00    -0.379 A  
HETATM   22  C   UNL     1      -8.416  18.111  67.843  1.00  0.00    -0.259 A  
ENDBRANCH  16  17
ENDBRANCH  13  16
ENDBRANCH  12  13
ENDBRANCH  11  12
ENDBRANCH  10  11
ENDBRANCH   9  10
ENDBRANCH   8   9
ENDBRANCH   7   8
ENDBRANCH   6   7
ENDBRANCH   5   6
ENDBRANCH   4   5
ENDBRANCH   3   4
ENDBRANCH   2   3
TORSDOF 13
ENDMDL
MODEL      128
REMARK 921   NORMALIZED FREE ENERGY PREDICTED BY IDOCK:   -3.93 KCAL/MOL
REMARK 922        TOTAL FREE ENERGY PREDICTED BY IDOCK:   -8.40 KCAL/MOL
REMARK 923 INTER-LIGAND FREE ENERGY PREDICTED BY IDOCK:   -7.88 KCAL/MOL
REMARK 924 INTRA-LIGAND FREE ENERGY PREDICTED BY IDOCK:   -0.52 KCAL/MOL
REMARK 927      BINDING AFFINITY PREDICTED BY RF-SCORE:    0.00 PKD
ROOT
HETATM    1  C   UNL     1      -9.964   4.651  70.365  1.00  0.00    -0.300 C  
HETATM    2  C   UNL     1     -10.533   6.014  70.725  1.00  0.00    -0.298 C  
ENDROOT
BRANCH   2   3
HETATM    3  C   UNL     1     -11.007   6.756  69.479  1.00  0.00    -0.325 C  
BRANCH   3   4
HETATM    4  C   UNL     1     -10.909   5.870  68.240  1.00  0.00    -0.325 C  
BRANCH   4   5
HETATM    5  C   UNL     1     -10.877   6.720  66.973  1.00  0.00    -0.453 C  
BRANCH   5   6
HETATM    6  C   UNL     1      -9.815   7.806  67.081  1.00  0.00    -0.270 C  
BRANCH   6   7
HETATM    7  C   UNL     1     -10.276   9.096  66.411  1.00  0.00    -0.300 C  
BRANCH   7   8
HETATM    8  C   UNL     1     -10.690  10.109  67.471  1.00  0.00    -0.347 C  
BRANCH   8   9
HETATM    9  C   UNL     1     -11.104  11.440  66.849  1.00  0.00    -0.356 C  
BRANCH   9  10
HETATM   10  C   UNL     1     -11.784  12.368  67.857  1.00  0.00    -0.421 C  
BRANCH  10  11
HETATM   11  C   UNL     1     -11.043  13.683  68.128  1.00  0.00    -0.281 C  
BRANCH  11  12
HETATM   12  C   UNL     1      -9.894  13.937  67.144  1.00  0.00    -0.241 C  
BRANCH  12  13
HETATM   13  N   UNL     1      -9.941  15.330  66.486  1.00  0.00    -0.254 N  
HETATM   14  C   UNL     1      -8.551  15.955  66.453  1.00  0.00    -0.328 C  
HETATM   15  C   UNL     1     -10.488  15.239  65.067  1.00  0.00    -0.382 C  
BRANCH  13  16
HETATM   16  C   UNL     1     -10.904  16.212  67.352  1.00  0.00    -0.265 C  
BRANCH  16  17
HETATM   17  C   UNL     1     -10.558  17.679  67.401  1.00  0.00    -0.320 A  
HETATM   18  C   UNL     1     -10.639  18.471  66.243  1.00  0.00    -0.370 A  
HETATM   19  C   UNL     1     -10.123  19.766  66.237  1.00  0.00    -0.601 A  
HETATM   20  C   UNL     1      -9.549  20.293  67.392  1.00  0.00    -0.569 A  
HETATM   21  C   UNL     1      -9.532  19.546  68.566  1.00  0.00    -0.455 A  
HETATM   22  C   UNL     1     -10.048  18.250  68.577  1.00  0.00    -0.419 A  
ENDBRANCH  16  17
ENDBRANCH  13  16
ENDBRANCH  12  13
ENDBRANCH  11  12
ENDBRANCH  10  11
ENDBRANCH   9  10
ENDBRANCH   8   9
ENDBRANCH   7   8
ENDBRANCH   6   7
ENDBRANCH   5   6
ENDBRANCH   4   5
ENDBRANCH   3   4
ENDBRANCH   2   3
TORSDOF 13
ENDMDL
MODEL      129
REMARK 921   NORMALIZED FREE ENERGY PREDICTED BY IDOCK:   -3.92 KCAL/MOL
REMARK 922        TOTAL FREE ENERGY PREDICTED BY IDOCK:   -8.38 KCAL/MOL
REMARK 923 INTER-LIGAND FREE ENERGY PREDICTED BY IDOCK:   -6.98 KCAL/MOL
REMARK 924 INTRA-LIGAND FREE ENERGY PREDICTED BY IDOCK:   -1.40 KCAL/MOL
REMARK 927      BINDING AFFINITY PREDICTED BY RF-SCORE:    0.00 PKD
ROOT
HETATM    1  C   UNL     1     -13.464  13.010  72.004  1.00  0.00    -0.584 C  
HETATM    2  C   UNL     1     -12.727  14.314  71.747  1.00  0.00    -0.428 C  
ENDROOT
BRANCH   2   3
HETATM    3  C   UNL     1     -12.519  14.541  70.252  1.00  0.00    -0.405 C  
BRANCH   3   4
HETATM    4  C   UNL     1     -11.619  13.465  69.653  1.00  0.00    -0.334 C  
BRANCH   4   5
HETATM    5  C   UNL     1     -11.885  13.313  68.158  1.00  0.00    -0.388 C  
BRANCH   5   6
HETATM    6  C   UNL     1     -11.852  14.669  67.465  1.00  0.00    -0.375 C  
BRANCH   6   7
HETATM    7  C   UNL     1     -11.631  14.516  65.964  1.00  0.00    -0.356 C  
BRANCH   7   8
HETATM    8  C   UNL     1     -12.402  13.308  65.448  1.00  0.00    -0.528 C  
BRANCH   8   9
HETATM    9  C   UNL     1     -11.700  12.654  64.262  1.00  0.00    -0.446 C  
BRANCH   9  10
HETATM   10  C   UNL     1     -10.358  12.032  64.649  1.00  0.00    -0.325 C  
BRANCH  10  11
HETATM   11  C   UNL     1     -10.431  10.966  65.748  1.00  0.00    -0.275 C  
BRANCH  11  12
HETATM   12  C   UNL     1      -9.063  10.647  66.365  1.00  0.00    -0.164 C  
BRANCH  12  13
HETATM   13  N   UNL     1      -9.151   9.923  67.723  1.00  0.00    -0.131 N  
HETATM   14  C   UNL     1      -8.195   8.737  67.762  1.00  0.00    -0.111 C  
HETATM   15  C   UNL     1      -8.820  10.877  68.865  1.00  0.00    -0.138 C  
BRANCH  13  16
HETATM   16  C   UNL     1     -10.628   9.426  67.880  1.00  0.00    -0.237 C  
BRANCH  16  17
HETATM   17  C   UNL     1     -11.034   9.061  69.287  1.00  0.00    -0.052 A  
HETATM   18  C   UNL     1     -11.737   9.977  70.087  1.00  0.00    -0.285 A  
HETATM   19  C   UNL     1     -11.928   9.725  71.445  1.00  0.00    -0.493 A  
HETATM   20  C   UNL     1     -11.445   8.546  72.010  1.00  0.00    -0.431 A  
HETATM   21  C   UNL     1     -10.814   7.597  71.210  1.00  0.00    -0.252 A  
HETATM   22  C   UNL     1     -10.623   7.844  69.851  1.00  0.00    -0.242 A  
ENDBRANCH  16  17
ENDBRANCH  13  16
ENDBRANCH  12  13
ENDBRANCH  11  12
ENDBRANCH  10  11
ENDBRANCH   9  10
ENDBRANCH   8   9
ENDBRANCH   7   8
ENDBRANCH   6   7
ENDBRANCH   5   6
ENDBRANCH   4   5
ENDBRANCH   3   4
ENDBRANCH   2   3
TORSDOF 13
ENDMDL
MODEL      130
REMARK 921   NORMALIZED FREE ENERGY PREDICTED BY IDOCK:   -3.92 KCAL/MOL
REMARK 922        TOTAL FREE ENERGY PREDICTED BY IDOCK:   -8.37 KCAL/MOL
REMARK 923 INTER-LIGAND FREE ENERGY PREDICTED BY IDOCK:   -7.88 KCAL/MOL
REMARK 924 INTRA-LIGAND FREE ENERGY PREDICTED BY IDOCK:   -0.49 KCAL/MOL
REMARK 927      BINDING AFFINITY PREDICTED BY RF-SCORE:    0.00 PKD
ROOT
HETATM    1  C   UNL     1     -10.157   4.139  72.742  1.00  0.00    -0.218 C  
HETATM    2  C   UNL     1     -11.192   5.208  73.048  1.00  0.00    -0.390 C  
ENDROOT
BRANCH   2   3
HETATM    3  C   UNL     1     -10.525   6.556  73.312  1.00  0.00    -0.280 C  
BRANCH   3   4
HETATM    4  C   UNL     1     -11.383   7.706  72.794  1.00  0.00    -0.419 C  
BRANCH   4   5
HETATM    5  C   UNL     1     -12.282   7.234  71.655  1.00  0.00    -0.377 C  
BRANCH   5   6
HETATM    6  C   UNL     1     -13.383   8.250  71.382  1.00  0.00    -0.240 C  
BRANCH   6   7
HETATM    7  C   UNL     1     -13.414   9.331  72.458  1.00  0.00    -0.471 C  
BRANCH   7   8
HETATM    8  C   UNL     1     -13.281  10.705  71.815  1.00  0.00    -0.526 C  
BRANCH   8   9
HETATM    9  C   UNL     1     -12.115  10.759  70.832  1.00  0.00    -0.475 C  
BRANCH   9  10
HETATM   10  C   UNL     1     -12.011  12.111  70.125  1.00  0.00    -0.394 C  
BRANCH  10  11
HETATM   11  C   UNL     1     -11.642  12.037  68.638  1.00  0.00    -0.372 C  
BRANCH  11  12
HETATM   12  C   UNL     1     -11.864  13.362  67.899  1.00  0.00    -0.357 C  
BRANCH  12  13
HETATM   13  N   UNL     1     -11.228  13.402  66.496  1.00  0.00    -0.301 N  
HETATM   14  C   UNL     1     -10.807  12.005  66.056  1.00  0.00    -0.289 C  
HETATM   15  C   UNL     1     -12.202  13.981  65.477  1.00  0.00    -0.439 C  
BRANCH  13  16
HETATM   16  C   UNL     1      -9.971  14.334  66.592  1.00  0.00    -0.275 C  
BRANCH  16  17
HETATM   17  C   UNL     1     -10.272  15.789  66.854  1.00  0.00    -0.280 A  
HETATM   18  C   UNL     1     -10.303  16.713  65.796  1.00  0.00    -0.338 A  
HETATM   19  C   UNL     1     -10.372  18.081  66.057  1.00  0.00    -0.333 A  
HETATM   20  C   UNL     1     -10.439  18.537  67.371  1.00  0.00    -0.455 A  
HETATM   21  C   UNL     1     -10.487  17.628  68.424  1.00  0.00    -0.360 A  
HETATM   22  C   UNL     1     -10.420  16.258  68.168  1.00  0.00    -0.289 A  
ENDBRANCH  16  17
ENDBRANCH  13  16
ENDBRANCH  12  13
ENDBRANCH  11  12
ENDBRANCH  10  11
ENDBRANCH   9  10
ENDBRANCH   8   9
ENDBRANCH   7   8
ENDBRANCH   6   7
ENDBRANCH   5   6
ENDBRANCH   4   5
ENDBRANCH   3   4
ENDBRANCH   2   3
TORSDOF 13
ENDMDL
MODEL      131
REMARK 921   NORMALIZED FREE ENERGY PREDICTED BY IDOCK:   -3.91 KCAL/MOL
REMARK 922        TOTAL FREE ENERGY PREDICTED BY IDOCK:   -8.36 KCAL/MOL
REMARK 923 INTER-LIGAND FREE ENERGY PREDICTED BY IDOCK:   -6.73 KCAL/MOL
REMARK 924 INTRA-LIGAND FREE ENERGY PREDICTED BY IDOCK:   -1.62 KCAL/MOL
REMARK 927      BINDING AFFINITY PREDICTED BY RF-SCORE:    0.00 PKD
ROOT
HETATM    1  C   UNL     1      -8.540  14.979  66.647  1.00  0.00    -0.246 C  
HETATM    2  C   UNL     1      -9.441  15.949  65.902  1.00  0.00    -0.372 C  
ENDROOT
BRANCH   2   3
HETATM    3  C   UNL     1     -10.499  15.203  65.093  1.00  0.00    -0.437 C  
BRANCH   3   4
HETATM    4  C   UNL     1     -11.496  14.500  66.008  1.00  0.00    -0.348 C  
BRANCH   4   5
HETATM    5  C   UNL     1     -12.719  14.041  65.219  1.00  0.00    -0.468 C  
BRANCH   5   6
HETATM    6  C   UNL     1     -12.591  12.573  64.834  1.00  0.00    -0.469 C  
BRANCH   6   7
HETATM    7  C   UNL     1     -12.082  12.421  63.404  1.00  0.00    -0.620 C  
BRANCH   7   8
HETATM    8  C   UNL     1     -10.626  11.974  63.417  1.00  0.00    -0.478 C  
BRANCH   8   9
HETATM    9  C   UNL     1     -10.369  10.916  64.485  1.00  0.00    -0.417 C  
BRANCH   9  10
HETATM   10  C   UNL     1      -9.252  11.320  65.448  1.00  0.00    -0.202 C  
BRANCH  10  11
HETATM   11  C   UNL     1      -9.685  11.482  66.910  1.00  0.00    -0.205 C  
BRANCH  11  12
HETATM   12  C   UNL     1      -8.941  10.538  67.863  1.00  0.00    -0.137 C  
BRANCH  12  13
HETATM   13  N   UNL     1      -9.870   9.579  68.633  1.00  0.00    -0.158 N  
HETATM   14  C   UNL     1      -9.056   8.550  69.409  1.00  0.00    -0.150 C  
HETATM   15  C   UNL     1     -10.762  10.350  69.599  1.00  0.00    -0.265 C  
BRANCH  13  16
HETATM   16  C   UNL     1     -10.767   8.859  67.569  1.00  0.00    -0.152 C  
BRANCH  16  17
HETATM   17  C   UNL     1     -10.228   7.545  67.061  1.00  0.00    -0.368 A  
HETATM   18  C   UNL     1      -9.070   7.507  66.267  1.00  0.00    -0.198 A  
HETATM   19  C   UNL     1      -8.693   6.327  65.628  1.00  0.00    -0.122 A  
HETATM   20  C   UNL     1      -9.450   5.170  65.796  1.00  0.00    -0.153 A  
HETATM   21  C   UNL     1     -10.556   5.176  66.641  1.00  0.00    -0.295 A  
HETATM   22  C   UNL     1     -10.936   6.354  67.285  1.00  0.00    -0.474 A  
ENDBRANCH  16  17
ENDBRANCH  13  16
ENDBRANCH  12  13
ENDBRANCH  11  12
ENDBRANCH  10  11
ENDBRANCH   9  10
ENDBRANCH   8   9
ENDBRANCH   7   8
ENDBRANCH   6   7
ENDBRANCH   5   6
ENDBRANCH   4   5
ENDBRANCH   3   4
ENDBRANCH   2   3
TORSDOF 13
ENDMDL
MODEL      132
REMARK 921   NORMALIZED FREE ENERGY PREDICTED BY IDOCK:   -3.91 KCAL/MOL
REMARK 922        TOTAL FREE ENERGY PREDICTED BY IDOCK:   -8.35 KCAL/MOL
REMARK 923 INTER-LIGAND FREE ENERGY PREDICTED BY IDOCK:   -7.14 KCAL/MOL
REMARK 924 INTRA-LIGAND FREE ENERGY PREDICTED BY IDOCK:   -1.21 KCAL/MOL
REMARK 927      BINDING AFFINITY PREDICTED BY RF-SCORE:    0.00 PKD
ROOT
HETATM    1  C   UNL     1     -10.374  18.599  65.922  1.00  0.00    -0.358 C  
HETATM    2  C   UNL     1     -10.838  19.364  67.150  1.00  0.00    -0.561 C  
ENDROOT
BRANCH   2   3
HETATM    3  C   UNL     1      -9.793  20.389  67.584  1.00  0.00    -0.538 C  
BRANCH   3   4
HETATM    4  C   UNL     1      -8.426  20.065  66.990  1.00  0.00    -0.390 C  
BRANCH   4   5
HETATM    5  C   UNL     1      -7.378  19.943  68.092  1.00  0.00    -0.338 C  
BRANCH   5   6
HETATM    6  C   UNL     1      -6.868  18.511  68.194  1.00  0.00    -0.238 C  
BRANCH   6   7
HETATM    7  C   UNL     1      -7.859  17.626  68.943  1.00  0.00    -0.186 C  
BRANCH   7   8
HETATM    8  C   UNL     1      -7.508  16.159  68.728  1.00  0.00    -0.189 C  
BRANCH   8   9
HETATM    9  C   UNL     1      -7.441  15.805  67.245  1.00  0.00    -0.252 C  
BRANCH   9  10
HETATM   10  C   UNL     1      -8.589  14.892  66.811  1.00  0.00    -0.256 C  
BRANCH  10  11
HETATM   11  C   UNL     1      -8.320  13.392  66.979  1.00  0.00    -0.089 C  
BRANCH  11  12
HETATM   12  C   UNL     1      -9.261  12.725  67.991  1.00  0.00    -0.208 C  
BRANCH  12  13
HETATM   13  N   UNL     1      -9.442  11.211  67.763  1.00  0.00    -0.165 N  
HETATM   14  C   UNL     1      -8.378  10.680  66.810  1.00  0.00    -0.132 C  
HETATM   15  C   UNL     1      -9.362  10.453  69.083  1.00  0.00    -0.199 C  
BRANCH  13  16
HETATM   16  C   UNL     1     -10.866  11.011  67.141  1.00  0.00    -0.282 C  
BRANCH  16  17
HETATM   17  C   UNL     1     -11.182  11.901  65.964  1.00  0.00    -0.377 A  
HETATM   18  C   UNL     1     -12.056  12.991  66.108  1.00  0.00    -0.473 A  
HETATM   19  C   UNL     1     -12.510  13.683  64.986  1.00  0.00    -0.454 A  
HETATM   20  C   UNL     1     -12.075  13.313  63.716  1.00  0.00    -0.546 A  
HETATM   21  C   UNL     1     -11.149  12.285  63.567  1.00  0.00    -0.533 A  
HETATM   22  C   UNL     1     -10.691  11.591  64.687  1.00  0.00    -0.379 A  
ENDBRANCH  16  17
ENDBRANCH  13  16
ENDBRANCH  12  13
ENDBRANCH  11  12
ENDBRANCH  10  11
ENDBRANCH   9  10
ENDBRANCH   8   9
ENDBRANCH   7   8
ENDBRANCH   6   7
ENDBRANCH   5   6
ENDBRANCH   4   5
ENDBRANCH   3   4
ENDBRANCH   2   3
TORSDOF 13
ENDMDL
MODEL      133
REMARK 921   NORMALIZED FREE ENERGY PREDICTED BY IDOCK:   -3.91 KCAL/MOL
REMARK 922        TOTAL FREE ENERGY PREDICTED BY IDOCK:   -8.35 KCAL/MOL
REMARK 923 INTER-LIGAND FREE ENERGY PREDICTED BY IDOCK:   -6.50 KCAL/MOL
REMARK 924 INTRA-LIGAND FREE ENERGY PREDICTED BY IDOCK:   -1.84 KCAL/MOL
REMARK 927      BINDING AFFINITY PREDICTED BY RF-SCORE:    0.00 PKD
ROOT
HETATM    1  C   UNL     1     -11.426   7.362  70.757  1.00  0.00    -0.313 C  
HETATM    2  C   UNL     1     -11.292   5.968  70.167  1.00  0.00    -0.351 C  
ENDROOT
BRANCH   2   3
HETATM    3  C   UNL     1     -10.064   5.871  69.265  1.00  0.00    -0.251 C  
BRANCH   3   4
HETATM    4  C   UNL     1     -10.294   6.597  67.943  1.00  0.00    -0.227 C  
BRANCH   4   5
HETATM    5  C   UNL     1      -9.146   6.324  66.975  1.00  0.00    -0.125 C  
BRANCH   5   6
HETATM    6  C   UNL     1      -8.892   7.535  66.087  1.00  0.00    -0.185 C  
BRANCH   6   7
HETATM    7  C   UNL     1      -8.662   8.791  66.921  1.00  0.00    -0.136 C  
BRANCH   7   8
HETATM    8  C   UNL     1      -9.424   9.962  66.315  1.00  0.00    -0.245 C  
BRANCH   8   9
HETATM    9  C   UNL     1     -10.784  10.157  66.978  1.00  0.00    -0.264 C  
BRANCH   9  10
HETATM   10  C   UNL     1     -10.666  10.471  68.470  1.00  0.00    -0.259 C  
BRANCH  10  11
HETATM   11  C   UNL     1     -11.107  11.884  68.871  1.00  0.00    -0.299 C  
BRANCH  11  12
HETATM   12  C   UNL     1     -10.203  12.980  68.293  1.00  0.00    -0.246 C  
BRANCH  12  13
HETATM   13  N   UNL     1     -10.781  14.401  68.443  1.00  0.00    -0.239 N  
HETATM   14  C   UNL     1     -12.071  14.374  69.254  1.00  0.00    -0.299 C  
HETATM   15  C   UNL     1      -9.776  15.323  69.121  1.00  0.00    -0.243 C  
BRANCH  13  16
HETATM   16  C   UNL     1     -11.070  14.931  66.997  1.00  0.00    -0.338 C  
BRANCH  16  17
HETATM   17  C   UNL     1     -11.242  13.862  65.946  1.00  0.00    -0.297 A  
HETATM   18  C   UNL     1     -10.186  13.535  65.080  1.00  0.00    -0.345 A  
HETATM   19  C   UNL     1     -10.406  12.705  63.981  1.00  0.00    -0.414 A  
HETATM   20  C   UNL     1     -11.673  12.171  63.754  1.00  0.00    -0.576 A  
HETATM   21  C   UNL     1     -12.709  12.427  64.648  1.00  0.00    -0.372 A  
HETATM   22  C   UNL     1     -12.492  13.255  65.749  1.00  0.00    -0.480 A  
ENDBRANCH  16  17
ENDBRANCH  13  16
ENDBRANCH  12  13
ENDBRANCH  11  12
ENDBRANCH  10  11
ENDBRANCH   9  10
ENDBRANCH   8   9
ENDBRANCH   7   8
ENDBRANCH   6   7
ENDBRANCH   5   6
ENDBRANCH   4   5
ENDBRANCH   3   4
ENDBRANCH   2   3
TORSDOF 13
ENDMDL
MODEL      134
REMARK 921   NORMALIZED FREE ENERGY PREDICTED BY IDOCK:   -3.90 KCAL/MOL
REMARK 922        TOTAL FREE ENERGY PREDICTED BY IDOCK:   -8.34 KCAL/MOL
REMARK 923 INTER-LIGAND FREE ENERGY PREDICTED BY IDOCK:   -7.45 KCAL/MOL
REMARK 924 INTRA-LIGAND FREE ENERGY PREDICTED BY IDOCK:   -0.89 KCAL/MOL
REMARK 927      BINDING AFFINITY PREDICTED BY RF-SCORE:    0.00 PKD
ROOT
HETATM    1  C   UNL     1     -10.447  19.911  66.422  1.00  0.00    -0.589 C  
HETATM    2  C   UNL     1      -9.501  18.722  66.444  1.00  0.00    -0.336 C  
ENDROOT
BRANCH   2   3
HETATM    3  C   UNL     1     -10.262  17.414  66.242  1.00  0.00    -0.344 C  
BRANCH   3   4
HETATM    4  C   UNL     1      -9.302  16.242  66.061  1.00  0.00    -0.361 C  
BRANCH   4   5
HETATM    5  C   UNL     1      -9.713  15.070  66.948  1.00  0.00    -0.247 C  
BRANCH   5   6
HETATM    6  C   UNL     1     -10.954  15.418  67.759  1.00  0.00    -0.311 C  
BRANCH   6   7
HETATM    7  C   UNL     1     -11.832  14.190  67.977  1.00  0.00    -0.400 C  
BRANCH   7   8
HETATM    8  C   UNL     1     -11.802  13.306  66.736  1.00  0.00    -0.448 C  
BRANCH   8   9
HETATM    9  C   UNL     1     -11.466  11.858  67.082  1.00  0.00    -0.386 C  
BRANCH   9  10
HETATM   10  C   UNL     1     -10.502  11.227  66.076  1.00  0.00    -0.310 C  
BRANCH  10  11
HETATM   11  C   UNL     1      -9.528  10.203  66.669  1.00  0.00    -0.211 C  
BRANCH  11  12
HETATM   12  C   UNL     1      -9.282  10.408  68.169  1.00  0.00    -0.145 C  
BRANCH  12  13
HETATM   13  N   UNL     1      -9.278   9.097  68.980  1.00  0.00    -0.142 N  
HETATM   14  C   UNL     1     -10.476   8.231  68.608  1.00  0.00    -0.168 C  
HETATM   15  C   UNL     1      -7.993   8.315  68.736  1.00  0.00    -0.114 C  
BRANCH  13  16
HETATM   16  C   UNL     1      -9.357   9.497  70.493  1.00  0.00    -0.237 C  
BRANCH  16  17
HETATM   17  C   UNL     1     -10.750   9.552  71.069  1.00  0.00    -0.411 A  
HETATM   18  C   UNL     1     -11.193   8.560  71.960  1.00  0.00    -0.418 A  
HETATM   19  C   UNL     1     -12.536   8.492  72.327  1.00  0.00    -0.438 A  
HETATM   20  C   UNL     1     -13.442   9.428  71.832  1.00  0.00    -0.500 A  
HETATM   21  C   UNL     1     -13.000  10.461  71.010  1.00  0.00    -0.490 A  
HETATM   22  C   UNL     1     -11.657  10.533  70.642  1.00  0.00    -0.445 A  
ENDBRANCH  16  17
ENDBRANCH  13  16
ENDBRANCH  12  13
ENDBRANCH  11  12
ENDBRANCH  10  11
ENDBRANCH   9  10
ENDBRANCH   8   9
ENDBRANCH   7   8
ENDBRANCH   6   7
ENDBRANCH   5   6
ENDBRANCH   4   5
ENDBRANCH   3   4
ENDBRANCH   2   3
TORSDOF 13
ENDMDL
MODEL      135
REMARK 921   NORMALIZED FREE ENERGY PREDICTED BY IDOCK:   -3.90 KCAL/MOL
REMARK 922        TOTAL FREE ENERGY PREDICTED BY IDOCK:   -8.34 KCAL/MOL
REMARK 923 INTER-LIGAND FREE ENERGY PREDICTED BY IDOCK:   -6.97 KCAL/MOL
REMARK 924 INTRA-LIGAND FREE ENERGY PREDICTED BY IDOCK:   -1.37 KCAL/MOL
REMARK 927      BINDING AFFINITY PREDICTED BY RF-SCORE:    0.00 PKD
ROOT
HETATM    1  C   UNL     1      -5.852  15.734  69.137  1.00  0.00    -0.109 C  
HETATM    2  C   UNL     1      -5.611  16.199  67.710  1.00  0.00    -0.159 C  
ENDROOT
BRANCH   2   3
HETATM    3  C   UNL     1      -5.394  17.709  67.656  1.00  0.00    -0.141 C  
BRANCH   3   4
HETATM    4  C   UNL     1      -5.748  18.364  68.988  1.00  0.00    -0.211 C  
BRANCH   4   5
HETATM    5  C   UNL     1      -6.914  19.333  68.817  1.00  0.00    -0.365 C  
BRANCH   5   6
HETATM    6  C   UNL     1      -6.793  20.093  67.503  1.00  0.00    -0.281 C  
BRANCH   6   7
HETATM    7  C   UNL     1      -8.082  20.842  67.179  1.00  0.00    -0.244 C  
BRANCH   7   8
HETATM    8  C   UNL     1      -9.285  19.964  67.499  1.00  0.00    -0.448 C  
BRANCH   8   9
HETATM    9  C   UNL     1      -9.858  19.310  66.245  1.00  0.00    -0.456 C  
BRANCH   9  10
HETATM   10  C   UNL     1     -10.346  17.884  66.502  1.00  0.00    -0.362 C  
BRANCH  10  11
HETATM   11  C   UNL     1      -9.310  16.786  66.233  1.00  0.00    -0.310 C  
BRANCH  11  12
HETATM   12  C   UNL     1      -9.927  15.512  65.642  1.00  0.00    -0.360 C  
BRANCH  12  13
HETATM   13  N   UNL     1     -10.166  14.401  66.682  1.00  0.00    -0.272 N  
HETATM   14  C   UNL     1     -10.020  13.025  66.043  1.00  0.00    -0.276 C  
HETATM   15  C   UNL     1      -9.184  14.526  67.841  1.00  0.00    -0.196 C  
BRANCH  13  16
HETATM   16  C   UNL     1     -11.625  14.589  67.223  1.00  0.00    -0.385 C  
BRANCH  16  17
HETATM   17  C   UNL     1     -11.771  14.482  68.721  1.00  0.00    -0.362 A  
HETATM   18  C   UNL     1     -11.954  13.231  69.333  1.00  0.00    -0.356 A  
HETATM   19  C   UNL     1     -12.297  13.150  70.682  1.00  0.00    -0.405 A  
HETATM   20  C   UNL     1     -12.432  14.313  71.438  1.00  0.00    -0.437 A  
HETATM   21  C   UNL     1     -12.178  15.554  70.861  1.00  0.00    -0.450 A  
HETATM   22  C   UNL     1     -11.833  15.640  69.512  1.00  0.00    -0.387 A  
ENDBRANCH  16  17
ENDBRANCH  13  16
ENDBRANCH  12  13
ENDBRANCH  11  12
ENDBRANCH  10  11
ENDBRANCH   9  10
ENDBRANCH   8   9
ENDBRANCH   7   8
ENDBRANCH   6   7
ENDBRANCH   5   6
ENDBRANCH   4   5
ENDBRANCH   3   4
ENDBRANCH   2   3
TORSDOF 13
ENDMDL
MODEL      136
REMARK 921   NORMALIZED FREE ENERGY PREDICTED BY IDOCK:   -3.90 KCAL/MOL
REMARK 922        TOTAL FREE ENERGY PREDICTED BY IDOCK:   -8.33 KCAL/MOL
REMARK 923 INTER-LIGAND FREE ENERGY PREDICTED BY IDOCK:   -7.26 KCAL/MOL
REMARK 924 INTRA-LIGAND FREE ENERGY PREDICTED BY IDOCK:   -1.07 KCAL/MOL
REMARK 927      BINDING AFFINITY PREDICTED BY RF-SCORE:    0.00 PKD
ROOT
HETATM    1  C   UNL     1     -10.447  18.356  66.029  1.00  0.00    -0.400 C  
HETATM    2  C   UNL     1     -10.859  19.377  67.076  1.00  0.00    -0.540 C  
ENDROOT
BRANCH   2   3
HETATM    3  C   UNL     1      -9.732  20.370  67.345  1.00  0.00    -0.597 C  
BRANCH   3   4
HETATM    4  C   UNL     1      -8.509  20.060  66.487  1.00  0.00    -0.359 C  
BRANCH   4   5
HETATM    5  C   UNL     1      -7.270  19.889  67.361  1.00  0.00    -0.279 C  
BRANCH   5   6
HETATM    6  C   UNL     1      -6.773  18.450  67.314  1.00  0.00    -0.206 C  
BRANCH   6   7
HETATM    7  C   UNL     1      -7.482  17.588  68.354  1.00  0.00    -0.247 C  
BRANCH   7   8
HETATM    8  C   UNL     1      -7.185  16.117  68.097  1.00  0.00    -0.140 C  
BRANCH   8   9
HETATM    9  C   UNL     1      -7.895  15.606  66.847  1.00  0.00    -0.258 C  
BRANCH   9  10
HETATM   10  C   UNL     1      -9.238  14.947  67.168  1.00  0.00    -0.231 C  
BRANCH  10  11
HETATM   11  C   UNL     1      -9.289  13.433  66.930  1.00  0.00    -0.253 C  
BRANCH  11  12
HETATM   12  C   UNL     1      -9.244  12.621  68.231  1.00  0.00    -0.184 C  
BRANCH  12  13
HETATM   13  N   UNL     1      -9.908  11.235  68.118  1.00  0.00    -0.177 N  
HETATM   14  C   UNL     1      -9.593  10.596  66.771  1.00  0.00    -0.169 C  
HETATM   15  C   UNL     1      -9.433  10.316  69.237  1.00  0.00    -0.215 C  
BRANCH  13  16
HETATM   16  C   UNL     1     -11.453  11.458  68.257  1.00  0.00    -0.299 C  
BRANCH  16  17
HETATM   17  C   UNL     1     -11.908  11.969  69.602  1.00  0.00    -0.401 A  
HETATM   18  C   UNL     1     -12.353  11.077  70.591  1.00  0.00    -0.480 A  
HETATM   19  C   UNL     1     -12.966  11.556  71.748  1.00  0.00    -0.500 A  
HETATM   20  C   UNL     1     -13.114  12.928  71.941  1.00  0.00    -0.474 A  
HETATM   21  C   UNL     1     -12.609  13.823  71.003  1.00  0.00    -0.446 A  
HETATM   22  C   UNL     1     -11.993  13.348  69.845  1.00  0.00    -0.408 A  
ENDBRANCH  16  17
ENDBRANCH  13  16
ENDBRANCH  12  13
ENDBRANCH  11  12
ENDBRANCH  10  11
ENDBRANCH   9  10
ENDBRANCH   8   9
ENDBRANCH   7   8
ENDBRANCH   6   7
ENDBRANCH   5   6
ENDBRANCH   4   5
ENDBRANCH   3   4
ENDBRANCH   2   3
TORSDOF 13
ENDMDL
MODEL      137
REMARK 921   NORMALIZED FREE ENERGY PREDICTED BY IDOCK:   -3.89 KCAL/MOL
REMARK 922        TOTAL FREE ENERGY PREDICTED BY IDOCK:   -8.33 KCAL/MOL
REMARK 923 INTER-LIGAND FREE ENERGY PREDICTED BY IDOCK:   -7.02 KCAL/MOL
REMARK 924 INTRA-LIGAND FREE ENERGY PREDICTED BY IDOCK:   -1.30 KCAL/MOL
REMARK 927      BINDING AFFINITY PREDICTED BY RF-SCORE:    0.00 PKD
ROOT
HETATM    1  C   UNL     1     -13.421  14.311  72.593  1.00  0.00    -0.623 C  
HETATM    2  C   UNL     1     -12.821  13.921  71.253  1.00  0.00    -0.435 C  
ENDROOT
BRANCH   2   3
HETATM    3  C   UNL     1     -12.090  15.100  70.616  1.00  0.00    -0.378 C  
BRANCH   3   4
HETATM    4  C   UNL     1     -11.224  14.644  69.446  1.00  0.00    -0.307 C  
BRANCH   4   5
HETATM    5  C   UNL     1     -12.000  13.687  68.545  1.00  0.00    -0.396 C  
BRANCH   5   6
HETATM    6  C   UNL     1     -12.074  14.227  67.123  1.00  0.00    -0.412 C  
BRANCH   6   7
HETATM    7  C   UNL     1     -11.803  13.127  66.102  1.00  0.00    -0.453 C  
BRANCH   7   8
HETATM    8  C   UNL     1     -11.491  11.820  66.819  1.00  0.00    -0.352 C  
BRANCH   8   9
HETATM    9  C   UNL     1     -10.149  11.242  66.381  1.00  0.00    -0.260 C  
BRANCH   9  10
HETATM   10  C   UNL     1      -8.980  11.798  67.196  1.00  0.00    -0.177 C  
BRANCH  10  11
HETATM   11  C   UNL     1      -8.049  10.739  67.798  1.00  0.00    -0.111 C  
BRANCH  11  12
HETATM   12  C   UNL     1      -8.225  10.578  69.313  1.00  0.00    -0.145 C  
BRANCH  12  13
HETATM   13  N   UNL     1      -8.759   9.194  69.730  1.00  0.00    -0.140 N  
HETATM   14  C   UNL     1      -7.887   8.086  69.153  1.00  0.00    -0.108 C  
HETATM   15  C   UNL     1      -8.800   9.066  71.248  1.00  0.00    -0.189 C  
BRANCH  13  16
HETATM   16  C   UNL     1     -10.216   9.078  69.165  1.00  0.00    -0.205 C  
BRANCH  16  17
HETATM   17  C   UNL     1     -11.308   9.091  70.206  1.00  0.00    -0.202 A  
HETATM   18  C   UNL     1     -11.941  10.294  70.561  1.00  0.00    -0.415 A  
HETATM   19  C   UNL     1     -12.795  10.343  71.661  1.00  0.00    -0.579 A  
HETATM   20  C   UNL     1     -13.049   9.189  72.398  1.00  0.00    -0.493 A  
HETATM   21  C   UNL     1     -12.488   7.975  72.010  1.00  0.00    -0.357 A  
HETATM   22  C   UNL     1     -11.634   7.922  70.909  1.00  0.00    -0.286 A  
ENDBRANCH  16  17
ENDBRANCH  13  16
ENDBRANCH  12  13
ENDBRANCH  11  12
ENDBRANCH  10  11
ENDBRANCH   9  10
ENDBRANCH   8   9
ENDBRANCH   7   8
ENDBRANCH   6   7
ENDBRANCH   5   6
ENDBRANCH   4   5
ENDBRANCH   3   4
ENDBRANCH   2   3
TORSDOF 13
ENDMDL
MODEL      138
REMARK 921   NORMALIZED FREE ENERGY PREDICTED BY IDOCK:   -3.88 KCAL/MOL
REMARK 922        TOTAL FREE ENERGY PREDICTED BY IDOCK:   -8.30 KCAL/MOL
REMARK 923 INTER-LIGAND FREE ENERGY PREDICTED BY IDOCK:   -5.97 KCAL/MOL
REMARK 924 INTRA-LIGAND FREE ENERGY PREDICTED BY IDOCK:   -2.33 KCAL/MOL
REMARK 927      BINDING AFFINITY PREDICTED BY RF-SCORE:    0.00 PKD
ROOT
HETATM    1  C   UNL     1     -11.850  12.584  63.207  1.00  0.00    -0.498 C  
HETATM    2  C   UNL     1     -10.807  11.488  63.348  1.00  0.00    -0.423 C  
ENDROOT
BRANCH   2   3
HETATM    3  C   UNL     1     -10.019  11.646  64.645  1.00  0.00    -0.291 C  
BRANCH   3   4
HETATM    4  C   UNL     1     -10.590  10.758  65.747  1.00  0.00    -0.204 C  
BRANCH   4   5
HETATM    5  C   UNL     1     -10.869  11.576  67.004  1.00  0.00    -0.320 C  
BRANCH   5   6
HETATM    6  C   UNL     1     -11.900  12.662  66.722  1.00  0.00    -0.440 C  
BRANCH   6   7
HETATM    7  C   UNL     1     -12.004  13.639  67.888  1.00  0.00    -0.382 C  
BRANCH   7   8
HETATM    8  C   UNL     1     -10.847  13.419  68.854  1.00  0.00    -0.253 C  
BRANCH   8   9
HETATM    9  C   UNL     1     -10.302  14.737  69.394  1.00  0.00    -0.171 C  
BRANCH   9  10
HETATM   10  C   UNL     1     -11.090  15.946  68.886  1.00  0.00    -0.316 C  
BRANCH  10  11
HETATM   11  C   UNL     1     -10.538  17.308  69.322  1.00  0.00    -0.156 C  
BRANCH  11  12
HETATM   12  C   UNL     1      -9.043  17.473  69.021  1.00  0.00    -0.050 C  
BRANCH  12  13
HETATM   13  N   UNL     1      -8.673  18.864  68.469  1.00  0.00    -0.339 N  
HETATM   14  C   UNL     1      -9.873  19.802  68.528  1.00  0.00    -0.404 C  
HETATM   15  C   UNL     1      -7.519  19.469  69.260  1.00  0.00    -0.241 C  
BRANCH  13  16
HETATM   16  C   UNL     1      -8.225  18.660  66.982  1.00  0.00    -0.253 C  
BRANCH  16  17
HETATM   17  C   UNL     1      -8.955  17.569  66.237  1.00  0.00    -0.220 A  
HETATM   18  C   UNL     1     -10.201  17.824  65.640  1.00  0.00    -0.020 A  
HETATM   19  C   UNL     1     -10.969  16.775  65.137  1.00  0.00    -0.109 A  
HETATM   20  C   UNL     1     -10.490  15.468  65.199  1.00  0.00    -0.431 A  
HETATM   21  C   UNL     1      -9.224  15.213  65.719  1.00  0.00    -0.083 A  
HETATM   22  C   UNL     1      -8.451  16.260  66.222  1.00  0.00    -0.369 A  
ENDBRANCH  16  17
ENDBRANCH  13  16
ENDBRANCH  12  13
ENDBRANCH  11  12
ENDBRANCH  10  11
ENDBRANCH   9  10
ENDBRANCH   8   9
ENDBRANCH   7   8
ENDBRANCH   6   7
ENDBRANCH   5   6
ENDBRANCH   4   5
ENDBRANCH   3   4
ENDBRANCH   2   3
TORSDOF 13
ENDMDL
MODEL      139
REMARK 921   NORMALIZED FREE ENERGY PREDICTED BY IDOCK:   -3.86 KCAL/MOL
REMARK 922        TOTAL FREE ENERGY PREDICTED BY IDOCK:   -8.27 KCAL/MOL
REMARK 923 INTER-LIGAND FREE ENERGY PREDICTED BY IDOCK:   -7.48 KCAL/MOL
REMARK 924 INTRA-LIGAND FREE ENERGY PREDICTED BY IDOCK:   -0.79 KCAL/MOL
REMARK 927      BINDING AFFINITY PREDICTED BY RF-SCORE:    0.00 PKD
ROOT
HETATM    1  C   UNL     1     -10.558   3.245  73.032  1.00  0.00    -0.241 C  
HETATM    2  C   UNL     1     -10.914   4.532  73.759  1.00  0.00    -0.361 C  
ENDROOT
BRANCH   2   3
HETATM    3  C   UNL     1     -10.191   5.726  73.142  1.00  0.00    -0.212 C  
BRANCH   3   4
HETATM    4  C   UNL     1     -11.160   6.869  72.857  1.00  0.00    -0.297 C  
BRANCH   4   5
HETATM    5  C   UNL     1     -12.106   6.499  71.718  1.00  0.00    -0.393 C  
BRANCH   5   6
HETATM    6  C   UNL     1     -12.978   7.687  71.335  1.00  0.00    -0.350 C  
BRANCH   6   7
HETATM    7  C   UNL     1     -12.653   8.907  72.190  1.00  0.00    -0.467 C  
BRANCH   7   8
HETATM    8  C   UNL     1     -12.130  10.034  71.308  1.00  0.00    -0.487 C  
BRANCH   8   9
HETATM    9  C   UNL     1     -11.164   9.518  70.246  1.00  0.00    -0.307 C  
BRANCH   9  10
HETATM   10  C   UNL     1     -10.905  10.546  69.144  1.00  0.00    -0.277 C  
BRANCH  10  11
HETATM   11  C   UNL     1     -11.405  11.963  69.451  1.00  0.00    -0.327 C  
BRANCH  11  12
HETATM   12  C   UNL     1     -10.534  13.055  68.818  1.00  0.00    -0.164 C  
BRANCH  12  13
HETATM   13  N   UNL     1     -11.340  14.125  68.056  1.00  0.00    -0.283 N  
HETATM   14  C   UNL     1     -12.052  15.056  69.030  1.00  0.00    -0.208 C  
HETATM   15  C   UNL     1     -10.429  14.944  67.149  1.00  0.00    -0.271 C  
BRANCH  13  16
HETATM   16  C   UNL     1     -12.391  13.365  67.177  1.00  0.00    -0.146 C  
BRANCH  16  17
HETATM   17  C   UNL     1     -11.886  12.901  65.834  1.00  0.00    -0.476 A  
HETATM   18  C   UNL     1     -12.335  13.514  64.652  1.00  0.00    -0.419 A  
HETATM   19  C   UNL     1     -12.035  12.956  63.411  1.00  0.00    -0.612 A  
HETATM   20  C   UNL     1     -11.262  11.799  63.335  1.00  0.00    -0.440 A  
HETATM   21  C   UNL     1     -10.748  11.226  64.495  1.00  0.00    -0.390 A  
HETATM   22  C   UNL     1     -11.044  11.783  65.739  1.00  0.00    -0.351 A  
ENDBRANCH  16  17
ENDBRANCH  13  16
ENDBRANCH  12  13
ENDBRANCH  11  12
ENDBRANCH  10  11
ENDBRANCH   9  10
ENDBRANCH   8   9
ENDBRANCH   7   8
ENDBRANCH   6   7
ENDBRANCH   5   6
ENDBRANCH   4   5
ENDBRANCH   3   4
ENDBRANCH   2   3
TORSDOF 13
ENDMDL
MODEL      140
REMARK 921   NORMALIZED FREE ENERGY PREDICTED BY IDOCK:   -3.86 KCAL/MOL
REMARK 922        TOTAL FREE ENERGY PREDICTED BY IDOCK:   -8.27 KCAL/MOL
REMARK 923 INTER-LIGAND FREE ENERGY PREDICTED BY IDOCK:   -7.03 KCAL/MOL
REMARK 924 INTRA-LIGAND FREE ENERGY PREDICTED BY IDOCK:   -1.24 KCAL/MOL
REMARK 927      BINDING AFFINITY PREDICTED BY RF-SCORE:    0.00 PKD
ROOT
HETATM    1  C   UNL     1      -9.299  13.877  68.301  1.00  0.00    -0.209 C  
HETATM    2  C   UNL     1      -9.352  15.115  67.421  1.00  0.00    -0.200 C  
ENDROOT
BRANCH   2   3
HETATM    3  C   UNL     1      -9.998  14.802  66.074  1.00  0.00    -0.336 C  
BRANCH   3   4
HETATM    4  C   UNL     1     -11.500  14.576  66.223  1.00  0.00    -0.358 C  
BRANCH   4   5
HETATM    5  C   UNL     1     -12.139  14.305  64.864  1.00  0.00    -0.442 C  
BRANCH   5   6
HETATM    6  C   UNL     1     -12.627  12.865  64.777  1.00  0.00    -0.493 C  
BRANCH   6   7
HETATM    7  C   UNL     1     -11.985  12.136  63.601  1.00  0.00    -0.628 C  
BRANCH   7   8
HETATM    8  C   UNL     1     -10.469  12.263  63.679  1.00  0.00    -0.483 C  
BRANCH   8   9
HETATM    9  C   UNL     1      -9.832  11.036  64.321  1.00  0.00    -0.355 C  
BRANCH   9  10
HETATM   10  C   UNL     1      -9.539  11.241  65.809  1.00  0.00    -0.256 C  
BRANCH  10  11
HETATM   11  C   UNL     1     -10.217  10.236  66.747  1.00  0.00    -0.286 C  
BRANCH  11  12
HETATM   12  C   UNL     1      -9.656   8.815  66.608  1.00  0.00    -0.220 C  
BRANCH  12  13
HETATM   13  N   UNL     1     -10.056   7.877  67.763  1.00  0.00    -0.180 N  
HETATM   14  C   UNL     1     -10.991   6.781  67.267  1.00  0.00    -0.363 C  
HETATM   15  C   UNL     1      -8.822   7.242  68.394  1.00  0.00    -0.128 C  
BRANCH  13  16
HETATM   16  C   UNL     1     -10.784   8.758  68.835  1.00  0.00    -0.087 C  
BRANCH  16  17
HETATM   17  C   UNL     1     -10.671   8.262  70.256  1.00  0.00    -0.237 A  
HETATM   18  C   UNL     1     -11.513   7.238  70.723  1.00  0.00    -0.328 A  
HETATM   19  C   UNL     1     -11.554   6.926  72.081  1.00  0.00    -0.322 A  
HETATM   20  C   UNL     1     -10.738   7.610  72.979  1.00  0.00    -0.449 A  
HETATM   21  C   UNL     1      -9.845   8.573  72.517  1.00  0.00    -0.324 A  
HETATM   22  C   UNL     1      -9.799   8.887  71.159  1.00  0.00    -0.345 A  
ENDBRANCH  16  17
ENDBRANCH  13  16
ENDBRANCH  12  13
ENDBRANCH  11  12
ENDBRANCH  10  11
ENDBRANCH   9  10
ENDBRANCH   8   9
ENDBRANCH   7   8
ENDBRANCH   6   7
ENDBRANCH   5   6
ENDBRANCH   4   5
ENDBRANCH   3   4
ENDBRANCH   2   3
TORSDOF 13
ENDMDL
MODEL      141
REMARK 921   NORMALIZED FREE ENERGY PREDICTED BY IDOCK:   -3.84 KCAL/MOL
REMARK 922        TOTAL FREE ENERGY PREDICTED BY IDOCK:   -8.23 KCAL/MOL
REMARK 923 INTER-LIGAND FREE ENERGY PREDICTED BY IDOCK:   -6.68 KCAL/MOL
REMARK 924 INTRA-LIGAND FREE ENERGY PREDICTED BY IDOCK:   -1.55 KCAL/MOL
REMARK 927      BINDING AFFINITY PREDICTED BY RF-SCORE:    0.00 PKD
ROOT
HETATM    1  C   UNL     1     -11.204   6.143  69.306  1.00  0.00    -0.438 C  
HETATM    2  C   UNL     1     -10.436   6.929  68.256  1.00  0.00    -0.240 C  
ENDROOT
BRANCH   2   3
HETATM    3  C   UNL     1      -9.012   7.220  68.723  1.00  0.00    -0.129 C  
BRANCH   3   4
HETATM    4  C   UNL     1      -8.634   6.343  69.913  1.00  0.00    -0.138 C  
BRANCH   4   5
HETATM    5  C   UNL     1      -8.017   7.185  71.026  1.00  0.00    -0.103 C  
BRANCH   5   6
HETATM    6  C   UNL     1      -8.967   7.290  72.211  1.00  0.00    -0.150 C  
BRANCH   6   7
HETATM    7  C   UNL     1      -9.604   8.674  72.285  1.00  0.00    -0.348 C  
BRANCH   7   8
HETATM    8  C   UNL     1     -11.121   8.551  72.218  1.00  0.00    -0.430 C  
BRANCH   8   9
HETATM    9  C   UNL     1     -11.742   9.664  71.379  1.00  0.00    -0.478 C  
BRANCH   9  10
HETATM   10  C   UNL     1     -10.822  10.122  70.246  1.00  0.00    -0.370 C  
BRANCH  10  11
HETATM   11  C   UNL     1     -11.502  10.970  69.164  1.00  0.00    -0.370 C  
BRANCH  11  12
HETATM   12  C   UNL     1     -11.158  10.512  67.741  1.00  0.00    -0.317 C  
BRANCH  12  13
HETATM   13  N   UNL     1     -10.620  11.642  66.841  1.00  0.00    -0.230 N  
HETATM   14  C   UNL     1      -9.446  12.348  67.508  1.00  0.00    -0.187 C  
HETATM   15  C   UNL     1     -10.178  11.092  65.490  1.00  0.00    -0.268 C  
BRANCH  13  16
HETATM   16  C   UNL     1     -11.798  12.652  66.623  1.00  0.00    -0.380 C  
BRANCH  16  17
HETATM   17  C   UNL     1     -11.412  14.109  66.681  1.00  0.00    -0.378 A  
HETATM   18  C   UNL     1     -10.760  14.718  65.595  1.00  0.00    -0.345 A  
HETATM   19  C   UNL     1     -10.218  15.995  65.725  1.00  0.00    -0.401 A  
HETATM   20  C   UNL     1     -10.346  16.688  66.927  1.00  0.00    -0.299 A  
HETATM   21  C   UNL     1     -11.057  16.126  67.984  1.00  0.00    -0.317 A  
HETATM   22  C   UNL     1     -11.602  14.848  67.858  1.00  0.00    -0.364 A  
ENDBRANCH  16  17
ENDBRANCH  13  16
ENDBRANCH  12  13
ENDBRANCH  11  12
ENDBRANCH  10  11
ENDBRANCH   9  10
ENDBRANCH   8   9
ENDBRANCH   7   8
ENDBRANCH   6   7
ENDBRANCH   5   6
ENDBRANCH   4   5
ENDBRANCH   3   4
ENDBRANCH   2   3
TORSDOF 13
ENDMDL
MODEL      142
REMARK 921   NORMALIZED FREE ENERGY PREDICTED BY IDOCK:   -3.83 KCAL/MOL
REMARK 922        TOTAL FREE ENERGY PREDICTED BY IDOCK:   -8.21 KCAL/MOL
REMARK 923 INTER-LIGAND FREE ENERGY PREDICTED BY IDOCK:   -7.70 KCAL/MOL
REMARK 924 INTRA-LIGAND FREE ENERGY PREDICTED BY IDOCK:   -0.51 KCAL/MOL
REMARK 927      BINDING AFFINITY PREDICTED BY RF-SCORE:    0.00 PKD
ROOT
HETATM    1  C   UNL     1      -9.969   6.307  69.395  1.00  0.00    -0.192 C  
HETATM    2  C   UNL     1     -11.206   6.400  68.517  1.00  0.00    -0.321 C  
ENDROOT
BRANCH   2   3
HETATM    3  C   UNL     1     -10.831   6.755  67.081  1.00  0.00    -0.462 C  
BRANCH   3   4
HETATM    4  C   UNL     1      -9.320   6.713  66.879  1.00  0.00    -0.171 C  
BRANCH   4   5
HETATM    5  C   UNL     1      -8.862   7.876  66.004  1.00  0.00    -0.191 C  
BRANCH   5   6
HETATM    6  C   UNL     1      -9.834   9.043  66.109  1.00  0.00    -0.349 C  
BRANCH   6   7
HETATM    7  C   UNL     1      -9.701   9.980  64.912  1.00  0.00    -0.377 C  
BRANCH   7   8
HETATM    8  C   UNL     1     -10.675  11.142  65.054  1.00  0.00    -0.301 C  
BRANCH   8   9
HETATM    9  C   UNL     1     -11.080  11.709  63.697  1.00  0.00    -0.506 C  
BRANCH   9  10
HETATM   10  C   UNL     1     -11.908  12.989  63.823  1.00  0.00    -0.566 C  
BRANCH  10  11
HETATM   11  C   UNL     1     -11.173  14.175  64.460  1.00  0.00    -0.345 C  
BRANCH  11  12
HETATM   12  C   UNL     1     -11.655  14.484  65.883  1.00  0.00    -0.349 C  
BRANCH  12  13
HETATM   13  N   UNL     1     -10.564  15.091  66.787  1.00  0.00    -0.295 N  
HETATM   14  C   UNL     1     -11.189  15.787  67.990  1.00  0.00    -0.338 C  
HETATM   15  C   UNL     1      -9.602  14.012  67.271  1.00  0.00    -0.238 C  
BRANCH  13  16
HETATM   16  C   UNL     1      -9.776  16.129  65.917  1.00  0.00    -0.340 C  
BRANCH  16  17
HETATM   17  C   UNL     1      -9.637  17.501  66.527  1.00  0.00    -0.295 A  
HETATM   18  C   UNL     1     -10.412  18.574  66.055  1.00  0.00    -0.433 A  
HETATM   19  C   UNL     1     -10.138  19.877  66.469  1.00  0.00    -0.607 A  
HETATM   20  C   UNL     1      -9.110  20.118  67.378  1.00  0.00    -0.475 A  
HETATM   21  C   UNL     1      -8.386  19.055  67.910  1.00  0.00    -0.320 A  
HETATM   22  C   UNL     1      -8.657  17.750  67.500  1.00  0.00    -0.228 A  
ENDBRANCH  16  17
ENDBRANCH  13  16
ENDBRANCH  12  13
ENDBRANCH  11  12
ENDBRANCH  10  11
ENDBRANCH   9  10
ENDBRANCH   8   9
ENDBRANCH   7   8
ENDBRANCH   6   7
ENDBRANCH   5   6
ENDBRANCH   4   5
ENDBRANCH   3   4
ENDBRANCH   2   3
TORSDOF 13
ENDMDL
MODEL      143
REMARK 921   NORMALIZED FREE ENERGY PREDICTED BY IDOCK:   -3.83 KCAL/MOL
REMARK 922        TOTAL FREE ENERGY PREDICTED BY IDOCK:   -8.21 KCAL/MOL
REMARK 923 INTER-LIGAND FREE ENERGY PREDICTED BY IDOCK:   -6.36 KCAL/MOL
REMARK 924 INTRA-LIGAND FREE ENERGY PREDICTED BY IDOCK:   -1.85 KCAL/MOL
REMARK 927      BINDING AFFINITY PREDICTED BY RF-SCORE:    0.00 PKD
ROOT
HETATM    1  C   UNL     1      -9.105   7.236  71.230  1.00  0.00    -0.146 C  
HETATM    2  C   UNL     1     -10.615   7.357  71.356  1.00  0.00    -0.232 C  
ENDROOT
BRANCH   2   3
HETATM    3  C   UNL     1     -11.317   6.724  70.157  1.00  0.00    -0.404 C  
BRANCH   3   4
HETATM    4  C   UNL     1     -10.561   5.494  69.663  1.00  0.00    -0.375 C  
BRANCH   4   5
HETATM    5  C   UNL     1     -10.279   5.602  68.167  1.00  0.00    -0.236 C  
BRANCH   5   6
HETATM    6  C   UNL     1     -10.640   6.988  67.650  1.00  0.00    -0.327 C  
BRANCH   6   7
HETATM    7  C   UNL     1      -9.654   7.452  66.583  1.00  0.00    -0.251 C  
BRANCH   7   8
HETATM    8  C   UNL     1     -10.020   8.855  66.115  1.00  0.00    -0.290 C  
BRANCH   8   9
HETATM    9  C   UNL     1      -8.798   9.622  65.621  1.00  0.00    -0.189 C  
BRANCH   9  10
HETATM   10  C   UNL     1      -9.098  10.456  64.374  1.00  0.00    -0.267 C  
BRANCH  10  11
HETATM   11  C   UNL     1     -10.337  11.352  64.477  1.00  0.00    -0.369 C  
BRANCH  11  12
HETATM   12  C   UNL     1     -10.097  12.612  65.318  1.00  0.00    -0.253 C  
BRANCH  12  13
HETATM   13  N   UNL     1     -11.361  13.470  65.523  1.00  0.00    -0.295 N  
HETATM   14  C   UNL     1     -11.235  14.798  64.786  1.00  0.00    -0.385 C  
HETATM   15  C   UNL     1     -12.599  12.733  65.027  1.00  0.00    -0.468 C  
BRANCH  13  16
HETATM   16  C   UNL     1     -11.496  13.723  67.063  1.00  0.00    -0.346 C  
BRANCH  16  17
HETATM   17  C   UNL     1     -10.958  12.621  67.942  1.00  0.00    -0.262 A  
HETATM   18  C   UNL     1      -9.573  12.457  68.115  1.00  0.00    -0.218 A  
HETATM   19  C   UNL     1      -9.072  11.323  68.751  1.00  0.00    -0.122 A  
HETATM   20  C   UNL     1      -9.945  10.357  69.244  1.00  0.00    -0.246 A  
HETATM   21  C   UNL     1     -11.321  10.545  69.147  1.00  0.00    -0.319 A  
HETATM   22  C   UNL     1     -11.828  11.679  68.513  1.00  0.00    -0.357 A  
ENDBRANCH  16  17
ENDBRANCH  13  16
ENDBRANCH  12  13
ENDBRANCH  11  12
ENDBRANCH  10  11
ENDBRANCH   9  10
ENDBRANCH   8   9
ENDBRANCH   7   8
ENDBRANCH   6   7
ENDBRANCH   5   6
ENDBRANCH   4   5
ENDBRANCH   3   4
ENDBRANCH   2   3
TORSDOF 13
ENDMDL
MODEL      144
REMARK 921   NORMALIZED FREE ENERGY PREDICTED BY IDOCK:   -3.81 KCAL/MOL
REMARK 922        TOTAL FREE ENERGY PREDICTED BY IDOCK:   -8.18 KCAL/MOL
REMARK 923 INTER-LIGAND FREE ENERGY PREDICTED BY IDOCK:   -6.73 KCAL/MOL
REMARK 924 INTRA-LIGAND FREE ENERGY PREDICTED BY IDOCK:   -1.45 KCAL/MOL
REMARK 927      BINDING AFFINITY PREDICTED BY RF-SCORE:    0.00 PKD
ROOT
HETATM    1  C   UNL     1     -10.183   5.132  69.887  1.00  0.00    -0.361 C  
HETATM    2  C   UNL     1     -11.078   6.353  69.760  1.00  0.00    -0.459 C  
ENDROOT
BRANCH   2   3
HETATM    3  C   UNL     1     -11.415   6.929  71.133  1.00  0.00    -0.347 C  
BRANCH   3   4
HETATM    4  C   UNL     1     -10.197   6.913  72.051  1.00  0.00    -0.206 C  
BRANCH   4   5
HETATM    5  C   UNL     1      -9.821   8.332  72.468  1.00  0.00    -0.368 C  
BRANCH   5   6
HETATM    6  C   UNL     1      -9.492   9.183  71.248  1.00  0.00    -0.313 C  
BRANCH   6   7
HETATM    7  C   UNL     1      -8.170   8.756  70.619  1.00  0.00    -0.159 C  
BRANCH   7   8
HETATM    8  C   UNL     1      -8.327   8.645  69.108  1.00  0.00    -0.119 C  
BRANCH   8   9
HETATM    9  C   UNL     1      -9.300   9.686  68.564  1.00  0.00    -0.138 C  
BRANCH   9  10
HETATM   10  C   UNL     1      -9.046  10.007  67.090  1.00  0.00    -0.154 C  
BRANCH  10  11
HETATM   11  C   UNL     1     -10.242  10.612  66.344  1.00  0.00    -0.291 C  
BRANCH  11  12
HETATM   12  C   UNL     1     -11.214  11.351  67.271  1.00  0.00    -0.304 C  
BRANCH  12  13
HETATM   13  N   UNL     1     -11.024  12.880  67.275  1.00  0.00    -0.255 N  
HETATM   14  C   UNL     1      -9.959  13.292  66.266  1.00  0.00    -0.291 C  
HETATM   15  C   UNL     1     -12.333  13.588  66.945  1.00  0.00    -0.238 C  
BRANCH  13  16
HETATM   16  C   UNL     1     -10.574  13.281  68.721  1.00  0.00    -0.201 C  
BRANCH  16  17
HETATM   17  C   UNL     1     -11.576  12.983  69.809  1.00  0.00    -0.286 A  
HETATM   18  C   UNL     1     -12.111  14.021  70.590  1.00  0.00    -0.424 A  
HETATM   19  C   UNL     1     -12.870  13.731  71.723  1.00  0.00    -0.415 A  
HETATM   20  C   UNL     1     -13.126  12.406  72.070  1.00  0.00    -0.470 A  
HETATM   21  C   UNL     1     -12.666  11.371  71.261  1.00  0.00    -0.498 A  
HETATM   22  C   UNL     1     -11.908  11.657  70.125  1.00  0.00    -0.428 A  
ENDBRANCH  16  17
ENDBRANCH  13  16
ENDBRANCH  12  13
ENDBRANCH  11  12
ENDBRANCH  10  11
ENDBRANCH   9  10
ENDBRANCH   8   9
ENDBRANCH   7   8
ENDBRANCH   6   7
ENDBRANCH   5   6
ENDBRANCH   4   5
ENDBRANCH   3   4
ENDBRANCH   2   3
TORSDOF 13
ENDMDL
MODEL      145
REMARK 921   NORMALIZED FREE ENERGY PREDICTED BY IDOCK:   -3.80 KCAL/MOL
REMARK 922        TOTAL FREE ENERGY PREDICTED BY IDOCK:   -8.16 KCAL/MOL
REMARK 923 INTER-LIGAND FREE ENERGY PREDICTED BY IDOCK:   -6.99 KCAL/MOL
REMARK 924 INTRA-LIGAND FREE ENERGY PREDICTED BY IDOCK:   -1.17 KCAL/MOL
REMARK 927      BINDING AFFINITY PREDICTED BY RF-SCORE:    0.00 PKD
ROOT
HETATM    1  C   UNL     1      -6.565  15.653  67.986  1.00  0.00    -0.152 C  
HETATM    2  C   UNL     1      -6.646  16.446  69.280  1.00  0.00    -0.206 C  
ENDROOT
BRANCH   2   3
HETATM    3  C   UNL     1      -6.865  17.930  68.998  1.00  0.00    -0.242 C  
BRANCH   3   4
HETATM    4  C   UNL     1      -5.682  18.528  68.243  1.00  0.00    -0.178 C  
BRANCH   4   5
HETATM    5  C   UNL     1      -6.121  19.034  66.872  1.00  0.00    -0.177 C  
BRANCH   5   6
HETATM    6  C   UNL     1      -6.767  20.408  66.987  1.00  0.00    -0.302 C  
BRANCH   6   7
HETATM    7  C   UNL     1      -8.109  20.448  66.263  1.00  0.00    -0.112 C  
BRANCH   7   8
HETATM    8  C   UNL     1      -9.203  19.900  67.170  1.00  0.00    -0.463 C  
BRANCH   8   9
HETATM    9  C   UNL     1      -9.829  18.632  66.597  1.00  0.00    -0.377 C  
BRANCH   9  10
HETATM   10  C   UNL     1     -10.712  17.907  67.614  1.00  0.00    -0.343 C  
BRANCH  10  11
HETATM   11  C   UNL     1     -10.301  16.460  67.913  1.00  0.00    -0.286 C  
BRANCH  11  12
HETATM   12  C   UNL     1     -11.461  15.604  68.436  1.00  0.00    -0.369 C  
BRANCH  12  13
HETATM   13  N   UNL     1     -11.170  14.091  68.419  1.00  0.00    -0.253 N  
HETATM   14  C   UNL     1     -12.156  13.363  67.514  1.00  0.00    -0.279 C  
HETATM   15  C   UNL     1      -9.748  13.820  67.939  1.00  0.00    -0.229 C  
BRANCH  13  16
HETATM   16  C   UNL     1     -11.319  13.581  69.893  1.00  0.00    -0.031 C  
BRANCH  16  17
HETATM   17  C   UNL     1     -12.117  14.481  70.804  1.00  0.00    -0.398 A  
HETATM   18  C   UNL     1     -11.476  15.465  71.575  1.00  0.00    -0.478 A  
HETATM   19  C   UNL     1     -12.177  16.152  72.565  1.00  0.00    -0.609 A  
HETATM   20  C   UNL     1     -13.528  15.884  72.776  1.00  0.00    -0.594 A  
HETATM   21  C   UNL     1     -14.192  14.966  71.967  1.00  0.00    -0.638 A  
HETATM   22  C   UNL     1     -13.495  14.278  70.974  1.00  0.00    -0.274 A  
ENDBRANCH  16  17
ENDBRANCH  13  16
ENDBRANCH  12  13
ENDBRANCH  11  12
ENDBRANCH  10  11
ENDBRANCH   9  10
ENDBRANCH   8   9
ENDBRANCH   7   8
ENDBRANCH   6   7
ENDBRANCH   5   6
ENDBRANCH   4   5
ENDBRANCH   3   4
ENDBRANCH   2   3
TORSDOF 13
ENDMDL
MODEL      146
REMARK 921   NORMALIZED FREE ENERGY PREDICTED BY IDOCK:   -3.80 KCAL/MOL
REMARK 922        TOTAL FREE ENERGY PREDICTED BY IDOCK:   -8.15 KCAL/MOL
REMARK 923 INTER-LIGAND FREE ENERGY PREDICTED BY IDOCK:   -7.21 KCAL/MOL
REMARK 924 INTRA-LIGAND FREE ENERGY PREDICTED BY IDOCK:   -0.94 KCAL/MOL
REMARK 927      BINDING AFFINITY PREDICTED BY RF-SCORE:    0.00 PKD
ROOT
HETATM    1  C   UNL     1     -11.920  10.393  70.979  1.00  0.00    -0.481 C  
HETATM    2  C   UNL     1     -13.194   9.718  71.458  1.00  0.00    -0.493 C  
ENDROOT
BRANCH   2   3
HETATM    3  C   UNL     1     -12.934   8.262  71.834  1.00  0.00    -0.371 C  
BRANCH   3   4
HETATM    4  C   UNL     1     -11.482   7.876  71.568  1.00  0.00    -0.301 C  
BRANCH   4   5
HETATM    5  C   UNL     1     -11.394   6.447  71.041  1.00  0.00    -0.386 C  
BRANCH   5   6
HETATM    6  C   UNL     1     -11.455   6.431  69.519  1.00  0.00    -0.412 C  
BRANCH   6   7
HETATM    7  C   UNL     1     -10.516   7.473  68.919  1.00  0.00    -0.214 C  
BRANCH   7   8
HETATM    8  C   UNL     1     -10.696   7.522  67.407  1.00  0.00    -0.331 C  
BRANCH   8   9
HETATM    9  C   UNL     1      -9.368   7.726  66.686  1.00  0.00    -0.238 C  
BRANCH   9  10
HETATM   10  C   UNL     1      -9.335   9.026  65.880  1.00  0.00    -0.306 C  
BRANCH  10  11
HETATM   11  C   UNL     1     -10.062  10.209  66.530  1.00  0.00    -0.296 C  
BRANCH  11  12
HETATM   12  C   UNL     1      -9.311  11.536  66.367  1.00  0.00    -0.209 C  
BRANCH  12  13
HETATM   13  N   UNL     1      -8.829  12.142  67.700  1.00  0.00    -0.164 N  
HETATM   14  C   UNL     1      -8.771  11.075  68.785  1.00  0.00    -0.145 C  
HETATM   15  C   UNL     1      -7.452  12.775  67.538  1.00  0.00    -0.154 C  
BRANCH  13  16
HETATM   16  C   UNL     1      -9.861  13.252  68.095  1.00  0.00    -0.231 C  
BRANCH  16  17
HETATM   17  C   UNL     1     -10.627  13.854  66.943  1.00  0.00    -0.280 A  
HETATM   18  C   UNL     1     -11.945  13.449  66.673  1.00  0.00    -0.452 A  
HETATM   19  C   UNL     1     -12.576  13.845  65.494  1.00  0.00    -0.560 A  
HETATM   20  C   UNL     1     -11.910  14.669  64.590  1.00  0.00    -0.459 A  
HETATM   21  C   UNL     1     -10.633  15.139  64.883  1.00  0.00    -0.392 A  
HETATM   22  C   UNL     1      -9.998  14.747  66.062  1.00  0.00    -0.336 A  
ENDBRANCH  16  17
ENDBRANCH  13  16
ENDBRANCH  12  13
ENDBRANCH  11  12
ENDBRANCH  10  11
ENDBRANCH   9  10
ENDBRANCH   8   9
ENDBRANCH   7   8
ENDBRANCH   6   7
ENDBRANCH   5   6
ENDBRANCH   4   5
ENDBRANCH   3   4
ENDBRANCH   2   3
TORSDOF 13
ENDMDL
MODEL      147
REMARK 921   NORMALIZED FREE ENERGY PREDICTED BY IDOCK:   -3.78 KCAL/MOL
REMARK 922        TOTAL FREE ENERGY PREDICTED BY IDOCK:   -8.13 KCAL/MOL
REMARK 923 INTER-LIGAND FREE ENERGY PREDICTED BY IDOCK:   -7.00 KCAL/MOL
REMARK 924 INTRA-LIGAND FREE ENERGY PREDICTED BY IDOCK:   -1.13 KCAL/MOL
REMARK 927      BINDING AFFINITY PREDICTED BY RF-SCORE:    0.00 PKD
ROOT
HETATM    1  C   UNL     1      -6.229  16.007  69.111  1.00  0.00    -0.145 C  
HETATM    2  C   UNL     1      -6.533  16.287  67.649  1.00  0.00    -0.183 C  
ENDROOT
BRANCH   2   3
HETATM    3  C   UNL     1      -6.419  17.778  67.341  1.00  0.00    -0.180 C  
BRANCH   3   4
HETATM    4  C   UNL     1      -6.461  18.608  68.621  1.00  0.00    -0.247 C  
BRANCH   4   5
HETATM    5  C   UNL     1      -7.673  19.535  68.619  1.00  0.00    -0.390 C  
BRANCH   5   6
HETATM    6  C   UNL     1      -7.944  20.064  67.217  1.00  0.00    -0.348 C  
BRANCH   6   7
HETATM    7  C   UNL     1      -9.395  20.509  67.068  1.00  0.00    -0.482 C  
BRANCH   7   8
HETATM    8  C   UNL     1     -10.328  19.407  67.554  1.00  0.00    -0.556 C  
BRANCH   8   9
HETATM    9  C   UNL     1     -10.488  18.303  66.513  1.00  0.00    -0.378 C  
BRANCH   9  10
HETATM   10  C   UNL     1      -9.991  16.948  67.020  1.00  0.00    -0.279 C  
BRANCH  10  11
HETATM   11  C   UNL     1     -10.865  16.301  68.101  1.00  0.00    -0.342 C  
BRANCH  11  12
HETATM   12  C   UNL     1     -10.226  15.052  68.720  1.00  0.00    -0.235 C  
BRANCH  12  13
HETATM   13  N   UNL     1     -10.671  13.735  68.055  1.00  0.00    -0.246 N  
HETATM   14  C   UNL     1     -10.567  12.575  69.038  1.00  0.00    -0.045 C  
HETATM   15  C   UNL     1     -12.106  13.843  67.551  1.00  0.00    -0.331 C  
BRANCH  13  16
HETATM   16  C   UNL     1      -9.716  13.492  66.837  1.00  0.00    -0.261 C  
BRANCH  16  17
HETATM   17  C   UNL     1     -10.406  13.139  65.543  1.00  0.00    -0.299 A  
HETATM   18  C   UNL     1     -11.186  14.092  64.866  1.00  0.00    -0.362 A  
HETATM   19  C   UNL     1     -11.988  13.711  63.792  1.00  0.00    -0.425 A  
HETATM   20  C   UNL     1     -11.998  12.385  63.365  1.00  0.00    -0.595 A  
HETATM   21  C   UNL     1     -11.172  11.448  63.978  1.00  0.00    -0.350 A  
HETATM   22  C   UNL     1     -10.366  11.825  65.053  1.00  0.00    -0.325 A  
ENDBRANCH  16  17
ENDBRANCH  13  16
ENDBRANCH  12  13
ENDBRANCH  11  12
ENDBRANCH  10  11
ENDBRANCH   9  10
ENDBRANCH   8   9
ENDBRANCH   7   8
ENDBRANCH   6   7
ENDBRANCH   5   6
ENDBRANCH   4   5
ENDBRANCH   3   4
ENDBRANCH   2   3
TORSDOF 13
ENDMDL
MODEL      148
REMARK 921   NORMALIZED FREE ENERGY PREDICTED BY IDOCK:   -3.78 KCAL/MOL
REMARK 922        TOTAL FREE ENERGY PREDICTED BY IDOCK:   -8.12 KCAL/MOL
REMARK 923 INTER-LIGAND FREE ENERGY PREDICTED BY IDOCK:   -6.64 KCAL/MOL
REMARK 924 INTRA-LIGAND FREE ENERGY PREDICTED BY IDOCK:   -1.48 KCAL/MOL
REMARK 927      BINDING AFFINITY PREDICTED BY RF-SCORE:    0.00 PKD
ROOT
HETATM    1  C   UNL     1     -10.455   7.254  73.381  1.00  0.00    -0.423 C  
HETATM    2  C   UNL     1     -11.612   7.711  72.508  1.00  0.00    -0.382 C  
ENDROOT
BRANCH   2   3
HETATM    3  C   UNL     1     -11.155   7.937  71.069  1.00  0.00    -0.268 C  
BRANCH   3   4
HETATM    4  C   UNL     1     -11.708   6.860  70.141  1.00  0.00    -0.306 C  
BRANCH   4   5
HETATM    5  C   UNL     1     -10.686   5.744  69.944  1.00  0.00    -0.412 C  
BRANCH   5   6
HETATM    6  C   UNL     1     -10.283   5.637  68.479  1.00  0.00    -0.253 C  
BRANCH   6   7
HETATM    7  C   UNL     1     -11.125   6.562  67.607  1.00  0.00    -0.380 C  
BRANCH   7   8
HETATM    8  C   UNL     1     -10.221   7.532  66.858  1.00  0.00    -0.359 C  
BRANCH   8   9
HETATM    9  C   UNL     1      -9.705   8.642  67.769  1.00  0.00    -0.202 C  
BRANCH   9  10
HETATM   10  C   UNL     1      -8.341   9.173  67.327  1.00  0.00    -0.121 C  
BRANCH  10  11
HETATM   11  C   UNL     1      -8.390  10.278  66.264  1.00  0.00    -0.134 C  
BRANCH  11  12
HETATM   12  C   UNL     1      -9.287  11.455  66.666  1.00  0.00    -0.185 C  
BRANCH  12  13
HETATM   13  N   UNL     1     -10.339  11.822  65.601  1.00  0.00    -0.243 N  
HETATM   14  C   UNL     1     -10.114  13.240  65.089  1.00  0.00    -0.231 C  
HETATM   15  C   UNL     1     -10.285  10.847  64.430  1.00  0.00    -0.358 C  
BRANCH  13  16
HETATM   16  C   UNL     1     -11.742  11.718  66.291  1.00  0.00    -0.030 C  
BRANCH  16  17
HETATM   17  C   UNL     1     -11.769  12.108  67.749  1.00  0.00    -0.390 A  
HETATM   18  C   UNL     1     -11.790  11.124  68.751  1.00  0.00    -0.388 A  
HETATM   19  C   UNL     1     -12.025  11.476  70.079  1.00  0.00    -0.435 A  
HETATM   20  C   UNL     1     -12.213  12.813  70.423  1.00  0.00    -0.371 A  
HETATM   21  C   UNL     1     -12.117  13.804  69.451  1.00  0.00    -0.377 A  
HETATM   22  C   UNL     1     -11.880  13.457  68.121  1.00  0.00    -0.396 A  
ENDBRANCH  16  17
ENDBRANCH  13  16
ENDBRANCH  12  13
ENDBRANCH  11  12
ENDBRANCH  10  11
ENDBRANCH   9  10
ENDBRANCH   8   9
ENDBRANCH   7   8
ENDBRANCH   6   7
ENDBRANCH   5   6
ENDBRANCH   4   5
ENDBRANCH   3   4
ENDBRANCH   2   3
TORSDOF 13
ENDMDL
MODEL      149
REMARK 921   NORMALIZED FREE ENERGY PREDICTED BY IDOCK:   -3.76 KCAL/MOL
REMARK 922        TOTAL FREE ENERGY PREDICTED BY IDOCK:   -8.09 KCAL/MOL
REMARK 923 INTER-LIGAND FREE ENERGY PREDICTED BY IDOCK:   -7.18 KCAL/MOL
REMARK 924 INTRA-LIGAND FREE ENERGY PREDICTED BY IDOCK:   -0.91 KCAL/MOL
REMARK 927      BINDING AFFINITY PREDICTED BY RF-SCORE:    0.00 PKD
ROOT
HETATM    1  C   UNL     1     -10.310   4.673  66.053  1.00  0.00    -0.318 C  
HETATM    2  C   UNL     1     -10.019   5.205  67.447  1.00  0.00    -0.215 C  
ENDROOT
BRANCH   2   3
HETATM    3  C   UNL     1     -10.960   6.353  67.801  1.00  0.00    -0.425 C  
BRANCH   3   4
HETATM    4  C   UNL     1     -11.403   6.271  69.259  1.00  0.00    -0.411 C  
BRANCH   4   5
HETATM    5  C   UNL     1     -10.348   5.560  70.102  1.00  0.00    -0.354 C  
BRANCH   5   6
HETATM    6  C   UNL     1     -10.744   5.560  71.572  1.00  0.00    -0.290 C  
BRANCH   6   7
HETATM    7  C   UNL     1     -10.033   6.672  72.335  1.00  0.00    -0.180 C  
BRANCH   7   8
HETATM    8  C   UNL     1     -10.962   7.868  72.494  1.00  0.00    -0.412 C  
BRANCH   8   9
HETATM    9  C   UNL     1     -10.478   9.071  71.689  1.00  0.00    -0.426 C  
BRANCH   9  10
HETATM   10  C   UNL     1     -11.576   9.658  70.801  1.00  0.00    -0.395 C  
BRANCH  10  11
HETATM   11  C   UNL     1     -11.096  10.193  69.446  1.00  0.00    -0.288 C  
BRANCH  11  12
HETATM   12  C   UNL     1     -11.907  11.399  68.957  1.00  0.00    -0.348 C  
BRANCH  12  13
HETATM   13  N   UNL     1     -11.208  12.203  67.844  1.00  0.00    -0.252 N  
HETATM   14  C   UNL     1      -9.822  12.650  68.292  1.00  0.00    -0.227 C  
HETATM   15  C   UNL     1     -11.086  11.371  66.573  1.00  0.00    -0.251 C  
BRANCH  13  16
HETATM   16  C   UNL     1     -12.106  13.455  67.553  1.00  0.00    -0.279 C  
BRANCH  16  17
HETATM   17  C   UNL     1     -11.353  14.730  67.266  1.00  0.00    -0.366 A  
HETATM   18  C   UNL     1     -11.168  15.692  68.273  1.00  0.00    -0.353 A  
HETATM   19  C   UNL     1     -10.660  16.952  67.960  1.00  0.00    -0.367 A  
HETATM   20  C   UNL     1     -10.307  17.254  66.647  1.00  0.00    -0.305 A  
HETATM   21  C   UNL     1     -10.414  16.284  65.654  1.00  0.00    -0.386 A  
HETATM   22  C   UNL     1     -10.920  15.021  65.964  1.00  0.00    -0.334 A  
ENDBRANCH  16  17
ENDBRANCH  13  16
ENDBRANCH  12  13
ENDBRANCH  11  12
ENDBRANCH  10  11
ENDBRANCH   9  10
ENDBRANCH   8   9
ENDBRANCH   7   8
ENDBRANCH   6   7
ENDBRANCH   5   6
ENDBRANCH   4   5
ENDBRANCH   3   4
ENDBRANCH   2   3
TORSDOF 13
ENDMDL
MODEL      150
REMARK 921   NORMALIZED FREE ENERGY PREDICTED BY IDOCK:   -3.76 KCAL/MOL
REMARK 922        TOTAL FREE ENERGY PREDICTED BY IDOCK:   -8.09 KCAL/MOL
REMARK 923 INTER-LIGAND FREE ENERGY PREDICTED BY IDOCK:   -7.07 KCAL/MOL
REMARK 924 INTRA-LIGAND FREE ENERGY PREDICTED BY IDOCK:   -1.01 KCAL/MOL
REMARK 927      BINDING AFFINITY PREDICTED BY RF-SCORE:    0.00 PKD
ROOT
HETATM    1  C   UNL     1     -11.158   6.702  67.100  1.00  0.00    -0.427 C  
HETATM    2  C   UNL     1     -10.423   6.927  68.411  1.00  0.00    -0.235 C  
ENDROOT
BRANCH   2   3
HETATM    3  C   UNL     1     -10.930   5.977  69.493  1.00  0.00    -0.467 C  
BRANCH   3   4
HETATM    4  C   UNL     1     -10.603   6.506  70.886  1.00  0.00    -0.275 C  
BRANCH   4   5
HETATM    5  C   UNL     1     -11.847   6.498  71.770  1.00  0.00    -0.384 C  
BRANCH   5   6
HETATM    6  C   UNL     1     -12.741   7.689  71.449  1.00  0.00    -0.357 C  
BRANCH   6   7
HETATM    7  C   UNL     1     -11.933   8.981  71.378  1.00  0.00    -0.400 C  
BRANCH   7   8
HETATM    8  C   UNL     1     -12.850  10.146  71.026  1.00  0.00    -0.474 C  
BRANCH   8   9
HETATM    9  C   UNL     1     -12.187  11.111  70.048  1.00  0.00    -0.402 C  
BRANCH   9  10
HETATM   10  C   UNL     1     -11.300  10.393  69.030  1.00  0.00    -0.279 C  
BRANCH  10  11
HETATM   11  C   UNL     1     -11.051  11.165  67.729  1.00  0.00    -0.344 C  
BRANCH  11  12
HETATM   12  C   UNL     1      -9.966  12.240  67.870  1.00  0.00    -0.202 C  
BRANCH  12  13
HETATM   13  N   UNL     1     -10.489  13.677  67.675  1.00  0.00    -0.237 N  
HETATM   14  C   UNL     1     -11.969  13.665  67.313  1.00  0.00    -0.381 C  
HETATM   15  C   UNL     1     -10.285  14.501  68.940  1.00  0.00    -0.229 C  
BRANCH  13  16
HETATM   16  C   UNL     1      -9.658  14.311  66.509  1.00  0.00    -0.297 C  
BRANCH  16  17
HETATM   17  C   UNL     1      -9.418  15.796  66.627  1.00  0.00    -0.279 A  
HETATM   18  C   UNL     1     -10.418  16.712  66.260  1.00  0.00    -0.272 A  
HETATM   19  C   UNL     1     -10.129  18.072  66.170  1.00  0.00    -0.334 A  
HETATM   20  C   UNL     1      -8.850  18.535  66.472  1.00  0.00    -0.301 A  
HETATM   21  C   UNL     1      -7.872  17.646  66.911  1.00  0.00    -0.252 A  
HETATM   22  C   UNL     1      -8.158  16.284  67.004  1.00  0.00    -0.244 A  
ENDBRANCH  16  17
ENDBRANCH  13  16
ENDBRANCH  12  13
ENDBRANCH  11  12
ENDBRANCH  10  11
ENDBRANCH   9  10
ENDBRANCH   8   9
ENDBRANCH   7   8
ENDBRANCH   6   7
ENDBRANCH   5   6
ENDBRANCH   4   5
ENDBRANCH   3   4
ENDBRANCH   2   3
TORSDOF 13
ENDMDL
MODEL      151
REMARK 921   NORMALIZED FREE ENERGY PREDICTED BY IDOCK:   -3.76 KCAL/MOL
REMARK 922        TOTAL FREE ENERGY PREDICTED BY IDOCK:   -8.08 KCAL/MOL
REMARK 923 INTER-LIGAND FREE ENERGY PREDICTED BY IDOCK:   -6.70 KCAL/MOL
REMARK 924 INTRA-LIGAND FREE ENERGY PREDICTED BY IDOCK:   -1.38 KCAL/MOL
REMARK 927      BINDING AFFINITY PREDICTED BY RF-SCORE:    0.00 PKD
ROOT
HETATM    1  C   UNL     1      -6.842  16.066  67.767  1.00  0.00    -0.168 C  
HETATM    2  C   UNL     1      -6.449  17.498  68.087  1.00  0.00    -0.178 C  
ENDROOT
BRANCH   2   3
HETATM    3  C   UNL     1      -6.983  18.462  67.030  1.00  0.00    -0.209 C  
BRANCH   3   4
HETATM    4  C   UNL     1      -7.219  19.849  67.619  1.00  0.00    -0.312 C  
BRANCH   4   5
HETATM    5  C   UNL     1      -8.625  20.340  67.289  1.00  0.00    -0.425 C  
BRANCH   5   6
HETATM    6  C   UNL     1      -9.269  19.455  66.230  1.00  0.00    -0.388 C  
BRANCH   6   7
HETATM    7  C   UNL     1     -10.645  18.973  66.677  1.00  0.00    -0.499 C  
BRANCH   7   8
HETATM    8  C   UNL     1     -10.535  18.269  68.023  1.00  0.00    -0.387 C  
BRANCH   8   9
HETATM    9  C   UNL     1     -10.702  16.759  67.887  1.00  0.00    -0.347 C  
BRANCH   9  10
HETATM   10  C   UNL     1     -10.283  16.248  66.507  1.00  0.00    -0.307 C  
BRANCH  10  11
HETATM   11  C   UNL     1     -11.188  15.159  65.918  1.00  0.00    -0.280 C  
BRANCH  11  12
HETATM   12  C   UNL     1     -10.490  14.321  64.840  1.00  0.00    -0.430 C  
BRANCH  12  13
HETATM   13  N   UNL     1     -11.133  12.937  64.621  1.00  0.00    -0.308 N  
HETATM   14  C   UNL     1     -12.250  13.020  63.589  1.00  0.00    -0.491 C  
HETATM   15  C   UNL     1     -10.091  11.926  64.158  1.00  0.00    -0.310 C  
BRANCH  13  16
HETATM   16  C   UNL     1     -11.713  12.479  66.003  1.00  0.00    -0.417 C  
BRANCH  16  17
HETATM   17  C   UNL     1     -10.778  11.647  66.845  1.00  0.00    -0.295 A  
HETATM   18  C   UNL     1     -10.969  10.260  66.964  1.00  0.00    -0.189 A  
HETATM   19  C   UNL     1     -10.241   9.526  67.900  1.00  0.00    -0.251 A  
HETATM   20  C   UNL     1      -9.299  10.163  68.705  1.00  0.00    -0.161 A  
HETATM   21  C   UNL     1      -9.047  11.522  68.543  1.00  0.00    -0.157 A  
HETATM   22  C   UNL     1      -9.771  12.260  67.607  1.00  0.00    -0.194 A  
ENDBRANCH  16  17
ENDBRANCH  13  16
ENDBRANCH  12  13
ENDBRANCH  11  12
ENDBRANCH  10  11
ENDBRANCH   9  10
ENDBRANCH   8   9
ENDBRANCH   7   8
ENDBRANCH   6   7
ENDBRANCH   5   6
ENDBRANCH   4   5
ENDBRANCH   3   4
ENDBRANCH   2   3
TORSDOF 13
ENDMDL
MODEL      152
REMARK 921   NORMALIZED FREE ENERGY PREDICTED BY IDOCK:   -3.75 KCAL/MOL
REMARK 922        TOTAL FREE ENERGY PREDICTED BY IDOCK:   -8.07 KCAL/MOL
REMARK 923 INTER-LIGAND FREE ENERGY PREDICTED BY IDOCK:   -6.94 KCAL/MOL
REMARK 924 INTRA-LIGAND FREE ENERGY PREDICTED BY IDOCK:   -1.13 KCAL/MOL
REMARK 927      BINDING AFFINITY PREDICTED BY RF-SCORE:    0.00 PKD
ROOT
HETATM    1  C   UNL     1     -12.177   6.680  70.985  1.00  0.00    -0.344 C  
HETATM    2  C   UNL     1     -11.013   6.120  71.785  1.00  0.00    -0.315 C  
ENDROOT
BRANCH   2   3
HETATM    3  C   UNL     1     -10.799   6.915  73.070  1.00  0.00    -0.328 C  
BRANCH   3   4
HETATM    4  C   UNL     1      -9.929   8.143  72.819  1.00  0.00    -0.361 C  
BRANCH   4   5
HETATM    5  C   UNL     1      -8.480   7.733  72.572  1.00  0.00    -0.175 C  
BRANCH   5   6
HETATM    6  C   UNL     1      -7.984   8.286  71.242  1.00  0.00    -0.125 C  
BRANCH   6   7
HETATM    7  C   UNL     1      -8.970   9.294  70.662  1.00  0.00    -0.296 C  
BRANCH   7   8
HETATM    8  C   UNL     1      -9.418   8.843  69.278  1.00  0.00    -0.161 C  
BRANCH   8   9
HETATM    9  C   UNL     1     -10.424   9.813  68.665  1.00  0.00    -0.233 C  
BRANCH   9  10
HETATM   10  C   UNL     1     -11.201  10.595  69.726  1.00  0.00    -0.363 C  
BRANCH  10  11
HETATM   11  C   UNL     1     -11.823  11.907  69.235  1.00  0.00    -0.379 C  
BRANCH  11  12
HETATM   12  C   UNL     1     -10.931  12.658  68.239  1.00  0.00    -0.248 C  
BRANCH  12  13
HETATM   13  N   UNL     1     -10.920  14.185  68.447  1.00  0.00    -0.246 N  
HETATM   14  C   UNL     1     -11.725  14.565  69.684  1.00  0.00    -0.307 C  
HETATM   15  C   UNL     1      -9.492  14.698  68.596  1.00  0.00    -0.211 C  
BRANCH  13  16
HETATM   16  C   UNL     1     -11.565  14.824  67.170  1.00  0.00    -0.359 C  
BRANCH  16  17
HETATM   17  C   UNL     1     -11.549  13.952  65.940  1.00  0.00    -0.348 A  
HETATM   18  C   UNL     1     -12.692  13.226  65.565  1.00  0.00    -0.429 A  
HETATM   19  C   UNL     1     -12.617  12.265  64.558  1.00  0.00    -0.416 A  
HETATM   20  C   UNL     1     -11.411  12.039  63.898  1.00  0.00    -0.518 A  
HETATM   21  C   UNL     1     -10.292  12.805  64.208  1.00  0.00    -0.402 A  
HETATM   22  C   UNL     1     -10.362  13.769  65.214  1.00  0.00    -0.378 A  
ENDBRANCH  16  17
ENDBRANCH  13  16
ENDBRANCH  12  13
ENDBRANCH  11  12
ENDBRANCH  10  11
ENDBRANCH   9  10
ENDBRANCH   8   9
ENDBRANCH   7   8
ENDBRANCH   6   7
ENDBRANCH   5   6
ENDBRANCH   4   5
ENDBRANCH   3   4
ENDBRANCH   2   3
TORSDOF 13
ENDMDL
MODEL      153
REMARK 921   NORMALIZED FREE ENERGY PREDICTED BY IDOCK:   -3.74 KCAL/MOL
REMARK 922        TOTAL FREE ENERGY PREDICTED BY IDOCK:   -8.06 KCAL/MOL
REMARK 923 INTER-LIGAND FREE ENERGY PREDICTED BY IDOCK:   -5.81 KCAL/MOL
REMARK 924 INTRA-LIGAND FREE ENERGY PREDICTED BY IDOCK:   -2.25 KCAL/MOL
REMARK 927      BINDING AFFINITY PREDICTED BY RF-SCORE:    0.00 PKD
ROOT
HETATM    1  C   UNL     1     -12.667  11.667  70.998  1.00  0.00    -0.395 C  
HETATM    2  C   UNL     1     -12.840  10.176  70.759  1.00  0.00    -0.388 C  
ENDROOT
BRANCH   2   3
HETATM    3  C   UNL     1     -13.650   9.533  71.882  1.00  0.00    -0.468 C  
BRANCH   3   4
HETATM    4  C   UNL     1     -13.702   8.016  71.723  1.00  0.00    -0.416 C  
BRANCH   4   5
HETATM    5  C   UNL     1     -12.296   7.442  71.580  1.00  0.00    -0.373 C  
BRANCH   5   6
HETATM    6  C   UNL     1     -11.511   7.612  72.875  1.00  0.00    -0.342 C  
BRANCH   6   7
HETATM    7  C   UNL     1     -10.086   8.079  72.598  1.00  0.00    -0.370 C  
BRANCH   7   8
HETATM    8  C   UNL     1      -9.106   6.949  72.882  1.00  0.00    -0.149 C  
BRANCH   8   9
HETATM    9  C   UNL     1      -8.589   6.312  71.596  1.00  0.00    -0.133 C  
BRANCH   9  10
HETATM   10  C   UNL     1      -9.222   4.945  71.327  1.00  0.00    -0.190 C  
BRANCH  10  11
HETATM   11  C   UNL     1     -10.176   4.899  70.128  1.00  0.00    -0.310 C  
BRANCH  11  12
HETATM   12  C   UNL     1      -9.482   4.484  68.825  1.00  0.00    -0.157 C  
BRANCH  12  13
HETATM   13  N   UNL     1      -9.494   5.580  67.741  1.00  0.00    -0.113 N  
HETATM   14  C   UNL     1      -8.126   6.240  67.628  1.00  0.00    -0.117 C  
HETATM   15  C   UNL     1      -9.887   4.997  66.389  1.00  0.00    -0.201 C  
BRANCH  13  16
HETATM   16  C   UNL     1     -10.565   6.638  68.175  1.00  0.00    -0.241 C  
BRANCH  16  17
HETATM   17  C   UNL     1     -10.126   8.077  68.062  1.00  0.00    -0.238 A  
HETATM   18  C   UNL     1      -9.671   8.776  69.193  1.00  0.00    -0.175 A  
HETATM   19  C   UNL     1      -9.466  10.153  69.135  1.00  0.00    -0.215 A  
HETATM   20  C   UNL     1      -9.684  10.841  67.943  1.00  0.00    -0.181 A  
HETATM   21  C   UNL     1     -10.060  10.148  66.796  1.00  0.00    -0.277 A  
HETATM   22  C   UNL     1     -10.266   8.769  66.849  1.00  0.00    -0.357 A  
ENDBRANCH  16  17
ENDBRANCH  13  16
ENDBRANCH  12  13
ENDBRANCH  11  12
ENDBRANCH  10  11
ENDBRANCH   9  10
ENDBRANCH   8   9
ENDBRANCH   7   8
ENDBRANCH   6   7
ENDBRANCH   5   6
ENDBRANCH   4   5
ENDBRANCH   3   4
ENDBRANCH   2   3
TORSDOF 13
ENDMDL
MODEL      154
REMARK 921   NORMALIZED FREE ENERGY PREDICTED BY IDOCK:   -3.73 KCAL/MOL
REMARK 922        TOTAL FREE ENERGY PREDICTED BY IDOCK:   -8.03 KCAL/MOL
REMARK 923 INTER-LIGAND FREE ENERGY PREDICTED BY IDOCK:   -7.56 KCAL/MOL
REMARK 924 INTRA-LIGAND FREE ENERGY PREDICTED BY IDOCK:   -0.47 KCAL/MOL
REMARK 927      BINDING AFFINITY PREDICTED BY RF-SCORE:    0.00 PKD
ROOT
HETATM    1  C   UNL     1      -8.561   8.068  73.541  1.00  0.00    -0.318 C  
HETATM    2  C   UNL     1      -8.765   7.682  72.086  1.00  0.00    -0.154 C  
ENDROOT
BRANCH   2   3
HETATM    3  C   UNL     1     -10.234   7.377  71.801  1.00  0.00    -0.212 C  
BRANCH   3   4
HETATM    4  C   UNL     1     -11.125   8.555  72.183  1.00  0.00    -0.436 C  
BRANCH   4   5
HETATM    5  C   UNL     1     -12.592   8.137  72.198  1.00  0.00    -0.349 C  
BRANCH   5   6
HETATM    6  C   UNL     1     -13.500   9.359  72.198  1.00  0.00    -0.543 C  
BRANCH   6   7
HETATM    7  C   UNL     1     -12.959  10.448  71.277  1.00  0.00    -0.517 C  
BRANCH   7   8
HETATM    8  C   UNL     1     -13.119  11.811  71.937  1.00  0.00    -0.482 C  
BRANCH   8   9
HETATM    9  C   UNL     1     -12.507  12.924  71.092  1.00  0.00    -0.344 C  
BRANCH   9  10
HETATM   10  C   UNL     1     -11.987  12.416  69.747  1.00  0.00    -0.359 C  
BRANCH  10  11
HETATM   11  C   UNL     1     -11.306  13.476  68.874  1.00  0.00    -0.332 C  
BRANCH  11  12
HETATM   12  C   UNL     1     -10.613  12.882  67.641  1.00  0.00    -0.223 C  
BRANCH  12  13
HETATM   13  N   UNL     1     -11.129  13.454  66.306  1.00  0.00    -0.291 N  
HETATM   14  C   UNL     1     -12.176  14.534  66.552  1.00  0.00    -0.244 C  
HETATM   15  C   UNL     1      -9.982  14.039  65.490  1.00  0.00    -0.276 C  
BRANCH  13  16
HETATM   16  C   UNL     1     -11.766  12.262  65.514  1.00  0.00    -0.377 C  
BRANCH  16  17
HETATM   17  C   UNL     1     -10.782  11.379  64.786  1.00  0.00    -0.362 A  
HETATM   18  C   UNL     1     -10.135  10.327  65.456  1.00  0.00    -0.351 A  
HETATM   19  C   UNL     1      -9.080   9.649  64.849  1.00  0.00    -0.284 A  
HETATM   20  C   UNL     1      -8.679   9.993  63.561  1.00  0.00    -0.229 A  
HETATM   21  C   UNL     1      -9.362  10.982  62.858  1.00  0.00    -0.380 A  
HETATM   22  C   UNL     1     -10.420  11.662  63.461  1.00  0.00    -0.498 A  
ENDBRANCH  16  17
ENDBRANCH  13  16
ENDBRANCH  12  13
ENDBRANCH  11  12
ENDBRANCH  10  11
ENDBRANCH   9  10
ENDBRANCH   8   9
ENDBRANCH   7   8
ENDBRANCH   6   7
ENDBRANCH   5   6
ENDBRANCH   4   5
ENDBRANCH   3   4
ENDBRANCH   2   3
TORSDOF 13
ENDMDL
MODEL      155
REMARK 921   NORMALIZED FREE ENERGY PREDICTED BY IDOCK:   -3.73 KCAL/MOL
REMARK 922        TOTAL FREE ENERGY PREDICTED BY IDOCK:   -8.03 KCAL/MOL
REMARK 923 INTER-LIGAND FREE ENERGY PREDICTED BY IDOCK:   -6.41 KCAL/MOL
REMARK 924 INTRA-LIGAND FREE ENERGY PREDICTED BY IDOCK:   -1.63 KCAL/MOL
REMARK 927      BINDING AFFINITY PREDICTED BY RF-SCORE:    0.00 PKD
ROOT
HETATM    1  C   UNL     1      -7.460  10.417  69.631  1.00  0.00    -0.160 C  
HETATM    2  C   UNL     1      -8.068  11.190  68.473  1.00  0.00    -0.146 C  
ENDROOT
BRANCH   2   3
HETATM    3  C   UNL     1      -8.019  10.373  67.184  1.00  0.00    -0.115 C  
BRANCH   3   4
HETATM    4  C   UNL     1      -9.227  10.668  66.300  1.00  0.00    -0.193 C  
BRANCH   4   5
HETATM    5  C   UNL     1      -9.944   9.376  65.921  1.00  0.00    -0.327 C  
BRANCH   5   6
HETATM    6  C   UNL     1     -10.522   8.699  67.157  1.00  0.00    -0.360 C  
BRANCH   6   7
HETATM    7  C   UNL     1     -10.635   7.191  66.957  1.00  0.00    -0.413 C  
BRANCH   7   8
HETATM    8  C   UNL     1      -9.469   6.489  67.639  1.00  0.00    -0.126 C  
BRANCH   8   9
HETATM    9  C   UNL     1      -9.883   5.141  68.222  1.00  0.00    -0.212 C  
BRANCH   9  10
HETATM   10  C   UNL     1      -9.037   4.745  69.433  1.00  0.00    -0.152 C  
BRANCH  10  11
HETATM   11  C   UNL     1      -9.823   4.545  70.734  1.00  0.00    -0.280 C  
BRANCH  11  12
HETATM   12  C   UNL     1      -9.602   5.674  71.748  1.00  0.00    -0.156 C  
BRANCH  12  13
HETATM   13  N   UNL     1     -10.845   5.989  72.603  1.00  0.00    -0.230 N  
HETATM   14  C   UNL     1     -11.358   4.729  73.290  1.00  0.00    -0.322 C  
HETATM   15  C   UNL     1     -10.522   7.043  73.656  1.00  0.00    -0.376 C  
BRANCH  13  16
HETATM   16  C   UNL     1     -11.937   6.553  71.631  1.00  0.00    -0.335 C  
BRANCH  16  17
HETATM   17  C   UNL     1     -11.960   8.055  71.496  1.00  0.00    -0.331 A  
HETATM   18  C   UNL     1     -13.014   8.805  72.045  1.00  0.00    -0.437 A  
HETATM   19  C   UNL     1     -13.146  10.160  71.743  1.00  0.00    -0.568 A  
HETATM   20  C   UNL     1     -12.214  10.784  70.917  1.00  0.00    -0.487 A  
HETATM   21  C   UNL     1     -11.124  10.069  70.430  1.00  0.00    -0.393 A  
HETATM   22  C   UNL     1     -10.986   8.714  70.730  1.00  0.00    -0.286 A  
ENDBRANCH  16  17
ENDBRANCH  13  16
ENDBRANCH  12  13
ENDBRANCH  11  12
ENDBRANCH  10  11
ENDBRANCH   9  10
ENDBRANCH   8   9
ENDBRANCH   7   8
ENDBRANCH   6   7
ENDBRANCH   5   6
ENDBRANCH   4   5
ENDBRANCH   3   4
ENDBRANCH   2   3
TORSDOF 13
ENDMDL
MODEL      156
REMARK 921   NORMALIZED FREE ENERGY PREDICTED BY IDOCK:   -3.71 KCAL/MOL
REMARK 922        TOTAL FREE ENERGY PREDICTED BY IDOCK:   -8.00 KCAL/MOL
REMARK 923 INTER-LIGAND FREE ENERGY PREDICTED BY IDOCK:   -7.11 KCAL/MOL
REMARK 924 INTRA-LIGAND FREE ENERGY PREDICTED BY IDOCK:   -0.89 KCAL/MOL
REMARK 927      BINDING AFFINITY PREDICTED BY RF-SCORE:    0.00 PKD
ROOT
HETATM    1  C   UNL     1     -12.414   6.721  71.503  1.00  0.00    -0.390 C  
HETATM    2  C   UNL     1     -11.069   6.180  71.959  1.00  0.00    -0.322 C  
ENDROOT
BRANCH   2   3
HETATM    3  C   UNL     1     -10.572   6.923  73.197  1.00  0.00    -0.330 C  
BRANCH   3   4
HETATM    4  C   UNL     1      -9.920   8.249  72.818  1.00  0.00    -0.333 C  
BRANCH   4   5
HETATM    5  C   UNL     1      -8.655   8.010  71.998  1.00  0.00    -0.193 C  
BRANCH   5   6
HETATM    6  C   UNL     1      -8.523   9.053  70.896  1.00  0.00    -0.253 C  
BRANCH   6   7
HETATM    7  C   UNL     1      -9.877   9.667  70.554  1.00  0.00    -0.294 C  
BRANCH   7   8
HETATM    8  C   UNL     1     -10.280   9.277  69.138  1.00  0.00    -0.214 C  
BRANCH   8   9
HETATM    9  C   UNL     1     -11.102  10.370  68.463  1.00  0.00    -0.318 C  
BRANCH   9  10
HETATM   10  C   UNL     1     -11.528  11.467  69.440  1.00  0.00    -0.378 C  
BRANCH  10  11
HETATM   11  C   UNL     1     -11.792  12.836  68.802  1.00  0.00    -0.346 C  
BRANCH  11  12
HETATM   12  C   UNL     1     -10.687  13.857  69.098  1.00  0.00    -0.147 C  
BRANCH  12  13
HETATM   13  N   UNL     1     -10.439  14.851  67.946  1.00  0.00    -0.248 N  
HETATM   14  C   UNL     1      -8.962  15.217  67.861  1.00  0.00    -0.170 C  
HETATM   15  C   UNL     1     -10.890  14.258  66.616  1.00  0.00    -0.301 C  
BRANCH  13  16
HETATM   16  C   UNL     1     -11.291  16.129  68.254  1.00  0.00    -0.316 C  
BRANCH  16  17
HETATM   17  C   UNL     1     -10.626  17.439  67.912  1.00  0.00    -0.383 A  
HETATM   18  C   UNL     1     -10.065  18.239  68.921  1.00  0.00    -0.358 A  
HETATM   19  C   UNL     1      -9.641  19.536  68.638  1.00  0.00    -0.483 A  
HETATM   20  C   UNL     1      -9.746  20.037  67.342  1.00  0.00    -0.550 A  
HETATM   21  C   UNL     1     -10.229  19.227  66.318  1.00  0.00    -0.546 A  
HETATM   22  C   UNL     1     -10.653  17.928  66.597  1.00  0.00    -0.243 A  
ENDBRANCH  16  17
ENDBRANCH  13  16
ENDBRANCH  12  13
ENDBRANCH  11  12
ENDBRANCH  10  11
ENDBRANCH   9  10
ENDBRANCH   8   9
ENDBRANCH   7   8
ENDBRANCH   6   7
ENDBRANCH   5   6
ENDBRANCH   4   5
ENDBRANCH   3   4
ENDBRANCH   2   3
TORSDOF 13
ENDMDL
MODEL      157
REMARK 921   NORMALIZED FREE ENERGY PREDICTED BY IDOCK:   -3.71 KCAL/MOL
REMARK 922        TOTAL FREE ENERGY PREDICTED BY IDOCK:   -8.00 KCAL/MOL
REMARK 923 INTER-LIGAND FREE ENERGY PREDICTED BY IDOCK:   -6.84 KCAL/MOL
REMARK 924 INTRA-LIGAND FREE ENERGY PREDICTED BY IDOCK:   -1.17 KCAL/MOL
REMARK 927      BINDING AFFINITY PREDICTED BY RF-SCORE:    0.00 PKD
ROOT
HETATM    1  C   UNL     1     -10.321   4.806  66.132  1.00  0.00    -0.337 C  
HETATM    2  C   UNL     1      -9.990   5.384  67.498  1.00  0.00    -0.198 C  
ENDROOT
BRANCH   2   3
HETATM    3  C   UNL     1     -11.115   6.286  67.998  1.00  0.00    -0.365 C  
BRANCH   3   4
HETATM    4  C   UNL     1     -11.278   6.174  69.511  1.00  0.00    -0.482 C  
BRANCH   4   5
HETATM    5  C   UNL     1     -10.144   5.350  70.114  1.00  0.00    -0.322 C  
BRANCH   5   6
HETATM    6  C   UNL     1     -10.405   5.072  71.588  1.00  0.00    -0.262 C  
BRANCH   6   7
HETATM    7  C   UNL     1      -9.524   5.943  72.478  1.00  0.00    -0.155 C  
BRANCH   7   8
HETATM    8  C   UNL     1     -10.340   7.099  73.041  1.00  0.00    -0.310 C  
BRANCH   8   9
HETATM    9  C   UNL     1     -10.007   8.417  72.349  1.00  0.00    -0.380 C  
BRANCH   9  10
HETATM   10  C   UNL     1     -11.234   9.066  71.707  1.00  0.00    -0.448 C  
BRANCH  10  11
HETATM   11  C   UNL     1     -10.934   9.980  70.514  1.00  0.00    -0.392 C  
BRANCH  11  12
HETATM   12  C   UNL     1      -9.708   9.531  69.709  1.00  0.00    -0.214 C  
BRANCH  12  13
HETATM   13  N   UNL     1      -9.668  10.096  68.275  1.00  0.00    -0.139 N  
HETATM   14  C   UNL     1      -8.929  11.428  68.243  1.00  0.00    -0.175 C  
HETATM   15  C   UNL     1      -8.987   9.116  67.328  1.00  0.00    -0.123 C  
BRANCH  13  16
HETATM   16  C   UNL     1     -11.155  10.298  67.823  1.00  0.00    -0.269 C  
BRANCH  16  17
HETATM   17  C   UNL     1     -11.464  11.647  67.223  1.00  0.00    -0.350 A  
HETATM   18  C   UNL     1     -11.350  11.856  65.839  1.00  0.00    -0.365 A  
HETATM   19  C   UNL     1     -11.430  13.144  65.312  1.00  0.00    -0.328 A  
HETATM   20  C   UNL     1     -11.653  14.230  66.155  1.00  0.00    -0.374 A  
HETATM   21  C   UNL     1     -11.844  14.027  67.519  1.00  0.00    -0.442 A  
HETATM   22  C   UNL     1     -11.766  12.739  68.051  1.00  0.00    -0.405 A  
ENDBRANCH  16  17
ENDBRANCH  13  16
ENDBRANCH  12  13
ENDBRANCH  11  12
ENDBRANCH  10  11
ENDBRANCH   9  10
ENDBRANCH   8   9
ENDBRANCH   7   8
ENDBRANCH   6   7
ENDBRANCH   5   6
ENDBRANCH   4   5
ENDBRANCH   3   4
ENDBRANCH   2   3
TORSDOF 13
ENDMDL
MODEL      158
REMARK 921   NORMALIZED FREE ENERGY PREDICTED BY IDOCK:   -3.70 KCAL/MOL
REMARK 922        TOTAL FREE ENERGY PREDICTED BY IDOCK:   -7.99 KCAL/MOL
REMARK 923 INTER-LIGAND FREE ENERGY PREDICTED BY IDOCK:   -7.42 KCAL/MOL
REMARK 924 INTRA-LIGAND FREE ENERGY PREDICTED BY IDOCK:   -0.57 KCAL/MOL
REMARK 927      BINDING AFFINITY PREDICTED BY RF-SCORE:    0.00 PKD
ROOT
HETATM    1  C   UNL     1     -10.820   7.724  71.974  1.00  0.00    -0.295 C  
HETATM    2  C   UNL     1     -11.537   9.038  71.717  1.00  0.00    -0.444 C  
ENDROOT
BRANCH   2   3
HETATM    3  C   UNL     1     -10.788   9.877  70.684  1.00  0.00    -0.400 C  
BRANCH   3   4
HETATM    4  C   UNL     1     -11.757  10.567  69.729  1.00  0.00    -0.354 C  
BRANCH   4   5
HETATM    5  C   UNL     1     -12.274  11.868  70.335  1.00  0.00    -0.399 C  
BRANCH   5   6
HETATM    6  C   UNL     1     -11.877  13.059  69.473  1.00  0.00    -0.385 C  
BRANCH   6   7
HETATM    7  C   UNL     1     -11.130  12.608  68.222  1.00  0.00    -0.295 C  
BRANCH   7   8
HETATM    8  C   UNL     1     -11.962  12.912  66.983  1.00  0.00    -0.390 C  
BRANCH   8   9
HETATM    9  C   UNL     1     -11.221  13.827  66.014  1.00  0.00    -0.307 C  
BRANCH   9  10
HETATM   10  C   UNL     1      -9.807  14.160  66.492  1.00  0.00    -0.298 C  
BRANCH  10  11
HETATM   11  C   UNL     1      -9.427  15.643  66.408  1.00  0.00    -0.321 C  
BRANCH  11  12
HETATM   12  C   UNL     1     -10.419  16.558  67.135  1.00  0.00    -0.300 C  
BRANCH  12  13
HETATM   13  N   UNL     1      -9.914  17.055  68.504  1.00  0.00    -0.276 N  
HETATM   14  C   UNL     1     -10.783  16.508  69.629  1.00  0.00    -0.323 C  
HETATM   15  C   UNL     1      -8.467  16.631  68.731  1.00  0.00    -0.255 C  
BRANCH  13  16
HETATM   16  C   UNL     1      -9.992  18.620  68.478  1.00  0.00    -0.388 C  
BRANCH  16  17
HETATM   17  C   UNL     1      -8.763  19.313  67.944  1.00  0.00    -0.352 A  
HETATM   18  C   UNL     1      -8.644  19.602  66.575  1.00  0.00    -0.387 A  
HETATM   19  C   UNL     1      -7.432  20.048  66.052  1.00  0.00    -0.328 A  
HETATM   20  C   UNL     1      -6.337  20.238  66.892  1.00  0.00    -0.239 A  
HETATM   21  C   UNL     1      -6.465  20.029  68.263  1.00  0.00    -0.311 A  
HETATM   22  C   UNL     1      -7.677  19.584  68.791  1.00  0.00    -0.375 A  
ENDBRANCH  16  17
ENDBRANCH  13  16
ENDBRANCH  12  13
ENDBRANCH  11  12
ENDBRANCH  10  11
ENDBRANCH   9  10
ENDBRANCH   8   9
ENDBRANCH   7   8
ENDBRANCH   6   7
ENDBRANCH   5   6
ENDBRANCH   4   5
ENDBRANCH   3   4
ENDBRANCH   2   3
TORSDOF 13
ENDMDL
MODEL      159
REMARK 921   NORMALIZED FREE ENERGY PREDICTED BY IDOCK:   -3.70 KCAL/MOL
REMARK 922        TOTAL FREE ENERGY PREDICTED BY IDOCK:   -7.99 KCAL/MOL
REMARK 923 INTER-LIGAND FREE ENERGY PREDICTED BY IDOCK:   -7.01 KCAL/MOL
REMARK 924 INTRA-LIGAND FREE ENERGY PREDICTED BY IDOCK:   -0.98 KCAL/MOL
REMARK 927      BINDING AFFINITY PREDICTED BY RF-SCORE:    0.00 PKD
ROOT
HETATM    1  C   UNL     1      -7.574  18.271  68.750  1.00  0.00    -0.294 C  
HETATM    2  C   UNL     1      -7.936  17.018  67.969  1.00  0.00    -0.195 C  
ENDROOT
BRANCH   2   3
HETATM    3  C   UNL     1      -9.031  16.228  68.681  1.00  0.00    -0.232 C  
BRANCH   3   4
HETATM    4  C   UNL     1     -10.395  16.486  68.049  1.00  0.00    -0.294 C  
BRANCH   4   5
HETATM    5  C   UNL     1     -11.473  15.654  68.738  1.00  0.00    -0.382 C  
BRANCH   5   6
HETATM    6  C   UNL     1     -11.424  15.854  70.247  1.00  0.00    -0.376 C  
BRANCH   6   7
HETATM    7  C   UNL     1     -11.931  14.617  70.982  1.00  0.00    -0.399 C  
BRANCH   7   8
HETATM    8  C   UNL     1     -11.963  13.427  70.033  1.00  0.00    -0.407 C  
BRANCH   8   9
HETATM    9  C   UNL     1     -12.645  12.218  70.666  1.00  0.00    -0.241 C  
BRANCH   9  10
HETATM   10  C   UNL     1     -11.771  10.963  70.617  1.00  0.00    -0.418 C  
BRANCH  10  11
HETATM   11  C   UNL     1     -11.292  10.562  69.217  1.00  0.00    -0.325 C  
BRANCH  11  12
HETATM   12  C   UNL     1     -10.046  11.333  68.766  1.00  0.00    -0.194 C  
BRANCH  12  13
HETATM   13  N   UNL     1      -9.568  10.963  67.349  1.00  0.00    -0.163 N  
HETATM   14  C   UNL     1      -8.717  12.082  66.759  1.00  0.00    -0.192 C  
HETATM   15  C   UNL     1      -8.759   9.672  67.372  1.00  0.00    -0.128 C  
BRANCH  13  16
HETATM   16  C   UNL     1     -10.851  10.749  66.476  1.00  0.00    -0.130 C  
BRANCH  16  17
HETATM   17  C   UNL     1     -11.285  11.948  65.670  1.00  0.00    -0.360 A  
HETATM   18  C   UNL     1     -11.932  13.030  66.291  1.00  0.00    -0.477 A  
HETATM   19  C   UNL     1     -12.516  14.036  65.523  1.00  0.00    -0.533 A  
HETATM   20  C   UNL     1     -12.436  13.988  64.133  1.00  0.00    -0.279 A  
HETATM   21  C   UNL     1     -11.732  12.962  63.510  1.00  0.00    -0.576 A  
HETATM   22  C   UNL     1     -11.144  11.954  64.274  1.00  0.00    -0.418 A  
ENDBRANCH  16  17
ENDBRANCH  13  16
ENDBRANCH  12  13
ENDBRANCH  11  12
ENDBRANCH  10  11
ENDBRANCH   9  10
ENDBRANCH   8   9
ENDBRANCH   7   8
ENDBRANCH   6   7
ENDBRANCH   5   6
ENDBRANCH   4   5
ENDBRANCH   3   4
ENDBRANCH   2   3
TORSDOF 13
ENDMDL
MODEL      160
REMARK 921   NORMALIZED FREE ENERGY PREDICTED BY IDOCK:   -3.69 KCAL/MOL
REMARK 922        TOTAL FREE ENERGY PREDICTED BY IDOCK:   -7.96 KCAL/MOL
REMARK 923 INTER-LIGAND FREE ENERGY PREDICTED BY IDOCK:   -6.53 KCAL/MOL
REMARK 924 INTRA-LIGAND FREE ENERGY PREDICTED BY IDOCK:   -1.43 KCAL/MOL
REMARK 927      BINDING AFFINITY PREDICTED BY RF-SCORE:    0.00 PKD
ROOT
HETATM    1  C   UNL     1     -10.457  14.935  65.203  1.00  0.00    -0.442 C  
HETATM    2  C   UNL     1     -11.313  14.137  66.172  1.00  0.00    -0.337 C  
ENDROOT
BRANCH   2   3
HETATM    3  C   UNL     1     -12.411  13.376  65.433  1.00  0.00    -0.543 C  
BRANCH   3   4
HETATM    4  C   UNL     1     -12.153  13.360  63.930  1.00  0.00    -0.514 C  
BRANCH   4   5
HETATM    5  C   UNL     1     -11.954  11.930  63.435  1.00  0.00    -0.528 C  
BRANCH   5   6
HETATM    6  C   UNL     1     -10.484  11.664  63.137  1.00  0.00    -0.368 C  
BRANCH   6   7
HETATM    7  C   UNL     1      -9.958  10.495  63.963  1.00  0.00    -0.363 C  
BRANCH   7   8
HETATM    8  C   UNL     1     -10.135  10.788  65.447  1.00  0.00    -0.347 C  
BRANCH   8   9
HETATM    9  C   UNL     1      -8.797  11.030  66.139  1.00  0.00    -0.197 C  
BRANCH   9  10
HETATM   10  C   UNL     1      -7.688  10.128  65.594  1.00  0.00    -0.143 C  
BRANCH  10  11
HETATM   11  C   UNL     1      -7.495   8.809  66.352  1.00  0.00    -0.087 C  
BRANCH  11  12
HETATM   12  C   UNL     1      -8.146   7.613  65.648  1.00  0.00    -0.127 C  
BRANCH  12  13
HETATM   13  N   UNL     1      -8.945   6.697  66.595  1.00  0.00    -0.137 N  
HETATM   14  C   UNL     1      -9.312   5.392  65.899  1.00  0.00    -0.143 C  
HETATM   15  C   UNL     1      -8.142   6.390  67.854  1.00  0.00    -0.115 C  
BRANCH  13  16
HETATM   16  C   UNL     1     -10.245   7.476  66.993  1.00  0.00    -0.298 C  
BRANCH  16  17
HETATM   17  C   UNL     1     -10.568   7.472  68.467  1.00  0.00    -0.172 A  
HETATM   18  C   UNL     1     -11.131   6.336  69.072  1.00  0.00    -0.446 A  
HETATM   19  C   UNL     1     -11.620   6.401  70.376  1.00  0.00    -0.440 A  
HETATM   20  C   UNL     1     -11.527   7.589  71.097  1.00  0.00    -0.295 A  
HETATM   21  C   UNL     1     -10.902   8.699  70.535  1.00  0.00    -0.257 A  
HETATM   22  C   UNL     1     -10.409   8.638  69.232  1.00  0.00    -0.228 A  
ENDBRANCH  16  17
ENDBRANCH  13  16
ENDBRANCH  12  13
ENDBRANCH  11  12
ENDBRANCH  10  11
ENDBRANCH   9  10
ENDBRANCH   8   9
ENDBRANCH   7   8
ENDBRANCH   6   7
ENDBRANCH   5   6
ENDBRANCH   4   5
ENDBRANCH   3   4
ENDBRANCH   2   3
TORSDOF 13
ENDMDL
MODEL      161
REMARK 921   NORMALIZED FREE ENERGY PREDICTED BY IDOCK:   -3.68 KCAL/MOL
REMARK 922        TOTAL FREE ENERGY PREDICTED BY IDOCK:   -7.95 KCAL/MOL
REMARK 923 INTER-LIGAND FREE ENERGY PREDICTED BY IDOCK:   -5.45 KCAL/MOL
REMARK 924 INTRA-LIGAND FREE ENERGY PREDICTED BY IDOCK:   -2.50 KCAL/MOL
REMARK 927      BINDING AFFINITY PREDICTED BY RF-SCORE:    0.00 PKD
ROOT
HETATM    1  C   UNL     1     -11.327   4.668  73.314  1.00  0.00    -0.393 C  
HETATM    2  C   UNL     1     -10.210   3.717  73.712  1.00  0.00    -0.208 C  
ENDROOT
BRANCH   2   3
HETATM    3  C   UNL     1      -8.894   4.467  73.900  1.00  0.00    -0.103 C  
BRANCH   3   4
HETATM    4  C   UNL     1      -7.944   4.211  72.735  1.00  0.00    -0.085 C  
BRANCH   4   5
HETATM    5  C   UNL     1      -7.611   5.515  72.016  1.00  0.00    -0.100 C  
BRANCH   5   6
HETATM    6  C   UNL     1      -7.993   5.432  70.545  1.00  0.00    -0.101 C  
BRANCH   6   7
HETATM    7  C   UNL     1      -8.861   4.208  70.270  1.00  0.00    -0.137 C  
BRANCH   7   8
HETATM    8  C   UNL     1      -9.851   4.516  69.153  1.00  0.00    -0.222 C  
BRANCH   8   9
HETATM    9  C   UNL     1     -10.539   5.861  69.362  1.00  0.00    -0.379 C  
BRANCH   9  10
HETATM   10  C   UNL     1     -11.283   6.335  68.113  1.00  0.00    -0.239 C  
BRANCH  10  11
HETATM   11  C   UNL     1     -10.586   7.453  67.328  1.00  0.00    -0.393 C  
BRANCH  11  12
HETATM   12  C   UNL     1      -9.447   8.115  68.114  1.00  0.00    -0.141 C  
BRANCH  12  13
HETATM   13  N   UNL     1      -9.446   9.653  68.024  1.00  0.00    -0.132 N  
HETATM   14  C   UNL     1      -8.243  10.145  67.229  1.00  0.00    -0.117 C  
HETATM   15  C   UNL     1     -10.726  10.156  67.367  1.00  0.00    -0.277 C  
BRANCH  13  16
HETATM   16  C   UNL     1      -9.375  10.196  69.492  1.00  0.00    -0.210 C  
BRANCH  16  17
HETATM   17  C   UNL     1     -10.141   9.388  70.511  1.00  0.00    -0.335 A  
HETATM   18  C   UNL     1     -11.540   9.489  70.596  1.00  0.00    -0.350 A  
HETATM   19  C   UNL     1     -12.224   8.910  71.664  1.00  0.00    -0.409 A  
HETATM   20  C   UNL     1     -11.524   8.202  72.639  1.00  0.00    -0.454 A  
HETATM   21  C   UNL     1     -10.148   8.031  72.523  1.00  0.00    -0.346 A  
HETATM   22  C   UNL     1      -9.459   8.607  71.456  1.00  0.00    -0.320 A  
ENDBRANCH  16  17
ENDBRANCH  13  16
ENDBRANCH  12  13
ENDBRANCH  11  12
ENDBRANCH  10  11
ENDBRANCH   9  10
ENDBRANCH   8   9
ENDBRANCH   7   8
ENDBRANCH   6   7
ENDBRANCH   5   6
ENDBRANCH   4   5
ENDBRANCH   3   4
ENDBRANCH   2   3
TORSDOF 13
ENDMDL
MODEL      162
REMARK 921   NORMALIZED FREE ENERGY PREDICTED BY IDOCK:   -3.67 KCAL/MOL
REMARK 922        TOTAL FREE ENERGY PREDICTED BY IDOCK:   -7.94 KCAL/MOL
REMARK 923 INTER-LIGAND FREE ENERGY PREDICTED BY IDOCK:   -6.08 KCAL/MOL
REMARK 924 INTRA-LIGAND FREE ENERGY PREDICTED BY IDOCK:   -1.86 KCAL/MOL
REMARK 927      BINDING AFFINITY PREDICTED BY RF-SCORE:    0.00 PKD
ROOT
HETATM    1  C   UNL     1     -10.095  13.121  67.112  1.00  0.00    -0.242 C  
HETATM    2  C   UNL     1     -11.418  12.405  66.901  1.00  0.00    -0.423 C  
ENDROOT
BRANCH   2   3
HETATM    3  C   UNL     1     -11.765  11.529  68.102  1.00  0.00    -0.357 C  
BRANCH   3   4
HETATM    4  C   UNL     1     -11.830  12.353  69.384  1.00  0.00    -0.365 C  
BRANCH   4   5
HETATM    5  C   UNL     1     -12.207  11.471  70.571  1.00  0.00    -0.469 C  
BRANCH   5   6
HETATM    6  C   UNL     1     -11.743  10.039  70.345  1.00  0.00    -0.365 C  
BRANCH   6   7
HETATM    7  C   UNL     1     -10.788   9.589  71.447  1.00  0.00    -0.382 C  
BRANCH   7   8
HETATM    8  C   UNL     1      -9.376   9.466  70.890  1.00  0.00    -0.263 C  
BRANCH   8   9
HETATM    9  C   UNL     1      -8.553   8.437  71.659  1.00  0.00    -0.223 C  
BRANCH   9  10
HETATM   10  C   UNL     1      -7.697   7.568  70.736  1.00  0.00    -0.083 C  
BRANCH  10  11
HETATM   11  C   UNL     1      -7.847   7.869  69.240  1.00  0.00    -0.115 C  
BRANCH  11  12
HETATM   12  C   UNL     1      -8.026   6.605  68.390  1.00  0.00    -0.111 C  
BRANCH  12  13
HETATM   13  N   UNL     1      -9.172   6.707  67.364  1.00  0.00    -0.121 N  
HETATM   14  C   UNL     1      -9.788   8.101  67.383  1.00  0.00    -0.184 C  
HETATM   15  C   UNL     1      -8.668   6.395  65.960  1.00  0.00    -0.151 C  
BRANCH  13  16
HETATM   16  C   UNL     1     -10.246   5.642  67.773  1.00  0.00    -0.193 C  
BRANCH  16  17
HETATM   17  C   UNL     1     -10.493   5.518  69.256  1.00  0.00    -0.336 A  
HETATM   18  C   UNL     1     -11.373   6.397  69.909  1.00  0.00    -0.500 A  
HETATM   19  C   UNL     1     -11.443   6.420  71.301  1.00  0.00    -0.371 A  
HETATM   20  C   UNL     1     -10.657   5.549  72.052  1.00  0.00    -0.284 A  
HETATM   21  C   UNL     1      -9.838   4.621  71.414  1.00  0.00    -0.264 A  
HETATM   22  C   UNL     1      -9.767   4.593  70.022  1.00  0.00    -0.277 A  
ENDBRANCH  16  17
ENDBRANCH  13  16
ENDBRANCH  12  13
ENDBRANCH  11  12
ENDBRANCH  10  11
ENDBRANCH   9  10
ENDBRANCH   8   9
ENDBRANCH   7   8
ENDBRANCH   6   7
ENDBRANCH   5   6
ENDBRANCH   4   5
ENDBRANCH   3   4
ENDBRANCH   2   3
TORSDOF 13
ENDMDL
MODEL      163
REMARK 921   NORMALIZED FREE ENERGY PREDICTED BY IDOCK:   -3.67 KCAL/MOL
REMARK 922        TOTAL FREE ENERGY PREDICTED BY IDOCK:   -7.93 KCAL/MOL
REMARK 923 INTER-LIGAND FREE ENERGY PREDICTED BY IDOCK:   -7.02 KCAL/MOL
REMARK 924 INTRA-LIGAND FREE ENERGY PREDICTED BY IDOCK:   -0.91 KCAL/MOL
REMARK 927      BINDING AFFINITY PREDICTED BY RF-SCORE:    0.00 PKD
ROOT
HETATM    1  C   UNL     1      -9.824   7.646  73.347  1.00  0.00    -0.362 C  
HETATM    2  C   UNL     1     -11.111   8.067  72.658  1.00  0.00    -0.453 C  
ENDROOT
BRANCH   2   3
HETATM    3  C   UNL     1     -10.824   9.001  71.485  1.00  0.00    -0.416 C  
BRANCH   3   4
HETATM    4  C   UNL     1     -10.865   8.249  70.159  1.00  0.00    -0.237 C  
BRANCH   4   5
HETATM    5  C   UNL     1      -9.455   8.061  69.605  1.00  0.00    -0.163 C  
BRANCH   5   6
HETATM    6  C   UNL     1      -9.189   9.038  68.468  1.00  0.00    -0.136 C  
BRANCH   6   7
HETATM    7  C   UNL     1     -10.436   9.240  67.612  1.00  0.00    -0.325 C  
BRANCH   7   8
HETATM    8  C   UNL     1     -10.740  10.727  67.485  1.00  0.00    -0.312 C  
BRANCH   8   9
HETATM    9  C   UNL     1      -9.599  11.586  68.021  1.00  0.00    -0.180 C  
BRANCH   9  10
HETATM   10  C   UNL     1      -8.875  12.351  66.912  1.00  0.00    -0.205 C  
BRANCH  10  11
HETATM   11  C   UNL     1      -8.546  13.812  67.242  1.00  0.00    -0.221 C  
BRANCH  11  12
HETATM   12  C   UNL     1      -9.571  14.459  68.181  1.00  0.00    -0.218 C  
BRANCH  12  13
HETATM   13  N   UNL     1     -10.632  15.306  67.450  1.00  0.00    -0.276 N  
HETATM   14  C   UNL     1     -10.139  15.705  66.065  1.00  0.00    -0.333 C  
HETATM   15  C   UNL     1     -11.940  14.535  67.318  1.00  0.00    -0.344 C  
BRANCH  13  16
HETATM   16  C   UNL     1     -10.875  16.585  68.322  1.00  0.00    -0.352 C  
BRANCH  16  17
HETATM   17  C   UNL     1     -10.067  17.795  67.921  1.00  0.00    -0.342 A  
HETATM   18  C   UNL     1      -8.726  17.922  68.319  1.00  0.00    -0.277 A  
HETATM   19  C   UNL     1      -8.046  19.124  68.132  1.00  0.00    -0.351 A  
HETATM   20  C   UNL     1      -8.688  20.200  67.521  1.00  0.00    -0.415 A  
HETATM   21  C   UNL     1      -9.991  20.061  67.054  1.00  0.00    -0.582 A  
HETATM   22  C   UNL     1     -10.675  18.859  67.238  1.00  0.00    -0.523 A  
ENDBRANCH  16  17
ENDBRANCH  13  16
ENDBRANCH  12  13
ENDBRANCH  11  12
ENDBRANCH  10  11
ENDBRANCH   9  10
ENDBRANCH   8   9
ENDBRANCH   7   8
ENDBRANCH   6   7
ENDBRANCH   5   6
ENDBRANCH   4   5
ENDBRANCH   3   4
ENDBRANCH   2   3
TORSDOF 13
ENDMDL
MODEL      164
REMARK 921   NORMALIZED FREE ENERGY PREDICTED BY IDOCK:   -3.67 KCAL/MOL
REMARK 922        TOTAL FREE ENERGY PREDICTED BY IDOCK:   -7.92 KCAL/MOL
REMARK 923 INTER-LIGAND FREE ENERGY PREDICTED BY IDOCK:   -5.89 KCAL/MOL
REMARK 924 INTRA-LIGAND FREE ENERGY PREDICTED BY IDOCK:   -2.03 KCAL/MOL
REMARK 927      BINDING AFFINITY PREDICTED BY RF-SCORE:    0.00 PKD
ROOT
HETATM    1  C   UNL     1     -12.204  12.584  63.430  1.00  0.00    -0.613 C  
HETATM    2  C   UNL     1     -11.022  11.633  63.341  1.00  0.00    -0.442 C  
ENDROOT
BRANCH   2   3
HETATM    3  C   UNL     1     -10.061  11.844  64.509  1.00  0.00    -0.302 C  
BRANCH   3   4
HETATM    4  C   UNL     1     -10.209  10.739  65.550  1.00  0.00    -0.330 C  
BRANCH   4   5
HETATM    5  C   UNL     1     -10.105  11.313  66.960  1.00  0.00    -0.238 C  
BRANCH   5   6
HETATM    6  C   UNL     1      -8.868  10.779  67.669  1.00  0.00    -0.132 C  
BRANCH   6   7
HETATM    7  C   UNL     1      -9.149  10.514  69.144  1.00  0.00    -0.177 C  
BRANCH   7   8
HETATM    8  C   UNL     1     -10.651  10.391  69.371  1.00  0.00    -0.267 C  
BRANCH   8   9
HETATM    9  C   UNL     1     -10.968   9.605  70.639  1.00  0.00    -0.386 C  
BRANCH   9  10
HETATM   10  C   UNL     1      -9.709   9.080  71.331  1.00  0.00    -0.369 C  
BRANCH  10  11
HETATM   11  C   UNL     1      -9.965   8.193  72.555  1.00  0.00    -0.372 C  
BRANCH  11  12
HETATM   12  C   UNL     1     -10.903   7.017  72.257  1.00  0.00    -0.230 C  
BRANCH  12  13
HETATM   13  N   UNL     1     -10.289   5.640  72.577  1.00  0.00    -0.194 N  
HETATM   14  C   UNL     1      -8.830   5.785  72.991  1.00  0.00    -0.123 C  
HETATM   15  C   UNL     1     -11.065   4.949  73.692  1.00  0.00    -0.297 C  
BRANCH  13  16
HETATM   16  C   UNL     1     -10.392   4.780  71.271  1.00  0.00    -0.113 C  
BRANCH  16  17
HETATM   17  C   UNL     1     -10.137   5.531  69.988  1.00  0.00    -0.311 A  
HETATM   18  C   UNL     1      -8.824   5.819  69.578  1.00  0.00    -0.118 A  
HETATM   19  C   UNL     1      -8.593   6.687  68.513  1.00  0.00    -0.124 A  
HETATM   20  C   UNL     1      -9.667   7.253  67.829  1.00  0.00    -0.167 A  
HETATM   21  C   UNL     1     -10.972   6.915  68.177  1.00  0.00    -0.220 A  
HETATM   22  C   UNL     1     -11.208   6.045  69.241  1.00  0.00    -0.367 A  
ENDBRANCH  16  17
ENDBRANCH  13  16
ENDBRANCH  12  13
ENDBRANCH  11  12
ENDBRANCH  10  11
ENDBRANCH   9  10
ENDBRANCH   8   9
ENDBRANCH   7   8
ENDBRANCH   6   7
ENDBRANCH   5   6
ENDBRANCH   4   5
ENDBRANCH   3   4
ENDBRANCH   2   3
TORSDOF 13
ENDMDL
MODEL      165
REMARK 921   NORMALIZED FREE ENERGY PREDICTED BY IDOCK:   -3.66 KCAL/MOL
REMARK 922        TOTAL FREE ENERGY PREDICTED BY IDOCK:   -7.92 KCAL/MOL
REMARK 923 INTER-LIGAND FREE ENERGY PREDICTED BY IDOCK:   -5.65 KCAL/MOL
REMARK 924 INTRA-LIGAND FREE ENERGY PREDICTED BY IDOCK:   -2.27 KCAL/MOL
REMARK 927      BINDING AFFINITY PREDICTED BY RF-SCORE:    0.00 PKD
ROOT
HETATM    1  C   UNL     1     -13.152  11.210  71.829  1.00  0.00    -0.536 C  
HETATM    2  C   UNL     1     -13.193   9.808  71.245  1.00  0.00    -0.452 C  
ENDROOT
BRANCH   2   3
HETATM    3  C   UNL     1     -14.136   8.911  72.042  1.00  0.00    -0.477 C  
BRANCH   3   4
HETATM    4  C   UNL     1     -13.943   7.443  71.672  1.00  0.00    -0.523 C  
BRANCH   4   5
HETATM    5  C   UNL     1     -12.513   7.192  71.203  1.00  0.00    -0.400 C  
BRANCH   5   6
HETATM    6  C   UNL     1     -11.739   6.389  72.240  1.00  0.00    -0.333 C  
BRANCH   6   7
HETATM    7  C   UNL     1     -10.987   7.307  73.198  1.00  0.00    -0.384 C  
BRANCH   7   8
HETATM    8  C   UNL     1     -10.037   6.488  74.062  1.00  0.00    -0.348 C  
BRANCH   8   9
HETATM    9  C   UNL     1      -8.788   6.072  73.291  1.00  0.00    -0.130 C  
BRANCH   9  10
HETATM   10  C   UNL     1      -8.673   4.554  73.143  1.00  0.00    -0.108 C  
BRANCH  10  11
HETATM   11  C   UNL     1      -8.918   4.021  71.727  1.00  0.00    -0.159 C  
BRANCH  11  12
HETATM   12  C   UNL     1      -7.877   4.513  70.714  1.00  0.00    -0.064 C  
BRANCH  12  13
HETATM   13  N   UNL     1      -8.466   4.828  69.325  1.00  0.00    -0.080 N  
HETATM   14  C   UNL     1      -8.032   3.781  68.306  1.00  0.00    -0.071 C  
HETATM   15  C   UNL     1      -9.989   4.876  69.383  1.00  0.00    -0.212 C  
BRANCH  13  16
HETATM   16  C   UNL     1      -7.924   6.238  68.908  1.00  0.00    -0.109 C  
BRANCH  16  17
HETATM   17  C   UNL     1      -8.734   7.408  69.408  1.00  0.00    -0.137 A  
HETATM   18  C   UNL     1      -9.812   7.904  68.656  1.00  0.00    -0.177 A  
HETATM   19  C   UNL     1     -10.425   9.105  69.009  1.00  0.00    -0.238 A  
HETATM   20  C   UNL     1      -9.987   9.808  70.130  1.00  0.00    -0.315 A  
HETATM   21  C   UNL     1      -8.971   9.288  70.927  1.00  0.00    -0.273 A  
HETATM   22  C   UNL     1      -8.356   8.085  70.578  1.00  0.00    -0.123 A  
ENDBRANCH  16  17
ENDBRANCH  13  16
ENDBRANCH  12  13
ENDBRANCH  11  12
ENDBRANCH  10  11
ENDBRANCH   9  10
ENDBRANCH   8   9
ENDBRANCH   7   8
ENDBRANCH   6   7
ENDBRANCH   5   6
ENDBRANCH   4   5
ENDBRANCH   3   4
ENDBRANCH   2   3
TORSDOF 13
ENDMDL
MODEL      166
REMARK 921   NORMALIZED FREE ENERGY PREDICTED BY IDOCK:   -3.66 KCAL/MOL
REMARK 922        TOTAL FREE ENERGY PREDICTED BY IDOCK:   -7.91 KCAL/MOL
REMARK 923 INTER-LIGAND FREE ENERGY PREDICTED BY IDOCK:   -6.39 KCAL/MOL
REMARK 924 INTRA-LIGAND FREE ENERGY PREDICTED BY IDOCK:   -1.53 KCAL/MOL
REMARK 927      BINDING AFFINITY PREDICTED BY RF-SCORE:    0.00 PKD
ROOT
HETATM    1  C   UNL     1      -9.306   4.693  74.320  1.00  0.00    -0.126 C  
HETATM    2  C   UNL     1      -9.230   5.904  73.405  1.00  0.00    -0.131 C  
ENDROOT
BRANCH   2   3
HETATM    3  C   UNL     1     -10.603   6.549  73.236  1.00  0.00    -0.301 C  
BRANCH   3   4
HETATM    4  C   UNL     1     -11.286   6.062  71.962  1.00  0.00    -0.341 C  
BRANCH   4   5
HETATM    5  C   UNL     1     -11.646   7.240  71.061  1.00  0.00    -0.329 C  
BRANCH   5   6
HETATM    6  C   UNL     1     -12.247   8.377  71.877  1.00  0.00    -0.395 C  
BRANCH   6   7
HETATM    7  C   UNL     1     -11.474   9.675  71.668  1.00  0.00    -0.376 C  
BRANCH   7   8
HETATM    8  C   UNL     1     -12.445  10.826  71.441  1.00  0.00    -0.478 C  
BRANCH   8   9
HETATM    9  C   UNL     1     -12.024  11.697  70.262  1.00  0.00    -0.445 C  
BRANCH   9  10
HETATM   10  C   UNL     1     -12.124  13.190  70.576  1.00  0.00    -0.385 C  
BRANCH  10  11
HETATM   11  C   UNL     1     -12.194  14.107  69.348  1.00  0.00    -0.329 C  
BRANCH  11  12
HETATM   12  C   UNL     1     -10.827  14.332  68.690  1.00  0.00    -0.253 C  
BRANCH  12  13
HETATM   13  N   UNL     1     -10.875  14.336  67.150  1.00  0.00    -0.292 N  
HETATM   14  C   UNL     1     -12.235  13.861  66.653  1.00  0.00    -0.424 C  
HETATM   15  C   UNL     1     -10.597  15.732  66.605  1.00  0.00    -0.307 C  
BRANCH  13  16
HETATM   16  C   UNL     1      -9.754  13.359  66.656  1.00  0.00    -0.275 C  
BRANCH  16  17
HETATM   17  C   UNL     1      -9.666  12.053  67.406  1.00  0.00    -0.185 A  
HETATM   18  C   UNL     1      -8.639  11.833  68.338  1.00  0.00    -0.156 A  
HETATM   19  C   UNL     1      -8.434  10.562  68.873  1.00  0.00    -0.152 A  
HETATM   20  C   UNL     1      -9.267   9.508  68.506  1.00  0.00    -0.131 A  
HETATM   21  C   UNL     1     -10.335   9.731  67.642  1.00  0.00    -0.281 A  
HETATM   22  C   UNL     1     -10.546  11.002  67.105  1.00  0.00    -0.294 A  
ENDBRANCH  16  17
ENDBRANCH  13  16
ENDBRANCH  12  13
ENDBRANCH  11  12
ENDBRANCH  10  11
ENDBRANCH   9  10
ENDBRANCH   8   9
ENDBRANCH   7   8
ENDBRANCH   6   7
ENDBRANCH   5   6
ENDBRANCH   4   5
ENDBRANCH   3   4
ENDBRANCH   2   3
TORSDOF 13
ENDMDL
MODEL      167
REMARK 921   NORMALIZED FREE ENERGY PREDICTED BY IDOCK:   -3.66 KCAL/MOL
REMARK 922        TOTAL FREE ENERGY PREDICTED BY IDOCK:   -7.91 KCAL/MOL
REMARK 923 INTER-LIGAND FREE ENERGY PREDICTED BY IDOCK:   -5.75 KCAL/MOL
REMARK 924 INTRA-LIGAND FREE ENERGY PREDICTED BY IDOCK:   -2.16 KCAL/MOL
REMARK 927      BINDING AFFINITY PREDICTED BY RF-SCORE:    0.00 PKD
ROOT
HETATM    1  C   UNL     1     -10.810  11.978  63.450  1.00  0.00    -0.471 C  
HETATM    2  C   UNL     1     -11.997  12.924  63.533  1.00  0.00    -0.629 C  
ENDROOT
BRANCH   2   3
HETATM    3  C   UNL     1     -12.200  13.424  64.960  1.00  0.00    -0.463 C  
BRANCH   3   4
HETATM    4  C   UNL     1     -12.013  12.296  65.971  1.00  0.00    -0.342 C  
BRANCH   4   5
HETATM    5  C   UNL     1     -11.973  12.850  67.392  1.00  0.00    -0.360 C  
BRANCH   5   6
HETATM    6  C   UNL     1     -11.809  11.724  68.404  1.00  0.00    -0.347 C  
BRANCH   6   7
HETATM    7  C   UNL     1     -11.584  12.274  69.809  1.00  0.00    -0.314 C  
BRANCH   7   8
HETATM    8  C   UNL     1     -12.474  13.488  70.038  1.00  0.00    -0.231 C  
BRANCH   8   9
HETATM    9  C   UNL     1     -11.665  14.712  70.457  1.00  0.00    -0.345 C  
BRANCH   9  10
HETATM   10  C   UNL     1     -11.633  15.789  69.372  1.00  0.00    -0.371 C  
BRANCH  10  11
HETATM   11  C   UNL     1     -10.231  16.262  68.970  1.00  0.00    -0.261 C  
BRANCH  11  12
HETATM   12  C   UNL     1      -9.231  15.109  68.820  1.00  0.00    -0.200 C  
BRANCH  12  13
HETATM   13  N   UNL     1      -8.398  15.177  67.525  1.00  0.00    -0.160 N  
HETATM   14  C   UNL     1      -9.293  15.027  66.301  1.00  0.00    -0.307 C  
HETATM   15  C   UNL     1      -7.641  16.497  67.439  1.00  0.00    -0.149 C  
BRANCH  13  16
HETATM   16  C   UNL     1      -7.368  13.997  67.582  1.00  0.00    -0.175 C  
BRANCH  16  17
HETATM   17  C   UNL     1      -7.977  12.619  67.664  1.00  0.00    -0.169 A  
HETATM   18  C   UNL     1      -7.947  11.896  68.869  1.00  0.00     0.040 A  
HETATM   19  C   UNL     1      -8.317  10.553  68.893  1.00  0.00    -0.147 A  
HETATM   20  C   UNL     1      -8.747   9.927  67.725  1.00  0.00    -0.129 A  
HETATM   21  C   UNL     1      -8.854  10.653  66.543  1.00  0.00    -0.160 A  
HETATM   22  C   UNL     1      -8.486  11.998  66.514  1.00  0.00    -0.065 A  
ENDBRANCH  16  17
ENDBRANCH  13  16
ENDBRANCH  12  13
ENDBRANCH  11  12
ENDBRANCH  10  11
ENDBRANCH   9  10
ENDBRANCH   8   9
ENDBRANCH   7   8
ENDBRANCH   6   7
ENDBRANCH   5   6
ENDBRANCH   4   5
ENDBRANCH   3   4
ENDBRANCH   2   3
TORSDOF 13
ENDMDL
MODEL      168
REMARK 921   NORMALIZED FREE ENERGY PREDICTED BY IDOCK:   -3.64 KCAL/MOL
REMARK 922        TOTAL FREE ENERGY PREDICTED BY IDOCK:   -7.87 KCAL/MOL
REMARK 923 INTER-LIGAND FREE ENERGY PREDICTED BY IDOCK:   -5.51 KCAL/MOL
REMARK 924 INTRA-LIGAND FREE ENERGY PREDICTED BY IDOCK:   -2.37 KCAL/MOL
REMARK 927      BINDING AFFINITY PREDICTED BY RF-SCORE:    0.00 PKD
ROOT
HETATM    1  C   UNL     1     -12.364   6.780  71.094  1.00  0.00    -0.386 C  
HETATM    2  C   UNL     1     -11.358   6.041  71.961  1.00  0.00    -0.345 C  
ENDROOT
BRANCH   2   3
HETATM    3  C   UNL     1     -11.069   6.816  73.244  1.00  0.00    -0.167 C  
BRANCH   3   4
HETATM    4  C   UNL     1     -10.417   8.161  72.939  1.00  0.00    -0.338 C  
BRANCH   4   5
HETATM    5  C   UNL     1      -8.900   8.064  73.065  1.00  0.00    -0.302 C  
BRANCH   5   6
HETATM    6  C   UNL     1      -8.232   8.286  71.715  1.00  0.00    -0.186 C  
BRANCH   6   7
HETATM    7  C   UNL     1      -9.050   9.236  70.846  1.00  0.00    -0.288 C  
BRANCH   7   8
HETATM    8  C   UNL     1      -9.477   8.529  69.566  1.00  0.00    -0.165 C  
BRANCH   8   9
HETATM    9  C   UNL     1     -10.612   9.267  68.864  1.00  0.00    -0.222 C  
BRANCH   9  10
HETATM   10  C   UNL     1     -11.128  10.454  69.679  1.00  0.00    -0.328 C  
BRANCH  10  11
HETATM   11  C   UNL     1     -11.738  11.591  68.851  1.00  0.00    -0.403 C  
BRANCH  11  12
HETATM   12  C   UNL     1     -11.376  11.510  67.363  1.00  0.00    -0.298 C  
BRANCH  12  13
HETATM   13  N   UNL     1     -11.280  12.885  66.674  1.00  0.00    -0.292 N  
HETATM   14  C   UNL     1     -12.392  13.049  65.645  1.00  0.00    -0.446 C  
HETATM   15  C   UNL     1     -11.368  14.009  67.698  1.00  0.00    -0.312 C  
BRANCH  13  16
HETATM   16  C   UNL     1      -9.883  12.943  65.966  1.00  0.00    -0.255 C  
BRANCH  16  17
HETATM   17  C   UNL     1      -8.759  12.269  66.713  1.00  0.00    -0.175 A  
HETATM   18  C   UNL     1      -8.312  10.993  66.331  1.00  0.00    -0.165 A  
HETATM   19  C   UNL     1      -7.425  10.285  67.141  1.00  0.00    -0.092 A  
HETATM   20  C   UNL     1      -6.954  10.854  68.322  1.00  0.00    -0.069 A  
HETATM   21  C   UNL     1      -7.330  12.148  68.672  1.00  0.00    -0.109 A  
HETATM   22  C   UNL     1      -8.216  12.861  67.864  1.00  0.00    -0.165 A  
ENDBRANCH  16  17
ENDBRANCH  13  16
ENDBRANCH  12  13
ENDBRANCH  11  12
ENDBRANCH  10  11
ENDBRANCH   9  10
ENDBRANCH   8   9
ENDBRANCH   7   8
ENDBRANCH   6   7
ENDBRANCH   5   6
ENDBRANCH   4   5
ENDBRANCH   3   4
ENDBRANCH   2   3
TORSDOF 13
ENDMDL
MODEL      169
REMARK 921   NORMALIZED FREE ENERGY PREDICTED BY IDOCK:   -3.63 KCAL/MOL
REMARK 922        TOTAL FREE ENERGY PREDICTED BY IDOCK:   -7.86 KCAL/MOL
REMARK 923 INTER-LIGAND FREE ENERGY PREDICTED BY IDOCK:   -6.35 KCAL/MOL
REMARK 924 INTRA-LIGAND FREE ENERGY PREDICTED BY IDOCK:   -1.51 KCAL/MOL
REMARK 927      BINDING AFFINITY PREDICTED BY RF-SCORE:    0.00 PKD
ROOT
HETATM    1  C   UNL     1     -11.922  15.057  69.710  1.00  0.00    -0.366 C  
HETATM    2  C   UNL     1     -11.431  15.841  68.504  1.00  0.00    -0.381 C  
ENDROOT
BRANCH   2   3
HETATM    3  C   UNL     1     -10.972  14.902  67.391  1.00  0.00    -0.314 C  
BRANCH   3   4
HETATM    4  C   UNL     1     -12.141  14.096  66.833  1.00  0.00    -0.466 C  
BRANCH   4   5
HETATM    5  C   UNL     1     -11.852  12.600  66.919  1.00  0.00    -0.425 C  
BRANCH   5   6
HETATM    6  C   UNL     1     -10.433  12.354  67.415  1.00  0.00    -0.229 C  
BRANCH   6   7
HETATM    7  C   UNL     1     -10.434  11.531  68.699  1.00  0.00    -0.224 C  
BRANCH   7   8
HETATM    8  C   UNL     1     -11.852  11.084  69.027  1.00  0.00    -0.399 C  
BRANCH   8   9
HETATM    9  C   UNL     1     -12.205  11.351  70.487  1.00  0.00    -0.478 C  
BRANCH   9  10
HETATM   10  C   UNL     1     -13.107  10.265  71.077  1.00  0.00    -0.458 C  
BRANCH  10  11
HETATM   11  C   UNL     1     -12.386   9.225  71.943  1.00  0.00    -0.454 C  
BRANCH  11  12
HETATM   12  C   UNL     1     -12.418   7.816  71.337  1.00  0.00    -0.320 C  
BRANCH  12  13
HETATM   13  N   UNL     1     -11.200   6.952  71.717  1.00  0.00    -0.243 N  
HETATM   14  C   UNL     1     -11.611   5.828  72.659  1.00  0.00    -0.253 C  
HETATM   15  C   UNL     1     -10.552   6.357  70.472  1.00  0.00    -0.239 C  
BRANCH  13  16
HETATM   16  C   UNL     1     -10.173   7.898  72.428  1.00  0.00    -0.264 C  
BRANCH  16  17
HETATM   17  C   UNL     1      -8.904   8.162  71.655  1.00  0.00    -0.202 A  
HETATM   18  C   UNL     1      -7.776   7.346  71.836  1.00  0.00    -0.085 A  
HETATM   19  C   UNL     1      -6.547   7.710  71.287  1.00  0.00    -0.041 A  
HETATM   20  C   UNL     1      -6.440   8.875  70.530  1.00  0.00    -0.046 A  
HETATM   21  C   UNL     1      -7.568   9.651  70.280  1.00  0.00    -0.175 A  
HETATM   22  C   UNL     1      -8.799   9.290  70.826  1.00  0.00    -0.282 A  
ENDBRANCH  16  17
ENDBRANCH  13  16
ENDBRANCH  12  13
ENDBRANCH  11  12
ENDBRANCH  10  11
ENDBRANCH   9  10
ENDBRANCH   8   9
ENDBRANCH   7   8
ENDBRANCH   6   7
ENDBRANCH   5   6
ENDBRANCH   4   5
ENDBRANCH   3   4
ENDBRANCH   2   3
TORSDOF 13
ENDMDL
MODEL      170
REMARK 921   NORMALIZED FREE ENERGY PREDICTED BY IDOCK:   -3.63 KCAL/MOL
REMARK 922        TOTAL FREE ENERGY PREDICTED BY IDOCK:   -7.86 KCAL/MOL
REMARK 923 INTER-LIGAND FREE ENERGY PREDICTED BY IDOCK:   -6.36 KCAL/MOL
REMARK 924 INTRA-LIGAND FREE ENERGY PREDICTED BY IDOCK:   -1.50 KCAL/MOL
REMARK 927      BINDING AFFINITY PREDICTED BY RF-SCORE:    0.00 PKD
ROOT
HETATM    1  C   UNL     1     -11.955  12.791  63.431  1.00  0.00    -0.613 C  
HETATM    2  C   UNL     1     -11.499  13.791  64.480  1.00  0.00    -0.401 C  
ENDROOT
BRANCH   2   3
HETATM    3  C   UNL     1     -12.578  14.003  65.539  1.00  0.00    -0.543 C  
BRANCH   3   4
HETATM    4  C   UNL     1     -12.047  13.693  66.935  1.00  0.00    -0.431 C  
BRANCH   4   5
HETATM    5  C   UNL     1     -11.108  12.490  66.898  1.00  0.00    -0.323 C  
BRANCH   5   6
HETATM    6  C   UNL     1     -10.152  12.518  68.083  1.00  0.00    -0.225 C  
BRANCH   6   7
HETATM    7  C   UNL     1     -10.114  11.167  68.791  1.00  0.00    -0.211 C  
BRANCH   7   8
HETATM    8  C   UNL     1     -11.135  10.226  68.166  1.00  0.00    -0.324 C  
BRANCH   8   9
HETATM    9  C   UNL     1     -10.597   8.804  68.051  1.00  0.00    -0.218 C  
BRANCH   9  10
HETATM   10  C   UNL     1      -9.138   8.694  68.498  1.00  0.00    -0.138 C  
BRANCH  10  11
HETATM   11  C   UNL     1      -8.666   7.273  68.827  1.00  0.00    -0.125 C  
BRANCH  11  12
HETATM   12  C   UNL     1      -9.787   6.382  69.376  1.00  0.00    -0.149 C  
BRANCH  12  13
HETATM   13  N   UNL     1      -9.309   5.365  70.431  1.00  0.00    -0.154 N  
HETATM   14  C   UNL     1     -10.033   4.035  70.262  1.00  0.00    -0.032 C  
HETATM   15  C   UNL     1      -7.806   5.140  70.320  1.00  0.00    -0.079 C  
BRANCH  13  16
HETATM   16  C   UNL     1      -9.634   5.978  71.836  1.00  0.00    -0.150 C  
BRANCH  16  17
HETATM   17  C   UNL     1     -10.783   6.956  71.858  1.00  0.00    -0.245 A  
HETATM   18  C   UNL     1     -12.108   6.502  71.755  1.00  0.00    -0.393 A  
HETATM   19  C   UNL     1     -13.150   7.407  71.565  1.00  0.00    -0.424 A  
HETATM   20  C   UNL     1     -12.884   8.774  71.504  1.00  0.00    -0.366 A  
HETATM   21  C   UNL     1     -11.585   9.240  71.681  1.00  0.00    -0.463 A  
HETATM   22  C   UNL     1     -10.539   8.337  71.873  1.00  0.00    -0.350 A  
ENDBRANCH  16  17
ENDBRANCH  13  16
ENDBRANCH  12  13
ENDBRANCH  11  12
ENDBRANCH  10  11
ENDBRANCH   9  10
ENDBRANCH   8   9
ENDBRANCH   7   8
ENDBRANCH   6   7
ENDBRANCH   5   6
ENDBRANCH   4   5
ENDBRANCH   3   4
ENDBRANCH   2   3
TORSDOF 13
ENDMDL
MODEL      171
REMARK 921   NORMALIZED FREE ENERGY PREDICTED BY IDOCK:   -3.63 KCAL/MOL
REMARK 922        TOTAL FREE ENERGY PREDICTED BY IDOCK:   -7.85 KCAL/MOL
REMARK 923 INTER-LIGAND FREE ENERGY PREDICTED BY IDOCK:   -6.83 KCAL/MOL
REMARK 924 INTRA-LIGAND FREE ENERGY PREDICTED BY IDOCK:   -1.03 KCAL/MOL
REMARK 927      BINDING AFFINITY PREDICTED BY RF-SCORE:    0.00 PKD
ROOT
HETATM    1  C   UNL     1     -10.416   6.187  69.352  1.00  0.00    -0.316 C  
HETATM    2  C   UNL     1      -9.215   6.678  70.143  1.00  0.00    -0.155 C  
ENDROOT
BRANCH   2   3
HETATM    3  C   UNL     1      -8.731   8.029  69.621  1.00  0.00    -0.133 C  
BRANCH   3   4
HETATM    4  C   UNL     1      -9.104   9.155  70.580  1.00  0.00    -0.284 C  
BRANCH   4   5
HETATM    5  C   UNL     1     -10.045  10.148  69.902  1.00  0.00    -0.268 C  
BRANCH   5   6
HETATM    6  C   UNL     1     -11.484   9.911  70.340  1.00  0.00    -0.372 C  
BRANCH   6   7
HETATM    7  C   UNL     1     -12.403  11.017  69.831  1.00  0.00    -0.356 C  
BRANCH   7   8
HETATM    8  C   UNL     1     -12.115  12.314  70.576  1.00  0.00    -0.371 C  
BRANCH   8   9
HETATM    9  C   UNL     1     -11.824  13.464  69.617  1.00  0.00    -0.394 C  
BRANCH   9  10
HETATM   10  C   UNL     1     -11.793  13.011  68.156  1.00  0.00    -0.381 C  
BRANCH  10  11
HETATM   11  C   UNL     1     -10.423  13.114  67.475  1.00  0.00    -0.229 C  
BRANCH  11  12
HETATM   12  C   UNL     1      -9.376  13.825  68.341  1.00  0.00    -0.190 C  
BRANCH  12  13
HETATM   13  N   UNL     1      -8.886  15.160  67.747  1.00  0.00    -0.167 N  
HETATM   14  C   UNL     1      -7.364  15.221  67.745  1.00  0.00    -0.163 C  
HETATM   15  C   UNL     1      -9.402  15.340  66.324  1.00  0.00    -0.310 C  
BRANCH  13  16
HETATM   16  C   UNL     1      -9.466  16.301  68.651  1.00  0.00    -0.228 C  
BRANCH  16  17
HETATM   17  C   UNL     1      -9.494  17.669  68.016  1.00  0.00    -0.282 A  
HETATM   18  C   UNL     1      -8.377  18.518  68.101  1.00  0.00    -0.316 A  
HETATM   19  C   UNL     1      -8.473  19.850  67.701  1.00  0.00    -0.374 A  
HETATM   20  C   UNL     1      -9.672  20.340  67.189  1.00  0.00    -0.592 A  
HETATM   21  C   UNL     1     -10.762  19.489  67.029  1.00  0.00    -0.592 A  
HETATM   22  C   UNL     1     -10.670  18.155  67.426  1.00  0.00    -0.355 A  
ENDBRANCH  16  17
ENDBRANCH  13  16
ENDBRANCH  12  13
ENDBRANCH  11  12
ENDBRANCH  10  11
ENDBRANCH   9  10
ENDBRANCH   8   9
ENDBRANCH   7   8
ENDBRANCH   6   7
ENDBRANCH   5   6
ENDBRANCH   4   5
ENDBRANCH   3   4
ENDBRANCH   2   3
TORSDOF 13
ENDMDL
MODEL      172
REMARK 921   NORMALIZED FREE ENERGY PREDICTED BY IDOCK:   -3.61 KCAL/MOL
REMARK 922        TOTAL FREE ENERGY PREDICTED BY IDOCK:   -7.83 KCAL/MOL
REMARK 923 INTER-LIGAND FREE ENERGY PREDICTED BY IDOCK:   -6.52 KCAL/MOL
REMARK 924 INTRA-LIGAND FREE ENERGY PREDICTED BY IDOCK:   -1.31 KCAL/MOL
REMARK 927      BINDING AFFINITY PREDICTED BY RF-SCORE:    0.00 PKD
ROOT
HETATM    1  C   UNL     1     -13.127  10.329  71.445  1.00  0.00    -0.512 C  
HETATM    2  C   UNL     1     -12.623   8.913  71.223  1.00  0.00    -0.309 C  
ENDROOT
BRANCH   2   3
HETATM    3  C   UNL     1     -11.490   8.577  72.190  1.00  0.00    -0.446 C  
BRANCH   3   4
HETATM    4  C   UNL     1     -10.137   8.983  71.614  1.00  0.00    -0.405 C  
BRANCH   4   5
HETATM    5  C   UNL     1      -9.842   8.205  70.335  1.00  0.00    -0.188 C  
BRANCH   5   6
HETATM    6  C   UNL     1      -9.413   9.148  69.219  1.00  0.00    -0.158 C  
BRANCH   6   7
HETATM    7  C   UNL     1     -10.357   9.053  68.024  1.00  0.00    -0.275 C  
BRANCH   7   8
HETATM    8  C   UNL     1     -11.260  10.279  67.979  1.00  0.00    -0.303 C  
BRANCH   8   9
HETATM    9  C   UNL     1     -10.495  11.557  68.310  1.00  0.00    -0.219 C  
BRANCH   9  10
HETATM   10  C   UNL     1     -11.352  12.568  69.073  1.00  0.00    -0.342 C  
BRANCH  10  11
HETATM   11  C   UNL     1     -12.030  13.631  68.200  1.00  0.00    -0.390 C  
BRANCH  11  12
HETATM   12  C   UNL     1     -11.473  13.678  66.772  1.00  0.00    -0.346 C  
BRANCH  12  13
HETATM   13  N   UNL     1     -10.673  14.959  66.462  1.00  0.00    -0.303 N  
HETATM   14  C   UNL     1     -10.990  15.465  65.061  1.00  0.00    -0.436 C  
HETATM   15  C   UNL     1     -10.988  16.051  67.478  1.00  0.00    -0.261 C  
BRANCH  13  16
HETATM   16  C   UNL     1      -9.155  14.584  66.566  1.00  0.00    -0.219 C  
BRANCH  16  17
HETATM   17  C   UNL     1      -8.255  15.690  67.059  1.00  0.00    -0.268 A  
HETATM   18  C   UNL     1      -7.856  15.739  68.405  1.00  0.00    -0.136 A  
HETATM   19  C   UNL     1      -7.203  16.864  68.907  1.00  0.00    -0.231 A  
HETATM   20  C   UNL     1      -6.917  17.937  68.065  1.00  0.00    -0.202 A  
HETATM   21  C   UNL     1      -7.240  17.868  66.713  1.00  0.00    -0.235 A  
HETATM   22  C   UNL     1      -7.891  16.744  66.207  1.00  0.00    -0.334 A  
ENDBRANCH  16  17
ENDBRANCH  13  16
ENDBRANCH  12  13
ENDBRANCH  11  12
ENDBRANCH  10  11
ENDBRANCH   9  10
ENDBRANCH   8   9
ENDBRANCH   7   8
ENDBRANCH   6   7
ENDBRANCH   5   6
ENDBRANCH   4   5
ENDBRANCH   3   4
ENDBRANCH   2   3
TORSDOF 13
ENDMDL
MODEL      173
REMARK 921   NORMALIZED FREE ENERGY PREDICTED BY IDOCK:   -3.61 KCAL/MOL
REMARK 922        TOTAL FREE ENERGY PREDICTED BY IDOCK:   -7.83 KCAL/MOL
REMARK 923 INTER-LIGAND FREE ENERGY PREDICTED BY IDOCK:   -5.85 KCAL/MOL
REMARK 924 INTRA-LIGAND FREE ENERGY PREDICTED BY IDOCK:   -1.98 KCAL/MOL
REMARK 927      BINDING AFFINITY PREDICTED BY RF-SCORE:    0.00 PKD
ROOT
HETATM    1  C   UNL     1     -13.669  13.380  72.522  1.00  0.00    -0.636 C  
HETATM    2  C   UNL     1     -13.642  14.896  72.415  1.00  0.00    -0.554 C  
ENDROOT
BRANCH   2   3
HETATM    3  C   UNL     1     -13.259  15.337  71.004  1.00  0.00    -0.546 C  
BRANCH   3   4
HETATM    4  C   UNL     1     -11.838  15.892  70.968  1.00  0.00    -0.468 C  
BRANCH   4   5
HETATM    5  C   UNL     1     -10.952  15.039  70.064  1.00  0.00    -0.268 C  
BRANCH   5   6
HETATM    6  C   UNL     1     -11.794  14.274  69.052  1.00  0.00    -0.370 C  
BRANCH   6   7
HETATM    7  C   UNL     1     -11.306  14.525  67.628  1.00  0.00    -0.354 C  
BRANCH   7   8
HETATM    8  C   UNL     1     -10.823  15.964  67.493  1.00  0.00    -0.305 C  
BRANCH   8   9
HETATM    9  C   UNL     1      -9.487  16.045  66.762  1.00  0.00    -0.250 C  
BRANCH   9  10
HETATM   10  C   UNL     1      -8.749  14.705  66.746  1.00  0.00    -0.233 C  
BRANCH  10  11
HETATM   11  C   UNL     1      -7.429  14.684  67.526  1.00  0.00    -0.217 C  
BRANCH  11  12
HETATM   12  C   UNL     1      -7.571  14.070  68.925  1.00  0.00    -0.080 C  
BRANCH  12  13
HETATM   13  N   UNL     1      -6.454  13.068  69.276  1.00  0.00    -0.105 N  
HETATM   14  C   UNL     1      -5.334  13.127  68.245  1.00  0.00    -0.089 C  
HETATM   15  C   UNL     1      -5.884  13.358  70.660  1.00  0.00    -0.159 C  
BRANCH  13  16
HETATM   16  C   UNL     1      -7.105  11.642  69.278  1.00  0.00    -0.055 C  
BRANCH  16  17
HETATM   17  C   UNL     1      -8.109  11.395  68.180  1.00  0.00    -0.137 A  
HETATM   18  C   UNL     1      -9.487  11.426  68.452  1.00  0.00    -0.194 A  
HETATM   19  C   UNL     1     -10.404  10.995  67.495  1.00  0.00    -0.233 A  
HETATM   20  C   UNL     1      -9.958  10.557  66.250  1.00  0.00    -0.276 A  
HETATM   21  C   UNL     1      -8.601  10.594  65.942  1.00  0.00    -0.177 A  
HETATM   22  C   UNL     1      -7.680  11.026  66.896  1.00  0.00    -0.140 A  
ENDBRANCH  16  17
ENDBRANCH  13  16
ENDBRANCH  12  13
ENDBRANCH  11  12
ENDBRANCH  10  11
ENDBRANCH   9  10
ENDBRANCH   8   9
ENDBRANCH   7   8
ENDBRANCH   6   7
ENDBRANCH   5   6
ENDBRANCH   4   5
ENDBRANCH   3   4
ENDBRANCH   2   3
TORSDOF 13
ENDMDL
MODEL      174
REMARK 921   NORMALIZED FREE ENERGY PREDICTED BY IDOCK:   -3.60 KCAL/MOL
REMARK 922        TOTAL FREE ENERGY PREDICTED BY IDOCK:   -7.81 KCAL/MOL
REMARK 923 INTER-LIGAND FREE ENERGY PREDICTED BY IDOCK:   -6.42 KCAL/MOL
REMARK 924 INTRA-LIGAND FREE ENERGY PREDICTED BY IDOCK:   -1.39 KCAL/MOL
REMARK 927      BINDING AFFINITY PREDICTED BY RF-SCORE:    0.00 PKD
ROOT
HETATM    1  C   UNL     1     -11.903  13.255  67.250  1.00  0.00    -0.421 C  
HETATM    2  C   UNL     1     -11.981  14.012  68.565  1.00  0.00    -0.383 C  
ENDROOT
BRANCH   2   3
HETATM    3  C   UNL     1     -11.830  13.063  69.752  1.00  0.00    -0.381 C  
BRANCH   3   4
HETATM    4  C   UNL     1     -12.498  13.632  71.000  1.00  0.00    -0.456 C  
BRANCH   4   5
HETATM    5  C   UNL     1     -13.090  12.512  71.850  1.00  0.00    -0.473 C  
BRANCH   5   6
HETATM    6  C   UNL     1     -12.757  11.151  71.254  1.00  0.00    -0.531 C  
BRANCH   6   7
HETATM    7  C   UNL     1     -13.293  10.021  72.127  1.00  0.00    -0.469 C  
BRANCH   7   8
HETATM    8  C   UNL     1     -13.619   8.809  71.263  1.00  0.00    -0.204 C  
BRANCH   8   9
HETATM    9  C   UNL     1     -12.555   7.723  71.389  1.00  0.00    -0.339 C  
BRANCH   9  10
HETATM   10  C   UNL     1     -11.767   7.826  72.696  1.00  0.00    -0.364 C  
BRANCH  10  11
HETATM   11  C   UNL     1     -10.289   7.432  72.594  1.00  0.00    -0.292 C  
BRANCH  11  12
HETATM   12  C   UNL     1     -10.087   5.971  72.172  1.00  0.00    -0.181 C  
BRANCH  12  13
HETATM   13  N   UNL     1      -9.441   5.813  70.781  1.00  0.00    -0.163 N  
HETATM   14  C   UNL     1      -8.380   4.720  70.802  1.00  0.00    -0.094 C  
HETATM   15  C   UNL     1     -10.495   5.474  69.733  1.00  0.00    -0.319 C  
BRANCH  13  16
HETATM   16  C   UNL     1      -8.785   7.190  70.424  1.00  0.00    -0.150 C  
BRANCH  16  17
HETATM   17  C   UNL     1      -9.220   7.783  69.106  1.00  0.00    -0.144 A  
HETATM   18  C   UNL     1      -8.595   7.397  67.909  1.00  0.00    -0.125 A  
HETATM   19  C   UNL     1      -8.847   8.091  66.726  1.00  0.00    -0.157 A  
HETATM   20  C   UNL     1      -9.745   9.156  66.721  1.00  0.00    -0.271 A  
HETATM   21  C   UNL     1     -10.428   9.499  67.885  1.00  0.00    -0.293 A  
HETATM   22  C   UNL     1     -10.179   8.806  69.070  1.00  0.00    -0.218 A  
ENDBRANCH  16  17
ENDBRANCH  13  16
ENDBRANCH  12  13
ENDBRANCH  11  12
ENDBRANCH  10  11
ENDBRANCH   9  10
ENDBRANCH   8   9
ENDBRANCH   7   8
ENDBRANCH   6   7
ENDBRANCH   5   6
ENDBRANCH   4   5
ENDBRANCH   3   4
ENDBRANCH   2   3
TORSDOF 13
ENDMDL
MODEL      175
REMARK 921   NORMALIZED FREE ENERGY PREDICTED BY IDOCK:   -3.60 KCAL/MOL
REMARK 922        TOTAL FREE ENERGY PREDICTED BY IDOCK:   -7.80 KCAL/MOL
REMARK 923 INTER-LIGAND FREE ENERGY PREDICTED BY IDOCK:   -5.30 KCAL/MOL
REMARK 924 INTRA-LIGAND FREE ENERGY PREDICTED BY IDOCK:   -2.50 KCAL/MOL
REMARK 927      BINDING AFFINITY PREDICTED BY RF-SCORE:    0.00 PKD
ROOT
HETATM    1  C   UNL     1     -11.110  15.356  64.791  1.00  0.00    -0.416 C  
HETATM    2  C   UNL     1     -11.796  14.091  64.303  1.00  0.00    -0.435 C  
ENDROOT
BRANCH   2   3
HETATM    3  C   UNL     1     -12.735  13.531  65.368  1.00  0.00    -0.495 C  
BRANCH   3   4
HETATM    4  C   UNL     1     -12.194  13.791  66.770  1.00  0.00    -0.440 C  
BRANCH   4   5
HETATM    5  C   UNL     1     -11.755  12.484  67.427  1.00  0.00    -0.432 C  
BRANCH   5   6
HETATM    6  C   UNL     1     -10.311  12.579  67.901  1.00  0.00    -0.219 C  
BRANCH   6   7
HETATM    7  C   UNL     1      -9.341  12.525  66.726  1.00  0.00    -0.230 C  
BRANCH   7   8
HETATM    8  C   UNL     1      -9.687  11.349  65.821  1.00  0.00    -0.263 C  
BRANCH   8   9
HETATM    9  C   UNL     1      -8.695  10.202  65.981  1.00  0.00    -0.153 C  
BRANCH   9  10
HETATM   10  C   UNL     1      -9.389   8.844  66.101  1.00  0.00    -0.301 C  
BRANCH  10  11
HETATM   11  C   UNL     1     -10.469   8.763  67.186  1.00  0.00    -0.354 C  
BRANCH  11  12
HETATM   12  C   UNL     1     -10.204   7.656  68.214  1.00  0.00    -0.195 C  
BRANCH  12  13
HETATM   13  N   UNL     1     -10.401   8.108  69.674  1.00  0.00    -0.217 N  
HETATM   14  C   UNL     1     -11.035   9.492  69.727  1.00  0.00    -0.223 C  
HETATM   15  C   UNL     1     -11.280   7.119  70.431  1.00  0.00    -0.287 C  
BRANCH  13  16
HETATM   16  C   UNL     1      -8.981   8.143  70.336  1.00  0.00    -0.146 C  
BRANCH  16  17
HETATM   17  C   UNL     1      -7.938   8.920  69.571  1.00  0.00    -0.092 A  
HETATM   18  C   UNL     1      -6.914   8.251  68.879  1.00  0.00    -0.066 A  
HETATM   19  C   UNL     1      -5.838   8.963  68.352  1.00  0.00    -0.041 A  
HETATM   20  C   UNL     1      -5.787  10.349  68.484  1.00  0.00    -0.040 A  
HETATM   21  C   UNL     1      -6.833  11.030  69.100  1.00  0.00    -0.094 A  
HETATM   22  C   UNL     1      -7.913  10.322  69.628  1.00  0.00    -0.164 A  
ENDBRANCH  16  17
ENDBRANCH  13  16
ENDBRANCH  12  13
ENDBRANCH  11  12
ENDBRANCH  10  11
ENDBRANCH   9  10
ENDBRANCH   8   9
ENDBRANCH   7   8
ENDBRANCH   6   7
ENDBRANCH   5   6
ENDBRANCH   4   5
ENDBRANCH   3   4
ENDBRANCH   2   3
TORSDOF 13
ENDMDL
MODEL      176
REMARK 921   NORMALIZED FREE ENERGY PREDICTED BY IDOCK:   -3.59 KCAL/MOL
REMARK 922        TOTAL FREE ENERGY PREDICTED BY IDOCK:   -7.79 KCAL/MOL
REMARK 923 INTER-LIGAND FREE ENERGY PREDICTED BY IDOCK:   -6.49 KCAL/MOL
REMARK 924 INTRA-LIGAND FREE ENERGY PREDICTED BY IDOCK:   -1.30 KCAL/MOL
REMARK 927      BINDING AFFINITY PREDICTED BY RF-SCORE:    0.00 PKD
ROOT
HETATM    1  C   UNL     1     -10.997   5.815  72.944  1.00  0.00    -0.312 C  
HETATM    2  C   UNL     1     -11.960   6.458  71.960  1.00  0.00    -0.375 C  
ENDROOT
BRANCH   2   3
HETATM    3  C   UNL     1     -11.211   7.042  70.765  1.00  0.00    -0.323 C  
BRANCH   3   4
HETATM    4  C   UNL     1     -11.642   6.372  69.464  1.00  0.00    -0.303 C  
BRANCH   4   5
HETATM    5  C   UNL     1     -10.565   5.408  68.974  1.00  0.00    -0.217 C  
BRANCH   5   6
HETATM    6  C   UNL     1     -10.021   5.851  67.622  1.00  0.00    -0.159 C  
BRANCH   6   7
HETATM    7  C   UNL     1     -10.721   7.116  67.135  1.00  0.00    -0.422 C  
BRANCH   7   8
HETATM    8  C   UNL     1      -9.694   8.213  66.887  1.00  0.00    -0.291 C  
BRANCH   8   9
HETATM    9  C   UNL     1      -9.531   9.120  68.102  1.00  0.00    -0.155 C  
BRANCH   9  10
HETATM   10  C   UNL     1      -8.298  10.019  67.998  1.00  0.00    -0.117 C  
BRANCH  10  11
HETATM   11  C   UNL     1      -8.566  11.513  68.212  1.00  0.00    -0.161 C  
BRANCH  11  12
HETATM   12  C   UNL     1      -9.912  11.788  68.893  1.00  0.00    -0.034 C  
BRANCH  12  13
HETATM   13  N   UNL     1     -10.650  13.019  68.331  1.00  0.00    -0.246 N  
HETATM   14  C   UNL     1     -11.170  13.897  69.463  1.00  0.00    -0.184 C  
HETATM   15  C   UNL     1      -9.727  13.840  67.438  1.00  0.00    -0.235 C  
BRANCH  13  16
HETATM   16  C   UNL     1     -11.848  12.482  67.476  1.00  0.00    -0.323 C  
BRANCH  16  17
HETATM   17  C   UNL     1     -11.604  12.439  65.988  1.00  0.00    -0.455 A  
HETATM   18  C   UNL     1     -12.283  13.318  65.127  1.00  0.00    -0.487 A  
HETATM   19  C   UNL     1     -12.219  13.141  63.746  1.00  0.00    -0.528 A  
HETATM   20  C   UNL     1     -11.455  12.107  63.210  1.00  0.00    -0.410 A  
HETATM   21  C   UNL     1     -10.716  11.277  64.050  1.00  0.00    -0.444 A  
HETATM   22  C   UNL     1     -10.777  11.451  65.432  1.00  0.00    -0.313 A  
ENDBRANCH  16  17
ENDBRANCH  13  16
ENDBRANCH  12  13
ENDBRANCH  11  12
ENDBRANCH  10  11
ENDBRANCH   9  10
ENDBRANCH   8   9
ENDBRANCH   7   8
ENDBRANCH   6   7
ENDBRANCH   5   6
ENDBRANCH   4   5
ENDBRANCH   3   4
ENDBRANCH   2   3
TORSDOF 13
ENDMDL
MODEL      177
REMARK 921   NORMALIZED FREE ENERGY PREDICTED BY IDOCK:   -3.59 KCAL/MOL
REMARK 922        TOTAL FREE ENERGY PREDICTED BY IDOCK:   -7.79 KCAL/MOL
REMARK 923 INTER-LIGAND FREE ENERGY PREDICTED BY IDOCK:   -6.92 KCAL/MOL
REMARK 924 INTRA-LIGAND FREE ENERGY PREDICTED BY IDOCK:   -0.86 KCAL/MOL
REMARK 927      BINDING AFFINITY PREDICTED BY RF-SCORE:    0.00 PKD
ROOT
HETATM    1  C   UNL     1     -12.744  15.452  73.790  1.00  0.00    -0.723 C  
HETATM    2  C   UNL     1     -13.782  15.602  72.690  1.00  0.00    -0.666 C  
ENDROOT
BRANCH   2   3
HETATM    3  C   UNL     1     -13.735  14.418  71.728  1.00  0.00    -0.504 C  
BRANCH   3   4
HETATM    4  C   UNL     1     -12.710  14.649  70.621  1.00  0.00    -0.417 C  
BRANCH   4   5
HETATM    5  C   UNL     1     -12.247  13.319  70.032  1.00  0.00    -0.345 C  
BRANCH   5   6
HETATM    6  C   UNL     1     -12.439  12.190  71.036  1.00  0.00    -0.369 C  
BRANCH   6   7
HETATM    7  C   UNL     1     -12.523  10.838  70.335  1.00  0.00    -0.430 C  
BRANCH   7   8
HETATM    8  C   UNL     1     -11.647  10.846  69.089  1.00  0.00    -0.389 C  
BRANCH   8   9
HETATM    9  C   UNL     1     -10.276  10.235  69.358  1.00  0.00    -0.255 C  
BRANCH   9  10
HETATM   10  C   UNL     1     -10.212   8.755  68.978  1.00  0.00    -0.218 C  
BRANCH  10  11
HETATM   11  C   UNL     1      -9.764   7.816  70.104  1.00  0.00    -0.183 C  
BRANCH  11  12
HETATM   12  C   UNL     1     -10.803   6.736  70.432  1.00  0.00    -0.262 C  
BRANCH  12  13
HETATM   13  N   UNL     1     -11.539   6.971  71.765  1.00  0.00    -0.267 N  
HETATM   14  C   UNL     1     -10.943   8.161  72.506  1.00  0.00    -0.369 C  
HETATM   15  C   UNL     1     -13.024   7.215  71.526  1.00  0.00    -0.383 C  
BRANCH  13  16
HETATM   16  C   UNL     1     -11.364   5.668  72.618  1.00  0.00    -0.305 C  
BRANCH  16  17
HETATM   17  C   UNL     1     -10.041   4.962  72.445  1.00  0.00    -0.240 A  
HETATM   18  C   UNL     1      -8.886   5.446  73.082  1.00  0.00    -0.119 A  
HETATM   19  C   UNL     1      -7.634   4.926  72.760  1.00  0.00    -0.092 A  
HETATM   20  C   UNL     1      -7.525   3.901  71.823  1.00  0.00    -0.056 A  
HETATM   21  C   UNL     1      -8.670   3.361  71.242  1.00  0.00    -0.122 A  
HETATM   22  C   UNL     1      -9.925   3.878  71.563  1.00  0.00    -0.209 A  
ENDBRANCH  16  17
ENDBRANCH  13  16
ENDBRANCH  12  13
ENDBRANCH  11  12
ENDBRANCH  10  11
ENDBRANCH   9  10
ENDBRANCH   8   9
ENDBRANCH   7   8
ENDBRANCH   6   7
ENDBRANCH   5   6
ENDBRANCH   4   5
ENDBRANCH   3   4
ENDBRANCH   2   3
TORSDOF 13
ENDMDL
MODEL      178
REMARK 921   NORMALIZED FREE ENERGY PREDICTED BY IDOCK:   -3.58 KCAL/MOL
REMARK 922        TOTAL FREE ENERGY PREDICTED BY IDOCK:   -7.78 KCAL/MOL
REMARK 923 INTER-LIGAND FREE ENERGY PREDICTED BY IDOCK:   -5.80 KCAL/MOL
REMARK 924 INTRA-LIGAND FREE ENERGY PREDICTED BY IDOCK:   -1.98 KCAL/MOL
REMARK 927      BINDING AFFINITY PREDICTED BY RF-SCORE:    0.00 PKD
ROOT
HETATM    1  C   UNL     1      -9.287   5.616  67.960  1.00  0.00    -0.114 C  
HETATM    2  C   UNL     1     -10.725   5.978  68.294  1.00  0.00    -0.352 C  
ENDROOT
BRANCH   2   3
HETATM    3  C   UNL     1     -10.783   7.009  69.418  1.00  0.00    -0.259 C  
BRANCH   3   4
HETATM    4  C   UNL     1      -9.883   8.204  69.116  1.00  0.00    -0.182 C  
BRANCH   4   5
HETATM    5  C   UNL     1     -10.652   9.273  68.345  1.00  0.00    -0.234 C  
BRANCH   5   6
HETATM    6  C   UNL     1     -10.236   9.283  66.880  1.00  0.00    -0.327 C  
BRANCH   6   7
HETATM    7  C   UNL     1      -8.719   9.223  66.738  1.00  0.00    -0.138 C  
BRANCH   7   8
HETATM    8  C   UNL     1      -8.217  10.465  66.013  1.00  0.00    -0.144 C  
BRANCH   8   9
HETATM    9  C   UNL     1      -7.549  11.447  66.970  1.00  0.00    -0.151 C  
BRANCH   9  10
HETATM   10  C   UNL     1      -8.558  12.363  67.665  1.00  0.00    -0.172 C  
BRANCH  10  11
HETATM   11  C   UNL     1      -8.000  13.720  68.110  1.00  0.00    -0.150 C  
BRANCH  11  12
HETATM   12  C   UNL     1      -8.451  14.877  67.209  1.00  0.00    -0.208 C  
BRANCH  12  13
HETATM   13  N   UNL     1      -9.518  15.783  67.853  1.00  0.00    -0.211 N  
HETATM   14  C   UNL     1     -10.013  15.184  69.163  1.00  0.00    -0.238 C  
HETATM   15  C   UNL     1      -8.957  17.176  68.114  1.00  0.00    -0.240 C  
BRANCH  13  16
HETATM   16  C   UNL     1     -10.702  15.890  66.832  1.00  0.00    -0.289 C  
BRANCH  16  17
HETATM   17  C   UNL     1     -11.010  14.622  66.074  1.00  0.00    -0.325 A  
HETATM   18  C   UNL     1     -11.827  13.631  66.642  1.00  0.00    -0.447 A  
HETATM   19  C   UNL     1     -11.941  12.380  66.039  1.00  0.00    -0.419 A  
HETATM   20  C   UNL     1     -11.265  12.115  64.849  1.00  0.00    -0.374 A  
HETATM   21  C   UNL     1     -10.514  13.114  64.237  1.00  0.00    -0.410 A  
HETATM   22  C   UNL     1     -10.398  14.368  64.837  1.00  0.00    -0.419 A  
ENDBRANCH  16  17
ENDBRANCH  13  16
ENDBRANCH  12  13
ENDBRANCH  11  12
ENDBRANCH  10  11
ENDBRANCH   9  10
ENDBRANCH   8   9
ENDBRANCH   7   8
ENDBRANCH   6   7
ENDBRANCH   5   6
ENDBRANCH   4   5
ENDBRANCH   3   4
ENDBRANCH   2   3
TORSDOF 13
ENDMDL
MODEL      179
REMARK 921   NORMALIZED FREE ENERGY PREDICTED BY IDOCK:   -3.58 KCAL/MOL
REMARK 922        TOTAL FREE ENERGY PREDICTED BY IDOCK:   -7.78 KCAL/MOL
REMARK 923 INTER-LIGAND FREE ENERGY PREDICTED BY IDOCK:   -6.77 KCAL/MOL
REMARK 924 INTRA-LIGAND FREE ENERGY PREDICTED BY IDOCK:   -1.01 KCAL/MOL
REMARK 927      BINDING AFFINITY PREDICTED BY RF-SCORE:    0.00 PKD
ROOT
HETATM    1  C   UNL     1      -7.141  10.929  68.295  1.00  0.00    -0.075 C  
HETATM    2  C   UNL     1      -7.673   9.916  67.295  1.00  0.00    -0.095 C  
ENDROOT
BRANCH   2   3
HETATM    3  C   UNL     1      -7.765  10.524  65.898  1.00  0.00    -0.148 C  
BRANCH   3   4
HETATM    4  C   UNL     1      -9.202  10.904  65.556  1.00  0.00    -0.232 C  
BRANCH   4   5
HETATM    5  C   UNL     1     -10.181  10.193  66.487  1.00  0.00    -0.288 C  
BRANCH   5   6
HETATM    6  C   UNL     1     -11.359  11.098  66.821  1.00  0.00    -0.119 C  
BRANCH   6   7
HETATM    7  C   UNL     1     -11.066  12.547  66.442  1.00  0.00    -0.332 C  
BRANCH   7   8
HETATM    8  C   UNL     1     -12.285  13.163  65.768  1.00  0.00    -0.514 C  
BRANCH   8   9
HETATM    9  C   UNL     1     -11.930  14.442  65.017  1.00  0.00    -0.413 C  
BRANCH   9  10
HETATM   10  C   UNL     1     -10.420  14.662  64.922  1.00  0.00    -0.415 C  
BRANCH  10  11
HETATM   11  C   UNL     1      -9.881  15.827  65.762  1.00  0.00    -0.383 C  
BRANCH  11  12
HETATM   12  C   UNL     1     -10.892  16.337  66.796  1.00  0.00    -0.125 C  
BRANCH  12  13
HETATM   13  N   UNL     1     -10.543  15.949  68.246  1.00  0.00    -0.266 N  
HETATM   14  C   UNL     1     -11.609  15.030  68.830  1.00  0.00    -0.335 C  
HETATM   15  C   UNL     1      -9.188  15.254  68.307  1.00  0.00    -0.189 C  
BRANCH  13  16
HETATM   16  C   UNL     1     -10.474  17.281  69.070  1.00  0.00    -0.309 C  
BRANCH  16  17
HETATM   17  C   UNL     1      -9.793  18.431  68.371  1.00  0.00    -0.396 A  
HETATM   18  C   UNL     1     -10.539  19.348  67.612  1.00  0.00    -0.575 A  
HETATM   19  C   UNL     1      -9.895  20.280  66.801  1.00  0.00    -0.586 A  
HETATM   20  C   UNL     1      -8.503  20.327  66.761  1.00  0.00    -0.326 A  
HETATM   21  C   UNL     1      -7.754  19.475  67.568  1.00  0.00    -0.296 A  
HETATM   22  C   UNL     1      -8.394  18.541  68.382  1.00  0.00    -0.355 A  
ENDBRANCH  16  17
ENDBRANCH  13  16
ENDBRANCH  12  13
ENDBRANCH  11  12
ENDBRANCH  10  11
ENDBRANCH   9  10
ENDBRANCH   8   9
ENDBRANCH   7   8
ENDBRANCH   6   7
ENDBRANCH   5   6
ENDBRANCH   4   5
ENDBRANCH   3   4
ENDBRANCH   2   3
TORSDOF 13
ENDMDL
MODEL      180
REMARK 921   NORMALIZED FREE ENERGY PREDICTED BY IDOCK:   -3.58 KCAL/MOL
REMARK 922        TOTAL FREE ENERGY PREDICTED BY IDOCK:   -7.78 KCAL/MOL
REMARK 923 INTER-LIGAND FREE ENERGY PREDICTED BY IDOCK:   -6.66 KCAL/MOL
REMARK 924 INTRA-LIGAND FREE ENERGY PREDICTED BY IDOCK:   -1.12 KCAL/MOL
REMARK 927      BINDING AFFINITY PREDICTED BY RF-SCORE:    0.00 PKD
ROOT
HETATM    1  C   UNL     1      -7.598   3.980  69.555  1.00  0.00    -0.053 C  
HETATM    2  C   UNL     1      -9.103   3.998  69.344  1.00  0.00    -0.191 C  
ENDROOT
BRANCH   2   3
HETATM    3  C   UNL     1      -9.779   4.974  70.304  1.00  0.00    -0.285 C  
BRANCH   3   4
HETATM    4  C   UNL     1      -9.990   6.334  69.646  1.00  0.00    -0.201 C  
BRANCH   4   5
HETATM    5  C   UNL     1     -11.195   6.296  68.711  1.00  0.00    -0.357 C  
BRANCH   5   6
HETATM    6  C   UNL     1     -10.800   6.734  67.306  1.00  0.00    -0.443 C  
BRANCH   6   7
HETATM    7  C   UNL     1      -9.795   7.880  67.349  1.00  0.00    -0.237 C  
BRANCH   7   8
HETATM    8  C   UNL     1     -10.370   9.099  66.638  1.00  0.00    -0.289 C  
BRANCH   8   9
HETATM    9  C   UNL     1      -9.288   9.889  65.908  1.00  0.00    -0.245 C  
BRANCH   9  10
HETATM   10  C   UNL     1      -9.862  10.789  64.813  1.00  0.00    -0.358 C  
BRANCH  10  11
HETATM   11  C   UNL     1     -10.722  11.954  65.317  1.00  0.00    -0.331 C  
BRANCH  11  12
HETATM   12  C   UNL     1      -9.900  13.051  66.006  1.00  0.00    -0.255 C  
BRANCH  12  13
HETATM   13  N   UNL     1     -10.759  14.091  66.752  1.00  0.00    -0.284 N  
HETATM   14  C   UNL     1     -10.527  15.486  66.186  1.00  0.00    -0.313 C  
HETATM   15  C   UNL     1     -12.239  13.743  66.648  1.00  0.00    -0.409 C  
BRANCH  13  16
HETATM   16  C   UNL     1     -10.326  14.045  68.257  1.00  0.00    -0.247 C  
BRANCH  16  17
HETATM   17  C   UNL     1     -11.146  13.130  69.132  1.00  0.00    -0.248 A  
HETATM   18  C   UNL     1     -12.054  13.658  70.065  1.00  0.00    -0.417 A  
HETATM   19  C   UNL     1     -12.653  12.830  71.012  1.00  0.00    -0.362 A  
HETATM   20  C   UNL     1     -12.376  11.465  71.020  1.00  0.00    -0.448 A  
HETATM   21  C   UNL     1     -11.538  10.917  70.052  1.00  0.00    -0.424 A  
HETATM   22  C   UNL     1     -10.937  11.742  69.102  1.00  0.00    -0.261 A  
ENDBRANCH  16  17
ENDBRANCH  13  16
ENDBRANCH  12  13
ENDBRANCH  11  12
ENDBRANCH  10  11
ENDBRANCH   9  10
ENDBRANCH   8   9
ENDBRANCH   7   8
ENDBRANCH   6   7
ENDBRANCH   5   6
ENDBRANCH   4   5
ENDBRANCH   3   4
ENDBRANCH   2   3
TORSDOF 13
ENDMDL
MODEL      181
REMARK 921   NORMALIZED FREE ENERGY PREDICTED BY IDOCK:   -3.58 KCAL/MOL
REMARK 922        TOTAL FREE ENERGY PREDICTED BY IDOCK:   -7.77 KCAL/MOL
REMARK 923 INTER-LIGAND FREE ENERGY PREDICTED BY IDOCK:   -7.02 KCAL/MOL
REMARK 924 INTRA-LIGAND FREE ENERGY PREDICTED BY IDOCK:   -0.75 KCAL/MOL
REMARK 927      BINDING AFFINITY PREDICTED BY RF-SCORE:    0.00 PKD
ROOT
HETATM    1  C   UNL     1     -12.302  14.645  71.776  1.00  0.00    -0.415 C  
HETATM    2  C   UNL     1     -11.414  15.577  70.969  1.00  0.00    -0.426 C  
ENDROOT
BRANCH   2   3
HETATM    3  C   UNL     1     -10.962  14.914  69.670  1.00  0.00    -0.294 C  
BRANCH   3   4
HETATM    4  C   UNL     1     -11.864  15.312  68.506  1.00  0.00    -0.305 C  
BRANCH   4   5
HETATM    5  C   UNL     1     -11.878  14.221  67.439  1.00  0.00    -0.441 C  
BRANCH   5   6
HETATM    6  C   UNL     1     -10.537  13.500  67.390  1.00  0.00    -0.254 C  
BRANCH   6   7
HETATM    7  C   UNL     1     -10.727  11.989  67.314  1.00  0.00    -0.269 C  
BRANCH   7   8
HETATM    8  C   UNL     1     -11.833  11.558  68.268  1.00  0.00    -0.327 C  
BRANCH   8   9
HETATM    9  C   UNL     1     -11.304  11.331  69.681  1.00  0.00    -0.359 C  
BRANCH   9  10
HETATM   10  C   UNL     1     -12.422  11.303  70.725  1.00  0.00    -0.471 C  
BRANCH  10  11
HETATM   11  C   UNL     1     -12.548   9.988  71.503  1.00  0.00    -0.525 C  
BRANCH  11  12
HETATM   12  C   UNL     1     -11.570   8.910  71.020  1.00  0.00    -0.293 C  
BRANCH  12  13
HETATM   13  N   UNL     1     -12.002   7.475  71.381  1.00  0.00    -0.297 N  
HETATM   14  C   UNL     1     -13.511   7.404  71.584  1.00  0.00    -0.366 C  
HETATM   15  C   UNL     1     -11.592   6.497  70.286  1.00  0.00    -0.409 C  
BRANCH  13  16
HETATM   16  C   UNL     1     -11.264   7.097  72.710  1.00  0.00    -0.275 C  
BRANCH  16  17
HETATM   17  C   UNL     1     -10.466   5.818  72.657  1.00  0.00    -0.243 A  
HETATM   18  C   UNL     1      -9.217   5.781  72.016  1.00  0.00    -0.156 A  
HETATM   19  C   UNL     1      -8.579   4.564  71.784  1.00  0.00    -0.125 A  
HETATM   20  C   UNL     1      -9.166   3.376  72.214  1.00  0.00    -0.159 A  
HETATM   21  C   UNL     1     -10.366   3.406  72.919  1.00  0.00    -0.248 A  
HETATM   22  C   UNL     1     -11.008   4.622  73.154  1.00  0.00    -0.364 A  
ENDBRANCH  16  17
ENDBRANCH  13  16
ENDBRANCH  12  13
ENDBRANCH  11  12
ENDBRANCH  10  11
ENDBRANCH   9  10
ENDBRANCH   8   9
ENDBRANCH   7   8
ENDBRANCH   6   7
ENDBRANCH   5   6
ENDBRANCH   4   5
ENDBRANCH   3   4
ENDBRANCH   2   3
TORSDOF 13
ENDMDL
MODEL      182
REMARK 921   NORMALIZED FREE ENERGY PREDICTED BY IDOCK:   -3.58 KCAL/MOL
REMARK 922        TOTAL FREE ENERGY PREDICTED BY IDOCK:   -7.77 KCAL/MOL
REMARK 923 INTER-LIGAND FREE ENERGY PREDICTED BY IDOCK:   -6.80 KCAL/MOL
REMARK 924 INTRA-LIGAND FREE ENERGY PREDICTED BY IDOCK:   -0.96 KCAL/MOL
REMARK 927      BINDING AFFINITY PREDICTED BY RF-SCORE:    0.00 PKD
ROOT
HETATM    1  C   UNL     1     -12.063  12.356  63.538  1.00  0.00    -0.651 C  
HETATM    2  C   UNL     1     -12.528  12.631  64.958  1.00  0.00    -0.556 C  
ENDROOT
BRANCH   2   3
HETATM    3  C   UNL     1     -12.525  14.129  65.255  1.00  0.00    -0.474 C  
BRANCH   3   4
HETATM    4  C   UNL     1     -11.204  14.769  64.838  1.00  0.00    -0.411 C  
BRANCH   4   5
HETATM    5  C   UNL     1     -10.650  15.639  65.963  1.00  0.00    -0.336 C  
BRANCH   5   6
HETATM    6  C   UNL     1     -10.870  14.973  67.315  1.00  0.00    -0.310 C  
BRANCH   6   7
HETATM    7  C   UNL     1      -9.643  14.171  67.739  1.00  0.00    -0.219 C  
BRANCH   7   8
HETATM    8  C   UNL     1     -10.000  12.694  67.839  1.00  0.00    -0.228 C  
BRANCH   8   9
HETATM    9  C   UNL     1      -9.553  11.919  66.603  1.00  0.00    -0.220 C  
BRANCH   9  10
HETATM   10  C   UNL     1     -10.106  10.494  66.577  1.00  0.00    -0.280 C  
BRANCH  10  11
HETATM   11  C   UNL     1      -9.905   9.697  67.871  1.00  0.00    -0.182 C  
BRANCH  11  12
HETATM   12  C   UNL     1     -10.482   8.278  67.797  1.00  0.00    -0.215 C  
BRANCH  12  13
HETATM   13  N   UNL     1     -10.242   7.445  69.071  1.00  0.00    -0.194 N  
HETATM   14  C   UNL     1     -10.794   6.035  68.904  1.00  0.00    -0.331 C  
HETATM   15  C   UNL     1      -8.754   7.370  69.395  1.00  0.00    -0.137 C  
BRANCH  13  16
HETATM   16  C   UNL     1     -10.985   8.176  70.240  1.00  0.00    -0.240 C  
BRANCH  16  17
HETATM   17  C   UNL     1     -10.661   7.667  71.623  1.00  0.00    -0.233 A  
HETATM   18  C   UNL     1      -9.690   8.308  72.410  1.00  0.00    -0.373 A  
HETATM   19  C   UNL     1      -9.241   7.721  73.592  1.00  0.00    -0.344 A  
HETATM   20  C   UNL     1      -9.776   6.506  74.014  1.00  0.00    -0.269 A  
HETATM   21  C   UNL     1     -10.793   5.899  73.282  1.00  0.00    -0.291 A  
HETATM   22  C   UNL     1     -11.246   6.484  72.099  1.00  0.00    -0.308 A  
ENDBRANCH  16  17
ENDBRANCH  13  16
ENDBRANCH  12  13
ENDBRANCH  11  12
ENDBRANCH  10  11
ENDBRANCH   9  10
ENDBRANCH   8   9
ENDBRANCH   7   8
ENDBRANCH   6   7
ENDBRANCH   5   6
ENDBRANCH   4   5
ENDBRANCH   3   4
ENDBRANCH   2   3
TORSDOF 13
ENDMDL
MODEL      183
REMARK 921   NORMALIZED FREE ENERGY PREDICTED BY IDOCK:   -3.57 KCAL/MOL
REMARK 922        TOTAL FREE ENERGY PREDICTED BY IDOCK:   -7.76 KCAL/MOL
REMARK 923 INTER-LIGAND FREE ENERGY PREDICTED BY IDOCK:   -6.45 KCAL/MOL
REMARK 924 INTRA-LIGAND FREE ENERGY PREDICTED BY IDOCK:   -1.31 KCAL/MOL
REMARK 927      BINDING AFFINITY PREDICTED BY RF-SCORE:    0.00 PKD
ROOT
HETATM    1  C   UNL     1     -12.234  14.687  70.243  1.00  0.00    -0.389 C  
HETATM    2  C   UNL     1     -11.672  14.406  68.859  1.00  0.00    -0.357 C  
ENDROOT
BRANCH   2   3
HETATM    3  C   UNL     1     -11.192  15.692  68.192  1.00  0.00    -0.345 C  
BRANCH   3   4
HETATM    4  C   UNL     1     -10.095  15.406  67.171  1.00  0.00    -0.245 C  
BRANCH   4   5
HETATM    5  C   UNL     1     -10.532  15.843  65.776  1.00  0.00    -0.386 C  
BRANCH   5   6
HETATM    6  C   UNL     1     -10.741  14.634  64.875  1.00  0.00    -0.447 C  
BRANCH   6   7
HETATM    7  C   UNL     1     -12.205  14.204  64.861  1.00  0.00    -0.451 C  
BRANCH   7   8
HETATM    8  C   UNL     1     -12.365  12.887  65.609  1.00  0.00    -0.482 C  
BRANCH   8   9
HETATM    9  C   UNL     1     -11.187  11.950  65.363  1.00  0.00    -0.351 C  
BRANCH   9  10
HETATM   10  C   UNL     1     -10.388  11.670  66.638  1.00  0.00    -0.257 C  
BRANCH  10  11
HETATM   11  C   UNL     1     -11.038  10.669  67.601  1.00  0.00    -0.385 C  
BRANCH  11  12
HETATM   12  C   UNL     1     -10.340  10.612  68.965  1.00  0.00    -0.218 C  
BRANCH  12  13
HETATM   13  N   UNL     1      -9.676   9.253  69.263  1.00  0.00    -0.165 N  
HETATM   14  C   UNL     1      -8.560   8.969  68.265  1.00  0.00    -0.130 C  
HETATM   15  C   UNL     1      -9.107   9.229  70.677  1.00  0.00    -0.253 C  
BRANCH  13  16
HETATM   16  C   UNL     1     -10.794   8.162  69.141  1.00  0.00    -0.016 C  
BRANCH  16  17
HETATM   17  C   UNL     1     -10.376   6.893  68.442  1.00  0.00    -0.213 A  
HETATM   18  C   UNL     1     -10.788   6.635  67.124  1.00  0.00    -0.471 A  
HETATM   19  C   UNL     1     -10.581   5.380  66.553  1.00  0.00    -0.353 A  
HETATM   20  C   UNL     1      -9.937   4.381  67.281  1.00  0.00    -0.164 A  
HETATM   21  C   UNL     1      -9.456   4.649  68.559  1.00  0.00    -0.206 A  
HETATM   22  C   UNL     1      -9.660   5.904  69.133  1.00  0.00    -0.166 A  
ENDBRANCH  16  17
ENDBRANCH  13  16
ENDBRANCH  12  13
ENDBRANCH  11  12
ENDBRANCH  10  11
ENDBRANCH   9  10
ENDBRANCH   8   9
ENDBRANCH   7   8
ENDBRANCH   6   7
ENDBRANCH   5   6
ENDBRANCH   4   5
ENDBRANCH   3   4
ENDBRANCH   2   3
TORSDOF 13
ENDMDL
MODEL      184
REMARK 921   NORMALIZED FREE ENERGY PREDICTED BY IDOCK:   -3.52 KCAL/MOL
REMARK 922        TOTAL FREE ENERGY PREDICTED BY IDOCK:   -7.66 KCAL/MOL
REMARK 923 INTER-LIGAND FREE ENERGY PREDICTED BY IDOCK:   -6.97 KCAL/MOL
REMARK 924 INTRA-LIGAND FREE ENERGY PREDICTED BY IDOCK:   -0.69 KCAL/MOL
REMARK 927      BINDING AFFINITY PREDICTED BY RF-SCORE:    0.00 PKD
ROOT
HETATM    1  C   UNL     1      -9.680   5.793  68.909  1.00  0.00    -0.174 C  
HETATM    2  C   UNL     1     -11.015   6.297  68.389  1.00  0.00    -0.409 C  
ENDROOT
BRANCH   2   3
HETATM    3  C   UNL     1     -10.846   7.015  67.052  1.00  0.00    -0.413 C  
BRANCH   3   4
HETATM    4  C   UNL     1      -9.374   7.106  66.659  1.00  0.00    -0.207 C  
BRANCH   4   5
HETATM    5  C   UNL     1      -9.103   8.395  65.889  1.00  0.00    -0.225 C  
BRANCH   5   6
HETATM    6  C   UNL     1     -10.209   9.412  66.136  1.00  0.00    -0.264 C  
BRANCH   6   7
HETATM    7  C   UNL     1      -9.986  10.679  65.315  1.00  0.00    -0.356 C  
BRANCH   7   8
HETATM    8  C   UNL     1     -11.056  11.709  65.651  1.00  0.00    -0.308 C  
BRANCH   8   9
HETATM    9  C   UNL     1     -11.573  12.415  64.402  1.00  0.00    -0.418 C  
BRANCH   9  10
HETATM   10  C   UNL     1     -11.508  13.938  64.524  1.00  0.00    -0.393 C  
BRANCH  10  11
HETATM   11  C   UNL     1     -10.259  14.478  65.233  1.00  0.00    -0.431 C  
BRANCH  11  12
HETATM   12  C   UNL     1     -10.394  15.949  65.645  1.00  0.00    -0.390 C  
BRANCH  12  13
HETATM   13  N   UNL     1      -9.866  16.245  67.062  1.00  0.00    -0.239 N  
HETATM   14  C   UNL     1      -9.129  15.036  67.625  1.00  0.00    -0.182 C  
HETATM   15  C   UNL     1      -8.928  17.447  67.049  1.00  0.00    -0.242 C  
BRANCH  13  16
HETATM   16  C   UNL     1     -11.112  16.575  67.953  1.00  0.00    -0.229 C  
BRANCH  16  17
HETATM   17  C   UNL     1     -11.588  15.446  68.832  1.00  0.00    -0.369 A  
HETATM   18  C   UNL     1     -11.604  15.586  70.230  1.00  0.00    -0.355 A  
HETATM   19  C   UNL     1     -11.841  14.482  71.046  1.00  0.00    -0.350 A  
HETATM   20  C   UNL     1     -12.093  13.235  70.478  1.00  0.00    -0.391 A  
HETATM   21  C   UNL     1     -12.155  13.100  69.094  1.00  0.00    -0.261 A  
HETATM   22  C   UNL     1     -11.920  14.202  68.273  1.00  0.00    -0.367 A  
ENDBRANCH  16  17
ENDBRANCH  13  16
ENDBRANCH  12  13
ENDBRANCH  11  12
ENDBRANCH  10  11
ENDBRANCH   9  10
ENDBRANCH   8   9
ENDBRANCH   7   8
ENDBRANCH   6   7
ENDBRANCH   5   6
ENDBRANCH   4   5
ENDBRANCH   3   4
ENDBRANCH   2   3
TORSDOF 13
ENDMDL
MODEL      185
REMARK 921   NORMALIZED FREE ENERGY PREDICTED BY IDOCK:   -3.51 KCAL/MOL
REMARK 922        TOTAL FREE ENERGY PREDICTED BY IDOCK:   -7.66 KCAL/MOL
REMARK 923 INTER-LIGAND FREE ENERGY PREDICTED BY IDOCK:   -6.16 KCAL/MOL
REMARK 924 INTRA-LIGAND FREE ENERGY PREDICTED BY IDOCK:   -1.50 KCAL/MOL
REMARK 927      BINDING AFFINITY PREDICTED BY RF-SCORE:    0.00 PKD
ROOT
HETATM    1  C   UNL     1     -10.354  13.626  64.749  1.00  0.00    -0.414 C  
HETATM    2  C   UNL     1     -10.411  12.589  63.640  1.00  0.00    -0.418 C  
ENDROOT
BRANCH   2   3
HETATM    3  C   UNL     1     -10.925  11.251  64.167  1.00  0.00    -0.376 C  
BRANCH   3   4
HETATM    4  C   UNL     1      -9.782  10.399  64.710  1.00  0.00    -0.383 C  
BRANCH   4   5
HETATM    5  C   UNL     1      -9.527  10.716  66.181  1.00  0.00    -0.218 C  
BRANCH   5   6
HETATM    6  C   UNL     1     -10.697  10.258  67.041  1.00  0.00    -0.281 C  
BRANCH   6   7
HETATM    7  C   UNL     1     -11.471  11.448  67.599  1.00  0.00    -0.348 C  
BRANCH   7   8
HETATM    8  C   UNL     1     -10.510  12.423  68.266  1.00  0.00    -0.234 C  
BRANCH   8   9
HETATM    9  C   UNL     1     -11.194  13.226  69.368  1.00  0.00    -0.220 C  
BRANCH   9  10
HETATM   10  C   UNL     1     -12.141  14.290  68.811  1.00  0.00    -0.300 C  
BRANCH  10  11
HETATM   11  C   UNL     1     -11.515  15.242  67.785  1.00  0.00    -0.312 C  
BRANCH  11  12
HETATM   12  C   UNL     1     -10.745  16.399  68.434  1.00  0.00    -0.327 C  
BRANCH  12  13
HETATM   13  N   UNL     1     -10.118  17.372  67.417  1.00  0.00    -0.310 N  
HETATM   14  C   UNL     1     -10.307  16.859  65.994  1.00  0.00    -0.325 C  
HETATM   15  C   UNL     1     -10.740  18.758  67.541  1.00  0.00    -0.411 C  
BRANCH  13  16
HETATM   16  C   UNL     1      -8.590  17.463  67.754  1.00  0.00    -0.227 C  
BRANCH  16  17
HETATM   17  C   UNL     1      -7.920  16.144  68.049  1.00  0.00    -0.150 A  
HETATM   18  C   UNL     1      -7.951  15.102  67.107  1.00  0.00    -0.248 A  
HETATM   19  C   UNL     1      -7.519  13.823  67.457  1.00  0.00    -0.182 A  
HETATM   20  C   UNL     1      -7.027  13.580  68.737  1.00  0.00    -0.102 A  
HETATM   21  C   UNL     1      -6.920  14.622  69.654  1.00  0.00    -0.149 A  
HETATM   22  C   UNL     1      -7.349  15.903  69.308  1.00  0.00    -0.221 A  
ENDBRANCH  16  17
ENDBRANCH  13  16
ENDBRANCH  12  13
ENDBRANCH  11  12
ENDBRANCH  10  11
ENDBRANCH   9  10
ENDBRANCH   8   9
ENDBRANCH   7   8
ENDBRANCH   6   7
ENDBRANCH   5   6
ENDBRANCH   4   5
ENDBRANCH   3   4
ENDBRANCH   2   3
TORSDOF 13
ENDMDL
MODEL      186
REMARK 921   NORMALIZED FREE ENERGY PREDICTED BY IDOCK:   -3.51 KCAL/MOL
REMARK 922        TOTAL FREE ENERGY PREDICTED BY IDOCK:   -7.65 KCAL/MOL
REMARK 923 INTER-LIGAND FREE ENERGY PREDICTED BY IDOCK:   -6.17 KCAL/MOL
REMARK 924 INTRA-LIGAND FREE ENERGY PREDICTED BY IDOCK:   -1.48 KCAL/MOL
REMARK 927      BINDING AFFINITY PREDICTED BY RF-SCORE:    0.00 PKD
ROOT
HETATM    1  C   UNL     1     -10.733  10.141  68.066  1.00  0.00    -0.305 C  
HETATM    2  C   UNL     1     -10.111  11.130  67.096  1.00  0.00    -0.223 C  
ENDROOT
BRANCH   2   3
HETATM    3  C   UNL     1     -11.075  12.273  66.785  1.00  0.00    -0.345 C  
BRANCH   3   4
HETATM    4  C   UNL     1     -10.813  13.474  67.688  1.00  0.00    -0.273 C  
BRANCH   4   5
HETATM    5  C   UNL     1     -12.015  13.740  68.590  1.00  0.00    -0.401 C  
BRANCH   5   6
HETATM    6  C   UNL     1     -11.564  14.258  69.949  1.00  0.00    -0.337 C  
BRANCH   6   7
HETATM    7  C   UNL     1     -12.371  13.623  71.077  1.00  0.00    -0.436 C  
BRANCH   7   8
HETATM    8  C   UNL     1     -12.410  12.111  70.897  1.00  0.00    -0.370 C  
BRANCH   8   9
HETATM    9  C   UNL     1     -13.377  11.451  71.876  1.00  0.00    -0.409 C  
BRANCH   9  10
HETATM   10  C   UNL     1     -13.238   9.928  71.893  1.00  0.00    -0.558 C  
BRANCH  10  11
HETATM   11  C   UNL     1     -11.881   9.395  71.419  1.00  0.00    -0.447 C  
BRANCH  11  12
HETATM   12  C   UNL     1     -11.253   8.398  72.401  1.00  0.00    -0.368 C  
BRANCH  12  13
HETATM   13  N   UNL     1     -10.813   7.076  71.742  1.00  0.00    -0.221 N  
HETATM   14  C   UNL     1     -11.523   5.892  72.387  1.00  0.00    -0.306 C  
HETATM   15  C   UNL     1     -11.112   7.092  70.248  1.00  0.00    -0.285 C  
BRANCH  13  16
HETATM   16  C   UNL     1      -9.266   6.953  71.955  1.00  0.00    -0.141 C  
BRANCH  16  17
HETATM   17  C   UNL     1      -8.420   7.589  70.879  1.00  0.00    -0.125 A  
HETATM   18  C   UNL     1      -8.039   8.938  70.974  1.00  0.00    -0.205 A  
HETATM   19  C   UNL     1      -7.441   9.580  69.891  1.00  0.00    -0.113 A  
HETATM   20  C   UNL     1      -7.191   8.876  68.715  1.00  0.00    -0.075 A  
HETATM   21  C   UNL     1      -7.494   7.519  68.636  1.00  0.00    -0.101 A  
HETATM   22  C   UNL     1      -8.091   6.873  69.718  1.00  0.00    -0.126 A  
ENDBRANCH  16  17
ENDBRANCH  13  16
ENDBRANCH  12  13
ENDBRANCH  11  12
ENDBRANCH  10  11
ENDBRANCH   9  10
ENDBRANCH   8   9
ENDBRANCH   7   8
ENDBRANCH   6   7
ENDBRANCH   5   6
ENDBRANCH   4   5
ENDBRANCH   3   4
ENDBRANCH   2   3
TORSDOF 13
ENDMDL
MODEL      187
REMARK 921   NORMALIZED FREE ENERGY PREDICTED BY IDOCK:   -3.50 KCAL/MOL
REMARK 922        TOTAL FREE ENERGY PREDICTED BY IDOCK:   -7.63 KCAL/MOL
REMARK 923 INTER-LIGAND FREE ENERGY PREDICTED BY IDOCK:   -6.93 KCAL/MOL
REMARK 924 INTRA-LIGAND FREE ENERGY PREDICTED BY IDOCK:   -0.70 KCAL/MOL
REMARK 927      BINDING AFFINITY PREDICTED BY RF-SCORE:    0.00 PKD
ROOT
HETATM    1  C   UNL     1      -6.816   8.999  65.435  1.00  0.00    -0.073 C  
HETATM    2  C   UNL     1      -7.296   8.195  66.631  1.00  0.00    -0.082 C  
ENDROOT
BRANCH   2   3
HETATM    3  C   UNL     1      -8.773   8.463  66.913  1.00  0.00    -0.137 C  
BRANCH   3   4
HETATM    4  C   UNL     1      -9.508   8.881  65.644  1.00  0.00    -0.230 C  
BRANCH   4   5
HETATM    5  C   UNL     1     -10.347  10.131  65.897  1.00  0.00    -0.221 C  
BRANCH   5   6
HETATM    6  C   UNL     1      -9.776  11.324  65.142  1.00  0.00    -0.285 C  
BRANCH   6   7
HETATM    7  C   UNL     1     -10.267  11.348  63.698  1.00  0.00    -0.448 C  
BRANCH   7   8
HETATM    8  C   UNL     1     -11.730  11.770  63.655  1.00  0.00    -0.517 C  
BRANCH   8   9
HETATM    9  C   UNL     1     -11.914  13.218  64.099  1.00  0.00    -0.505 C  
BRANCH   9  10
HETATM   10  C   UNL     1     -12.820  13.342  65.324  1.00  0.00    -0.368 C  
BRANCH  10  11
HETATM   11  C   UNL     1     -12.094  13.299  66.674  1.00  0.00    -0.421 C  
BRANCH  11  12
HETATM   12  C   UNL     1     -12.049  14.663  67.374  1.00  0.00    -0.183 C  
BRANCH  12  13
HETATM   13  N   UNL     1     -10.627  15.241  67.512  1.00  0.00    -0.267 N  
HETATM   14  C   UNL     1      -9.655  14.169  67.990  1.00  0.00    -0.218 C  
HETATM   15  C   UNL     1     -10.143  15.806  66.182  1.00  0.00    -0.318 C  
BRANCH  13  16
HETATM   16  C   UNL     1     -10.706  16.400  68.563  1.00  0.00    -0.320 C  
BRANCH  16  17
HETATM   17  C   UNL     1     -10.100  17.709  68.121  1.00  0.00    -0.347 A  
HETATM   18  C   UNL     1     -10.907  18.721  67.574  1.00  0.00    -0.396 A  
HETATM   19  C   UNL     1     -10.327  19.838  66.976  1.00  0.00    -0.593 A  
HETATM   20  C   UNL     1      -8.940  19.970  66.942  1.00  0.00    -0.449 A  
HETATM   21  C   UNL     1      -8.133  19.011  67.547  1.00  0.00    -0.292 A  
HETATM   22  C   UNL     1      -8.709  17.892  68.149  1.00  0.00    -0.268 A  
ENDBRANCH  16  17
ENDBRANCH  13  16
ENDBRANCH  12  13
ENDBRANCH  11  12
ENDBRANCH  10  11
ENDBRANCH   9  10
ENDBRANCH   8   9
ENDBRANCH   7   8
ENDBRANCH   6   7
ENDBRANCH   5   6
ENDBRANCH   4   5
ENDBRANCH   3   4
ENDBRANCH   2   3
TORSDOF 13
ENDMDL
MODEL      188
REMARK 921   NORMALIZED FREE ENERGY PREDICTED BY IDOCK:   -3.50 KCAL/MOL
REMARK 922        TOTAL FREE ENERGY PREDICTED BY IDOCK:   -7.63 KCAL/MOL
REMARK 923 INTER-LIGAND FREE ENERGY PREDICTED BY IDOCK:   -6.62 KCAL/MOL
REMARK 924 INTRA-LIGAND FREE ENERGY PREDICTED BY IDOCK:   -1.01 KCAL/MOL
REMARK 927      BINDING AFFINITY PREDICTED BY RF-SCORE:    0.00 PKD
ROOT
HETATM    1  C   UNL     1     -11.569  12.205  63.479  1.00  0.00    -0.562 C  
HETATM    2  C   UNL     1     -10.128  11.779  63.255  1.00  0.00    -0.448 C  
ENDROOT
BRANCH   2   3
HETATM    3  C   UNL     1      -9.872  10.390  63.835  1.00  0.00    -0.332 C  
BRANCH   3   4
HETATM    4  C   UNL     1     -10.093  10.375  65.344  1.00  0.00    -0.354 C  
BRANCH   4   5
HETATM    5  C   UNL     1      -9.702   9.022  65.931  1.00  0.00    -0.306 C  
BRANCH   5   6
HETATM    6  C   UNL     1      -8.790   9.201  67.136  1.00  0.00    -0.130 C  
BRANCH   6   7
HETATM    7  C   UNL     1      -9.499   9.955  68.257  1.00  0.00    -0.147 C  
BRANCH   7   8
HETATM    8  C   UNL     1      -8.618  11.093  68.755  1.00  0.00    -0.133 C  
BRANCH   8   9
HETATM    9  C   UNL     1      -7.593  11.514  67.707  1.00  0.00    -0.111 C  
BRANCH   9  10
HETATM   10  C   UNL     1      -7.524  13.032  67.535  1.00  0.00    -0.158 C  
BRANCH  10  11
HETATM   11  C   UNL     1      -8.830  13.777  67.833  1.00  0.00    -0.186 C  
BRANCH  11  12
HETATM   12  C   UNL     1      -9.613  14.144  66.567  1.00  0.00    -0.296 C  
BRANCH  12  13
HETATM   13  N   UNL     1     -10.712  15.199  66.802  1.00  0.00    -0.307 N  
HETATM   14  C   UNL     1     -12.095  14.570  66.684  1.00  0.00    -0.296 C  
HETATM   15  C   UNL     1     -10.562  15.836  68.179  1.00  0.00    -0.275 C  
BRANCH  13  16
HETATM   16  C   UNL     1     -10.528  16.301  65.704  1.00  0.00    -0.368 C  
BRANCH  16  17
HETATM   17  C   UNL     1      -9.851  17.565  66.172  1.00  0.00    -0.256 A  
HETATM   18  C   UNL     1     -10.578  18.761  66.296  1.00  0.00    -0.429 A  
HETATM   19  C   UNL     1      -9.917  19.967  66.524  1.00  0.00    -0.591 A  
HETATM   20  C   UNL     1      -8.530  19.987  66.658  1.00  0.00    -0.370 A  
HETATM   21  C   UNL     1      -7.807  18.799  66.614  1.00  0.00    -0.275 A  
HETATM   22  C   UNL     1      -8.464  17.589  66.388  1.00  0.00    -0.287 A  
ENDBRANCH  16  17
ENDBRANCH  13  16
ENDBRANCH  12  13
ENDBRANCH  11  12
ENDBRANCH  10  11
ENDBRANCH   9  10
ENDBRANCH   8   9
ENDBRANCH   7   8
ENDBRANCH   6   7
ENDBRANCH   5   6
ENDBRANCH   4   5
ENDBRANCH   3   4
ENDBRANCH   2   3
TORSDOF 13
ENDMDL
MODEL      189
REMARK 921   NORMALIZED FREE ENERGY PREDICTED BY IDOCK:   -3.50 KCAL/MOL
REMARK 922        TOTAL FREE ENERGY PREDICTED BY IDOCK:   -7.63 KCAL/MOL
REMARK 923 INTER-LIGAND FREE ENERGY PREDICTED BY IDOCK:   -6.45 KCAL/MOL
REMARK 924 INTRA-LIGAND FREE ENERGY PREDICTED BY IDOCK:   -1.18 KCAL/MOL
REMARK 927      BINDING AFFINITY PREDICTED BY RF-SCORE:    0.00 PKD
ROOT
HETATM    1  C   UNL     1     -10.739   9.315  68.859  1.00  0.00    -0.182 C  
HETATM    2  C   UNL     1      -9.762  10.332  69.427  1.00  0.00    -0.242 C  
ENDROOT
BRANCH   2   3
HETATM    3  C   UNL     1      -8.416  10.257  68.711  1.00  0.00    -0.130 C  
BRANCH   3   4
HETATM    4  C   UNL     1      -7.981  11.632  68.213  1.00  0.00    -0.143 C  
BRANCH   4   5
HETATM    5  C   UNL     1      -8.979  12.174  67.194  1.00  0.00    -0.189 C  
BRANCH   5   6
HETATM    6  C   UNL     1      -9.069  11.253  65.985  1.00  0.00    -0.221 C  
BRANCH   6   7
HETATM    7  C   UNL     1     -10.512  11.095  65.518  1.00  0.00    -0.317 C  
BRANCH   7   8
HETATM    8  C   UNL     1     -11.387  12.154  66.174  1.00  0.00    -0.414 C  
BRANCH   8   9
HETATM    9  C   UNL     1     -12.350  12.790  65.176  1.00  0.00    -0.555 C  
BRANCH   9  10
HETATM   10  C   UNL     1     -12.102  14.289  65.001  1.00  0.00    -0.428 C  
BRANCH  10  11
HETATM   11  C   UNL     1     -10.696  14.763  65.388  1.00  0.00    -0.385 C  
BRANCH  11  12
HETATM   12  C   UNL     1     -10.638  16.259  65.721  1.00  0.00    -0.324 C  
BRANCH  12  13
HETATM   13  N   UNL     1     -10.156  16.556  67.154  1.00  0.00    -0.268 N  
HETATM   14  C   UNL     1     -10.635  17.928  67.609  1.00  0.00    -0.387 C  
HETATM   15  C   UNL     1     -10.663  15.495  68.125  1.00  0.00    -0.282 C  
BRANCH  13  16
HETATM   16  C   UNL     1      -8.589  16.518  67.125  1.00  0.00    -0.186 C  
BRANCH  16  17
HETATM   17  C   UNL     1      -7.915  17.864  67.219  1.00  0.00    -0.222 A  
HETATM   18  C   UNL     1      -7.540  18.389  68.467  1.00  0.00    -0.319 A  
HETATM   19  C   UNL     1      -7.112  19.711  68.576  1.00  0.00    -0.356 A  
HETATM   20  C   UNL     1      -7.027  20.512  67.439  1.00  0.00    -0.363 A  
HETATM   21  C   UNL     1      -7.322  19.980  66.187  1.00  0.00    -0.319 A  
HETATM   22  C   UNL     1      -7.749  18.657  66.074  1.00  0.00    -0.214 A  
ENDBRANCH  16  17
ENDBRANCH  13  16
ENDBRANCH  12  13
ENDBRANCH  11  12
ENDBRANCH  10  11
ENDBRANCH   9  10
ENDBRANCH   8   9
ENDBRANCH   7   8
ENDBRANCH   6   7
ENDBRANCH   5   6
ENDBRANCH   4   5
ENDBRANCH   3   4
ENDBRANCH   2   3
TORSDOF 13
ENDMDL
MODEL      190
REMARK 921   NORMALIZED FREE ENERGY PREDICTED BY IDOCK:   -3.50 KCAL/MOL
REMARK 922        TOTAL FREE ENERGY PREDICTED BY IDOCK:   -7.62 KCAL/MOL
REMARK 923 INTER-LIGAND FREE ENERGY PREDICTED BY IDOCK:   -6.75 KCAL/MOL
REMARK 924 INTRA-LIGAND FREE ENERGY PREDICTED BY IDOCK:   -0.87 KCAL/MOL
REMARK 927      BINDING AFFINITY PREDICTED BY RF-SCORE:    0.00 PKD
ROOT
HETATM    1  C   UNL     1     -12.962  11.939  71.350  1.00  0.00    -0.385 C  
HETATM    2  C   UNL     1     -12.655  10.470  71.110  1.00  0.00    -0.520 C  
ENDROOT
BRANCH   2   3
HETATM    3  C   UNL     1     -13.268   9.597  72.202  1.00  0.00    -0.535 C  
BRANCH   3   4
HETATM    4  C   UNL     1     -13.605   8.207  71.672  1.00  0.00    -0.382 C  
BRANCH   4   5
HETATM    5  C   UNL     1     -12.411   7.269  71.828  1.00  0.00    -0.378 C  
BRANCH   5   6
HETATM    6  C   UNL     1     -11.432   7.811  72.861  1.00  0.00    -0.359 C  
BRANCH   6   7
HETATM    7  C   UNL     1     -10.080   8.122  72.228  1.00  0.00    -0.338 C  
BRANCH   7   8
HETATM    8  C   UNL     1      -9.910   7.316  70.947  1.00  0.00    -0.184 C  
BRANCH   8   9
HETATM    9  C   UNL     1      -9.680   8.218  69.738  1.00  0.00    -0.180 C  
BRANCH   9  10
HETATM   10  C   UNL     1      -9.311   9.647  70.139  1.00  0.00    -0.294 C  
BRANCH  10  11
HETATM   11  C   UNL     1      -8.905  10.561  68.976  1.00  0.00    -0.174 C  
BRANCH  11  12
HETATM   12  C   UNL     1      -9.719  11.860  68.924  1.00  0.00     0.058 C  
BRANCH  12  13
HETATM   13  N   UNL     1     -10.687  11.936  67.727  1.00  0.00    -0.200 N  
HETATM   14  C   UNL     1     -11.388  10.600  67.517  1.00  0.00    -0.162 C  
HETATM   15  C   UNL     1     -11.731  13.025  67.946  1.00  0.00    -0.357 C  
BRANCH  13  16
HETATM   16  C   UNL     1      -9.827  12.294  66.467  1.00  0.00    -0.229 C  
BRANCH  16  17
HETATM   17  C   UNL     1     -10.189  13.595  65.794  1.00  0.00    -0.317 A  
HETATM   18  C   UNL     1      -9.598  14.801  66.206  1.00  0.00    -0.339 A  
HETATM   19  C   UNL     1     -10.081  16.020  65.734  1.00  0.00    -0.393 A  
HETATM   20  C   UNL     1     -11.137  16.047  64.826  1.00  0.00    -0.378 A  
HETATM   21  C   UNL     1     -11.680  14.857  64.352  1.00  0.00    -0.338 A  
HETATM   22  C   UNL     1     -11.199  13.634  64.821  1.00  0.00    -0.367 A  
ENDBRANCH  16  17
ENDBRANCH  13  16
ENDBRANCH  12  13
ENDBRANCH  11  12
ENDBRANCH  10  11
ENDBRANCH   9  10
ENDBRANCH   8   9
ENDBRANCH   7   8
ENDBRANCH   6   7
ENDBRANCH   5   6
ENDBRANCH   4   5
ENDBRANCH   3   4
ENDBRANCH   2   3
TORSDOF 13
ENDMDL
MODEL      191
REMARK 921   NORMALIZED FREE ENERGY PREDICTED BY IDOCK:   -3.49 KCAL/MOL
REMARK 922        TOTAL FREE ENERGY PREDICTED BY IDOCK:   -7.62 KCAL/MOL
REMARK 923 INTER-LIGAND FREE ENERGY PREDICTED BY IDOCK:   -6.98 KCAL/MOL
REMARK 924 INTRA-LIGAND FREE ENERGY PREDICTED BY IDOCK:   -0.64 KCAL/MOL
REMARK 927      BINDING AFFINITY PREDICTED BY RF-SCORE:    0.00 PKD
ROOT
HETATM    1  C   UNL     1     -13.042  12.039  71.730  1.00  0.00    -0.460 C  
HETATM    2  C   UNL     1     -13.853  13.228  72.219  1.00  0.00    -0.637 C  
ENDROOT
BRANCH   2   3
HETATM    3  C   UNL     1     -12.955  14.437  72.469  1.00  0.00    -0.501 C  
BRANCH   3   4
HETATM    4  C   UNL     1     -13.211  15.535  71.442  1.00  0.00    -0.587 C  
BRANCH   4   5
HETATM    5  C   UNL     1     -11.954  15.804  70.619  1.00  0.00    -0.426 C  
BRANCH   5   6
HETATM    6  C   UNL     1     -11.856  14.831  69.452  1.00  0.00    -0.360 C  
BRANCH   6   7
HETATM    7  C   UNL     1     -10.601  15.089  68.625  1.00  0.00    -0.237 C  
BRANCH   7   8
HETATM    8  C   UNL     1      -9.886  13.773  68.345  1.00  0.00    -0.227 C  
BRANCH   8   9
HETATM    9  C   UNL     1      -8.377  13.964  68.226  1.00  0.00    -0.163 C  
BRANCH   9  10
HETATM   10  C   UNL     1      -7.983  14.727  66.960  1.00  0.00    -0.139 C  
BRANCH  10  11
HETATM   11  C   UNL     1      -7.233  16.041  67.204  1.00  0.00    -0.257 C  
BRANCH  11  12
HETATM   12  C   UNL     1      -7.927  17.253  66.570  1.00  0.00    -0.283 C  
BRANCH  12  13
HETATM   13  N   UNL     1      -7.439  18.606  67.126  1.00  0.00    -0.220 N  
HETATM   14  C   UNL     1      -7.535  19.691  66.061  1.00  0.00    -0.311 C  
HETATM   15  C   UNL     1      -8.261  19.017  68.343  1.00  0.00    -0.347 C  
BRANCH  13  16
HETATM   16  C   UNL     1      -5.946  18.409  67.558  1.00  0.00    -0.170 C  
BRANCH  16  17
HETATM   17  C   UNL     1      -5.586  18.994  68.902  1.00  0.00    -0.209 A  
HETATM   18  C   UNL     1      -5.465  18.167  70.031  1.00  0.00    -0.234 A  
HETATM   19  C   UNL     1      -5.340  18.724  71.302  1.00  0.00    -0.256 A  
HETATM   20  C   UNL     1      -5.308  20.108  71.457  1.00  0.00    -0.397 A  
HETATM   21  C   UNL     1      -5.350  20.936  70.339  1.00  0.00    -0.250 A  
HETATM   22  C   UNL     1      -5.472  20.383  69.064  1.00  0.00    -0.311 A  
ENDBRANCH  16  17
ENDBRANCH  13  16
ENDBRANCH  12  13
ENDBRANCH  11  12
ENDBRANCH  10  11
ENDBRANCH   9  10
ENDBRANCH   8   9
ENDBRANCH   7   8
ENDBRANCH   6   7
ENDBRANCH   5   6
ENDBRANCH   4   5
ENDBRANCH   3   4
ENDBRANCH   2   3
TORSDOF 13
ENDMDL
MODEL      192
REMARK 921   NORMALIZED FREE ENERGY PREDICTED BY IDOCK:   -3.48 KCAL/MOL
REMARK 922        TOTAL FREE ENERGY PREDICTED BY IDOCK:   -7.60 KCAL/MOL
REMARK 923 INTER-LIGAND FREE ENERGY PREDICTED BY IDOCK:   -6.80 KCAL/MOL
REMARK 924 INTRA-LIGAND FREE ENERGY PREDICTED BY IDOCK:   -0.80 KCAL/MOL
REMARK 927      BINDING AFFINITY PREDICTED BY RF-SCORE:    0.00 PKD
ROOT
HETATM    1  C   UNL     1      -5.959  10.438  65.359  1.00  0.00    -0.131 C  
HETATM    2  C   UNL     1      -5.939   9.616  66.637  1.00  0.00    -0.059 C  
ENDROOT
BRANCH   2   3
HETATM    3  C   UNL     1      -7.299   8.974  66.897  1.00  0.00    -0.086 C  
BRANCH   3   4
HETATM    4  C   UNL     1      -8.060   8.751  65.593  1.00  0.00    -0.108 C  
BRANCH   4   5
HETATM    5  C   UNL     1      -9.566   8.760  65.842  1.00  0.00    -0.255 C  
BRANCH   5   6
HETATM    6  C   UNL     1     -10.080  10.186  65.982  1.00  0.00    -0.317 C  
BRANCH   6   7
HETATM    7  C   UNL     1      -9.714  11.026  64.762  1.00  0.00    -0.311 C  
BRANCH   7   8
HETATM    8  C   UNL     1     -10.980  11.497  64.059  1.00  0.00    -0.454 C  
BRANCH   8   9
HETATM    9  C   UNL     1     -11.120  13.016  64.104  1.00  0.00    -0.437 C  
BRANCH   9  10
HETATM   10  C   UNL     1     -12.261  13.469  65.016  1.00  0.00    -0.453 C  
BRANCH  10  11
HETATM   11  C   UNL     1     -11.944  13.435  66.516  1.00  0.00    -0.452 C  
BRANCH  11  12
HETATM   12  C   UNL     1     -12.159  14.789  67.204  1.00  0.00    -0.093 C  
BRANCH  12  13
HETATM   13  N   UNL     1     -10.887  15.357  67.862  1.00  0.00    -0.290 N  
HETATM   14  C   UNL     1      -9.723  15.348  66.878  1.00  0.00    -0.231 C  
HETATM   15  C   UNL     1     -11.123  16.780  68.353  1.00  0.00    -0.266 C  
BRANCH  13  16
HETATM   16  C   UNL     1     -10.558  14.439  69.088  1.00  0.00    -0.218 C  
BRANCH  16  17
HETATM   17  C   UNL     1     -11.509  14.561  70.253  1.00  0.00    -0.281 A  
HETATM   18  C   UNL     1     -11.363  15.600  71.187  1.00  0.00    -0.446 A  
HETATM   19  C   UNL     1     -12.103  15.595  72.369  1.00  0.00    -0.557 A  
HETATM   20  C   UNL     1     -13.014  14.570  72.616  1.00  0.00    -0.538 A  
HETATM   21  C   UNL     1     -13.222  13.577  71.663  1.00  0.00    -0.449 A  
HETATM   22  C   UNL     1     -12.485  13.579  70.479  1.00  0.00    -0.373 A  
ENDBRANCH  16  17
ENDBRANCH  13  16
ENDBRANCH  12  13
ENDBRANCH  11  12
ENDBRANCH  10  11
ENDBRANCH   9  10
ENDBRANCH   8   9
ENDBRANCH   7   8
ENDBRANCH   6   7
ENDBRANCH   5   6
ENDBRANCH   4   5
ENDBRANCH   3   4
ENDBRANCH   2   3
TORSDOF 13
ENDMDL
MODEL      193
REMARK 921   NORMALIZED FREE ENERGY PREDICTED BY IDOCK:   -3.48 KCAL/MOL
REMARK 922        TOTAL FREE ENERGY PREDICTED BY IDOCK:   -7.60 KCAL/MOL
REMARK 923 INTER-LIGAND FREE ENERGY PREDICTED BY IDOCK:   -6.40 KCAL/MOL
REMARK 924 INTRA-LIGAND FREE ENERGY PREDICTED BY IDOCK:   -1.20 KCAL/MOL
REMARK 927      BINDING AFFINITY PREDICTED BY RF-SCORE:    0.00 PKD
ROOT
HETATM    1  C   UNL     1     -10.577  14.362  66.803  1.00  0.00    -0.282 C  
HETATM    2  C   UNL     1     -11.851  13.602  66.471  1.00  0.00    -0.441 C  
ENDROOT
BRANCH   2   3
HETATM    3  C   UNL     1     -11.836  13.117  65.024  1.00  0.00    -0.390 C  
BRANCH   3   4
HETATM    4  C   UNL     1     -10.507  12.452  64.680  1.00  0.00    -0.338 C  
BRANCH   4   5
HETATM    5  C   UNL     1     -10.724  10.997  64.273  1.00  0.00    -0.348 C  
BRANCH   5   6
HETATM    6  C   UNL     1      -9.390  10.292  64.066  1.00  0.00    -0.337 C  
BRANCH   6   7
HETATM    7  C   UNL     1      -9.142   9.253  65.155  1.00  0.00    -0.263 C  
BRANCH   7   8
HETATM    8  C   UNL     1      -9.929   9.618  66.407  1.00  0.00    -0.323 C  
BRANCH   8   9
HETATM    9  C   UNL     1      -9.009   9.908  67.589  1.00  0.00    -0.133 C  
BRANCH   9  10
HETATM   10  C   UNL     1      -8.024   8.769  67.855  1.00  0.00    -0.107 C  
BRANCH  10  11
HETATM   11  C   UNL     1      -7.934   8.318  69.318  1.00  0.00    -0.114 C  
BRANCH  11  12
HETATM   12  C   UNL     1      -8.822   7.106  69.626  1.00  0.00    -0.141 C  
BRANCH  12  13
HETATM   13  N   UNL     1      -9.906   7.387  70.685  1.00  0.00    -0.180 N  
HETATM   14  C   UNL     1     -10.345   6.094  71.362  1.00  0.00    -0.214 C  
HETATM   15  C   UNL     1      -9.391   8.360  71.740  1.00  0.00    -0.226 C  
BRANCH  13  16
HETATM   16  C   UNL     1     -11.118   8.037  69.935  1.00  0.00    -0.108 C  
BRANCH  16  17
HETATM   17  C   UNL     1     -11.723   9.240  70.617  1.00  0.00    -0.276 A  
HETATM   18  C   UNL     1     -12.703   9.079  71.611  1.00  0.00    -0.421 A  
HETATM   19  C   UNL     1     -13.408  10.182  72.089  1.00  0.00    -0.431 A  
HETATM   20  C   UNL     1     -13.124  11.456  71.603  1.00  0.00    -0.498 A  
HETATM   21  C   UNL     1     -12.102  11.637  70.675  1.00  0.00    -0.432 A  
HETATM   22  C   UNL     1     -11.392  10.536  70.194  1.00  0.00    -0.400 A  
ENDBRANCH  16  17
ENDBRANCH  13  16
ENDBRANCH  12  13
ENDBRANCH  11  12
ENDBRANCH  10  11
ENDBRANCH   9  10
ENDBRANCH   8   9
ENDBRANCH   7   8
ENDBRANCH   6   7
ENDBRANCH   5   6
ENDBRANCH   4   5
ENDBRANCH   3   4
ENDBRANCH   2   3
TORSDOF 13
ENDMDL
MODEL      194
REMARK 921   NORMALIZED FREE ENERGY PREDICTED BY IDOCK:   -3.48 KCAL/MOL
REMARK 922        TOTAL FREE ENERGY PREDICTED BY IDOCK:   -7.59 KCAL/MOL
REMARK 923 INTER-LIGAND FREE ENERGY PREDICTED BY IDOCK:   -7.24 KCAL/MOL
REMARK 924 INTRA-LIGAND FREE ENERGY PREDICTED BY IDOCK:   -0.35 KCAL/MOL
REMARK 927      BINDING AFFINITY PREDICTED BY RF-SCORE:    0.00 PKD
ROOT
HETATM    1  C   UNL     1     -11.244   7.443  72.259  1.00  0.00    -0.314 C  
HETATM    2  C   UNL     1     -11.675   8.895  72.141  1.00  0.00    -0.411 C  
ENDROOT
BRANCH   2   3
HETATM    3  C   UNL     1     -11.525   9.395  70.707  1.00  0.00    -0.364 C  
BRANCH   3   4
HETATM    4  C   UNL     1     -12.581  10.445  70.377  1.00  0.00    -0.329 C  
BRANCH   4   5
HETATM    5  C   UNL     1     -12.942  11.253  71.620  1.00  0.00    -0.537 C  
BRANCH   5   6
HETATM    6  C   UNL     1     -12.733  12.741  71.374  1.00  0.00    -0.353 C  
BRANCH   6   7
HETATM    7  C   UNL     1     -13.713  13.577  72.191  1.00  0.00    -0.654 C  
BRANCH   7   8
HETATM    8  C   UNL     1     -12.952  14.606  73.018  1.00  0.00    -0.610 C  
BRANCH   8   9
HETATM    9  C   UNL     1     -12.572  15.828  72.189  1.00  0.00    -0.528 C  
BRANCH   9  10
HETATM   10  C   UNL     1     -12.408  15.499  70.705  1.00  0.00    -0.462 C  
BRANCH  10  11
HETATM   11  C   UNL     1     -11.044  15.864  70.108  1.00  0.00    -0.369 C  
BRANCH  11  12
HETATM   12  C   UNL     1     -10.455  14.748  69.235  1.00  0.00    -0.224 C  
BRANCH  12  13
HETATM   13  N   UNL     1     -10.584  15.013  67.722  1.00  0.00    -0.260 N  
HETATM   14  C   UNL     1     -11.903  14.467  67.191  1.00  0.00    -0.410 C  
HETATM   15  C   UNL     1     -10.500  16.506  67.427  1.00  0.00    -0.310 C  
BRANCH  13  16
HETATM   16  C   UNL     1      -9.383  14.284  67.027  1.00  0.00    -0.241 C  
BRANCH  16  17
HETATM   17  C   UNL     1      -8.782  13.147  67.816  1.00  0.00    -0.188 A  
HETATM   18  C   UNL     1      -7.539  13.297  68.451  1.00  0.00    -0.137 A  
HETATM   19  C   UNL     1      -6.889  12.192  68.998  1.00  0.00    -0.098 A  
HETATM   20  C   UNL     1      -7.485  10.934  68.942  1.00  0.00    -0.116 A  
HETATM   21  C   UNL     1      -8.751  10.787  68.383  1.00  0.00    -0.142 A  
HETATM   22  C   UNL     1      -9.406  11.890  67.836  1.00  0.00    -0.187 A  
ENDBRANCH  16  17
ENDBRANCH  13  16
ENDBRANCH  12  13
ENDBRANCH  11  12
ENDBRANCH  10  11
ENDBRANCH   9  10
ENDBRANCH   8   9
ENDBRANCH   7   8
ENDBRANCH   6   7
ENDBRANCH   5   6
ENDBRANCH   4   5
ENDBRANCH   3   4
ENDBRANCH   2   3
TORSDOF 13
ENDMDL
MODEL      195
REMARK 921   NORMALIZED FREE ENERGY PREDICTED BY IDOCK:   -3.47 KCAL/MOL
REMARK 922        TOTAL FREE ENERGY PREDICTED BY IDOCK:   -7.59 KCAL/MOL
REMARK 923 INTER-LIGAND FREE ENERGY PREDICTED BY IDOCK:   -5.64 KCAL/MOL
REMARK 924 INTRA-LIGAND FREE ENERGY PREDICTED BY IDOCK:   -1.95 KCAL/MOL
REMARK 927      BINDING AFFINITY PREDICTED BY RF-SCORE:    0.00 PKD
ROOT
HETATM    1  C   UNL     1     -12.840  12.319  71.297  1.00  0.00    -0.337 C  
HETATM    2  C   UNL     1     -12.837  10.842  70.941  1.00  0.00    -0.443 C  
ENDROOT
BRANCH   2   3
HETATM    3  C   UNL     1     -13.194   9.986  72.154  1.00  0.00    -0.489 C  
BRANCH   3   4
HETATM    4  C   UNL     1     -13.881   8.691  71.731  1.00  0.00    -0.472 C  
BRANCH   4   5
HETATM    5  C   UNL     1     -12.903   7.521  71.790  1.00  0.00    -0.359 C  
BRANCH   5   6
HETATM    6  C   UNL     1     -11.620   7.927  72.503  1.00  0.00    -0.443 C  
BRANCH   6   7
HETATM    7  C   UNL     1     -10.391   7.552  71.683  1.00  0.00    -0.217 C  
BRANCH   7   8
HETATM    8  C   UNL     1     -10.819   7.038  70.314  1.00  0.00    -0.283 C  
BRANCH   8   9
HETATM    9  C   UNL     1     -10.523   8.051  69.212  1.00  0.00    -0.221 C  
BRANCH   9  10
HETATM   10  C   UNL     1      -9.694   9.234  69.715  1.00  0.00    -0.202 C  
BRANCH  10  11
HETATM   11  C   UNL     1      -9.942  10.556  68.980  1.00  0.00    -0.223 C  
BRANCH  11  12
HETATM   12  C   UNL     1     -10.719  10.377  67.669  1.00  0.00    -0.286 C  
BRANCH  12  13
HETATM   13  N   UNL     1     -10.204  11.264  66.519  1.00  0.00    -0.220 N  
HETATM   14  C   UNL     1     -11.353  12.032  65.877  1.00  0.00    -0.337 C  
HETATM   15  C   UNL     1      -9.157  12.250  67.024  1.00  0.00    -0.201 C  
BRANCH  13  16
HETATM   16  C   UNL     1      -9.545  10.309  65.466  1.00  0.00    -0.242 C  
BRANCH  16  17
HETATM   17  C   UNL     1      -8.778   9.148  66.048  1.00  0.00    -0.176 A  
HETATM   18  C   UNL     1      -7.490   9.336  66.579  1.00  0.00    -0.093 A  
HETATM   19  C   UNL     1      -6.702   8.239  66.922  1.00  0.00    -0.062 A  
HETATM   20  C   UNL     1      -7.200   6.947  66.766  1.00  0.00    -0.076 A  
HETATM   21  C   UNL     1      -8.502   6.750  66.314  1.00  0.00    -0.131 A  
HETATM   22  C   UNL     1      -9.295   7.845  65.971  1.00  0.00    -0.129 A  
ENDBRANCH  16  17
ENDBRANCH  13  16
ENDBRANCH  12  13
ENDBRANCH  11  12
ENDBRANCH  10  11
ENDBRANCH   9  10
ENDBRANCH   8   9
ENDBRANCH   7   8
ENDBRANCH   6   7
ENDBRANCH   5   6
ENDBRANCH   4   5
ENDBRANCH   3   4
ENDBRANCH   2   3
TORSDOF 13
ENDMDL
MODEL      196
REMARK 921   NORMALIZED FREE ENERGY PREDICTED BY IDOCK:   -3.47 KCAL/MOL
REMARK 922        TOTAL FREE ENERGY PREDICTED BY IDOCK:   -7.58 KCAL/MOL
REMARK 923 INTER-LIGAND FREE ENERGY PREDICTED BY IDOCK:   -6.50 KCAL/MOL
REMARK 924 INTRA-LIGAND FREE ENERGY PREDICTED BY IDOCK:   -1.08 KCAL/MOL
REMARK 927      BINDING AFFINITY PREDICTED BY RF-SCORE:    0.00 PKD
ROOT
HETATM    1  C   UNL     1     -11.357  15.482  71.441  1.00  0.00    -0.458 C  
HETATM    2  C   UNL     1     -12.496  14.615  70.931  1.00  0.00    -0.406 C  
ENDROOT
BRANCH   2   3
HETATM    3  C   UNL     1     -12.075  13.835  69.688  1.00  0.00    -0.392 C  
BRANCH   3   4
HETATM    4  C   UNL     1     -11.217  14.694  68.764  1.00  0.00    -0.285 C  
BRANCH   4   5
HETATM    5  C   UNL     1     -11.679  14.553  67.316  1.00  0.00    -0.429 C  
BRANCH   5   6
HETATM    6  C   UNL     1     -11.841  13.085  66.944  1.00  0.00    -0.442 C  
BRANCH   6   7
HETATM    7  C   UNL     1     -10.587  12.549  66.259  1.00  0.00    -0.273 C  
BRANCH   7   8
HETATM    8  C   UNL     1     -10.977  11.719  65.043  1.00  0.00    -0.357 C  
BRANCH   8   9
HETATM    9  C   UNL     1      -9.890  10.714  64.673  1.00  0.00    -0.382 C  
BRANCH   9  10
HETATM   10  C   UNL     1      -8.677  10.799  65.601  1.00  0.00    -0.198 C  
BRANCH  10  11
HETATM   11  C   UNL     1      -8.336   9.501  66.342  1.00  0.00    -0.120 C  
BRANCH  11  12
HETATM   12  C   UNL     1      -9.354   8.382  66.088  1.00  0.00    -0.201 C  
BRANCH  12  13
HETATM   13  N   UNL     1      -9.654   7.525  67.334  1.00  0.00    -0.143 N  
HETATM   14  C   UNL     1     -11.125   7.127  67.372  1.00  0.00    -0.138 C  
HETATM   15  C   UNL     1      -8.790   6.269  67.345  1.00  0.00    -0.107 C  
BRANCH  13  16
HETATM   16  C   UNL     1      -9.304   8.400  68.585  1.00  0.00    -0.143 C  
BRANCH  16  17
HETATM   17  C   UNL     1     -10.490   9.001  69.299  1.00  0.00    -0.238 A  
HETATM   18  C   UNL     1     -10.999  10.251  68.910  1.00  0.00    -0.279 A  
HETATM   19  C   UNL     1     -11.952  10.898  69.695  1.00  0.00    -0.414 A  
HETATM   20  C   UNL     1     -12.426  10.293  70.857  1.00  0.00    -0.466 A  
HETATM   21  C   UNL     1     -11.985   9.021  71.211  1.00  0.00    -0.374 A  
HETATM   22  C   UNL     1     -11.033   8.369  70.428  1.00  0.00    -0.249 A  
ENDBRANCH  16  17
ENDBRANCH  13  16
ENDBRANCH  12  13
ENDBRANCH  11  12
ENDBRANCH  10  11
ENDBRANCH   9  10
ENDBRANCH   8   9
ENDBRANCH   7   8
ENDBRANCH   6   7
ENDBRANCH   5   6
ENDBRANCH   4   5
ENDBRANCH   3   4
ENDBRANCH   2   3
TORSDOF 13
ENDMDL
MODEL      197
REMARK 921   NORMALIZED FREE ENERGY PREDICTED BY IDOCK:   -3.47 KCAL/MOL
REMARK 922        TOTAL FREE ENERGY PREDICTED BY IDOCK:   -7.58 KCAL/MOL
REMARK 923 INTER-LIGAND FREE ENERGY PREDICTED BY IDOCK:   -5.61 KCAL/MOL
REMARK 924 INTRA-LIGAND FREE ENERGY PREDICTED BY IDOCK:   -1.97 KCAL/MOL
REMARK 927      BINDING AFFINITY PREDICTED BY RF-SCORE:    0.00 PKD
ROOT
HETATM    1  C   UNL     1     -11.654  12.188  67.509  1.00  0.00    -0.413 C  
HETATM    2  C   UNL     1     -11.639  12.490  68.998  1.00  0.00    -0.365 C  
ENDROOT
BRANCH   2   3
HETATM    3  C   UNL     1     -11.760  11.208  69.818  1.00  0.00    -0.419 C  
BRANCH   3   4
HETATM    4  C   UNL     1     -12.703  11.399  71.002  1.00  0.00    -0.447 C  
BRANCH   4   5
HETATM    5  C   UNL     1     -12.889  10.086  71.757  1.00  0.00    -0.546 C  
BRANCH   5   6
HETATM    6  C   UNL     1     -11.623   9.242  71.689  1.00  0.00    -0.463 C  
BRANCH   6   7
HETATM    7  C   UNL     1     -11.843   7.868  72.313  1.00  0.00    -0.404 C  
BRANCH   7   8
HETATM    8  C   UNL     1     -12.367   6.899  71.260  1.00  0.00    -0.422 C  
BRANCH   8   9
HETATM    9  C   UNL     1     -11.268   5.975  70.745  1.00  0.00    -0.340 C  
BRANCH   9  10
HETATM   10  C   UNL     1     -10.299   5.550  71.849  1.00  0.00    -0.270 C  
BRANCH  10  11
HETATM   11  C   UNL     1      -8.838   5.954  71.620  1.00  0.00    -0.139 C  
BRANCH  11  12
HETATM   12  C   UNL     1      -8.540   6.320  70.160  1.00  0.00    -0.134 C  
BRANCH  12  13
HETATM   13  N   UNL     1      -8.032   7.764  69.976  1.00  0.00    -0.111 N  
HETATM   14  C   UNL     1      -7.788   8.425  71.327  1.00  0.00    -0.111 C  
HETATM   15  C   UNL     1      -6.742   7.782  69.164  1.00  0.00    -0.048 C  
BRANCH  13  16
HETATM   16  C   UNL     1      -9.143   8.541  69.191  1.00  0.00    -0.146 C  
BRANCH  16  17
HETATM   17  C   UNL     1      -8.645   9.682  68.338  1.00  0.00    -0.119 A  
HETATM   18  C   UNL     1      -8.216  10.881  68.930  1.00  0.00    -0.141 A  
HETATM   19  C   UNL     1      -7.956  12.002  68.142  1.00  0.00    -0.152 A  
HETATM   20  C   UNL     1      -8.094  11.928  66.758  1.00  0.00    -0.108 A  
HETATM   21  C   UNL     1      -8.445  10.724  66.154  1.00  0.00    -0.167 A  
HETATM   22  C   UNL     1      -8.704   9.599  66.938  1.00  0.00    -0.139 A  
ENDBRANCH  16  17
ENDBRANCH  13  16
ENDBRANCH  12  13
ENDBRANCH  11  12
ENDBRANCH  10  11
ENDBRANCH   9  10
ENDBRANCH   8   9
ENDBRANCH   7   8
ENDBRANCH   6   7
ENDBRANCH   5   6
ENDBRANCH   4   5
ENDBRANCH   3   4
ENDBRANCH   2   3
TORSDOF 13
ENDMDL
MODEL      198
REMARK 921   NORMALIZED FREE ENERGY PREDICTED BY IDOCK:   -3.47 KCAL/MOL
REMARK 922        TOTAL FREE ENERGY PREDICTED BY IDOCK:   -7.58 KCAL/MOL
REMARK 923 INTER-LIGAND FREE ENERGY PREDICTED BY IDOCK:   -6.50 KCAL/MOL
REMARK 924 INTRA-LIGAND FREE ENERGY PREDICTED BY IDOCK:   -1.08 KCAL/MOL
REMARK 927      BINDING AFFINITY PREDICTED BY RF-SCORE:    0.00 PKD
ROOT
HETATM    1  C   UNL     1     -10.787  15.444  64.622  1.00  0.00    -0.281 C  
HETATM    2  C   UNL     1     -11.738  14.301  64.307  1.00  0.00    -0.348 C  
ENDROOT
BRANCH   2   3
HETATM    3  C   UNL     1     -12.692  14.047  65.471  1.00  0.00    -0.517 C  
BRANCH   3   4
HETATM    4  C   UNL     1     -12.037  14.394  66.805  1.00  0.00    -0.393 C  
BRANCH   4   5
HETATM    5  C   UNL     1     -11.588  13.127  67.527  1.00  0.00    -0.398 C  
BRANCH   5   6
HETATM    6  C   UNL     1     -10.118  13.221  67.915  1.00  0.00    -0.235 C  
BRANCH   6   7
HETATM    7  C   UNL     1      -9.229  12.555  66.870  1.00  0.00    -0.211 C  
BRANCH   7   8
HETATM    8  C   UNL     1     -10.003  11.453  66.158  1.00  0.00    -0.265 C  
BRANCH   8   9
HETATM    9  C   UNL     1      -9.357  10.086  66.361  1.00  0.00    -0.211 C  
BRANCH   9  10
HETATM   10  C   UNL     1     -10.227   9.148  67.199  1.00  0.00    -0.329 C  
BRANCH  10  11
HETATM   11  C   UNL     1     -10.258   9.463  68.700  1.00  0.00    -0.222 C  
BRANCH  11  12
HETATM   12  C   UNL     1     -10.556   8.231  69.564  1.00  0.00    -0.213 C  
BRANCH  12  13
HETATM   13  N   UNL     1     -10.920   8.572  71.022  1.00  0.00    -0.240 N  
HETATM   14  C   UNL     1      -9.663   8.695  71.875  1.00  0.00    -0.313 C  
HETATM   15  C   UNL     1     -11.708   9.875  71.091  1.00  0.00    -0.396 C  
BRANCH  13  16
HETATM   16  C   UNL     1     -11.816   7.401  71.554  1.00  0.00    -0.297 C  
BRANCH  16  17
HETATM   17  C   UNL     1     -11.067   6.158  71.966  1.00  0.00    -0.322 A  
HETATM   18  C   UNL     1     -10.445   5.347  71.002  1.00  0.00    -0.302 A  
HETATM   19  C   UNL     1      -9.937   4.098  71.354  1.00  0.00    -0.223 A  
HETATM   20  C   UNL     1     -10.018   3.659  72.674  1.00  0.00    -0.222 A  
HETATM   21  C   UNL     1     -10.563   4.486  73.652  1.00  0.00    -0.315 A  
HETATM   22  C   UNL     1     -11.071   5.738  73.304  1.00  0.00    -0.252 A  
ENDBRANCH  16  17
ENDBRANCH  13  16
ENDBRANCH  12  13
ENDBRANCH  11  12
ENDBRANCH  10  11
ENDBRANCH   9  10
ENDBRANCH   8   9
ENDBRANCH   7   8
ENDBRANCH   6   7
ENDBRANCH   5   6
ENDBRANCH   4   5
ENDBRANCH   3   4
ENDBRANCH   2   3
TORSDOF 13
ENDMDL
MODEL      199
REMARK 921   NORMALIZED FREE ENERGY PREDICTED BY IDOCK:   -3.46 KCAL/MOL
REMARK 922        TOTAL FREE ENERGY PREDICTED BY IDOCK:   -7.56 KCAL/MOL
REMARK 923 INTER-LIGAND FREE ENERGY PREDICTED BY IDOCK:   -6.12 KCAL/MOL
REMARK 924 INTRA-LIGAND FREE ENERGY PREDICTED BY IDOCK:   -1.45 KCAL/MOL
REMARK 927      BINDING AFFINITY PREDICTED BY RF-SCORE:    0.00 PKD
ROOT
HETATM    1  C   UNL     1      -8.552   5.320  67.870  1.00  0.00    -0.103 C  
HETATM    2  C   UNL     1      -9.947   5.181  67.284  1.00  0.00    -0.218 C  
ENDROOT
BRANCH   2   3
HETATM    3  C   UNL     1     -10.941   6.078  68.018  1.00  0.00    -0.340 C  
BRANCH   3   4
HETATM    4  C   UNL     1     -10.393   7.493  68.173  1.00  0.00    -0.244 C  
BRANCH   4   5
HETATM    5  C   UNL     1     -10.439   8.236  66.841  1.00  0.00    -0.365 C  
BRANCH   5   6
HETATM    6  C   UNL     1      -9.056   8.751  66.464  1.00  0.00    -0.203 C  
BRANCH   6   7
HETATM    7  C   UNL     1      -8.242   9.102  67.705  1.00  0.00    -0.109 C  
BRANCH   7   8
HETATM    8  C   UNL     1      -7.615  10.480  67.541  1.00  0.00    -0.093 C  
BRANCH   8   9
HETATM    9  C   UNL     1      -7.986  11.411  68.691  1.00  0.00    -0.141 C  
BRANCH   9  10
HETATM   10  C   UNL     1      -8.344  12.818  68.210  1.00  0.00    -0.161 C  
BRANCH  10  11
HETATM   11  C   UNL     1      -8.871  12.896  66.773  1.00  0.00    -0.152 C  
BRANCH  11  12
HETATM   12  C   UNL     1      -9.863  14.046  66.561  1.00  0.00    -0.290 C  
BRANCH  12  13
HETATM   13  N   UNL     1     -10.904  13.770  65.458  1.00  0.00    -0.292 N  
HETATM   14  C   UNL     1     -11.377  15.073  64.826  1.00  0.00    -0.406 C  
HETATM   15  C   UNL     1     -10.319  12.867  64.378  1.00  0.00    -0.369 C  
BRANCH  13  16
HETATM   16  C   UNL     1     -12.109  13.038  66.142  1.00  0.00    -0.409 C  
BRANCH  16  17
HETATM   17  C   UNL     1     -11.867  12.600  67.565  1.00  0.00    -0.396 A  
HETATM   18  C   UNL     1     -11.781  11.235  67.888  1.00  0.00    -0.289 A  
HETATM   19  C   UNL     1     -11.768  10.825  69.220  1.00  0.00    -0.374 A  
HETATM   20  C   UNL     1     -11.813  11.772  70.241  1.00  0.00    -0.382 A  
HETATM   21  C   UNL     1     -11.821  13.129  69.934  1.00  0.00    -0.378 A  
HETATM   22  C   UNL     1     -11.832  13.544  68.603  1.00  0.00    -0.404 A  
ENDBRANCH  16  17
ENDBRANCH  13  16
ENDBRANCH  12  13
ENDBRANCH  11  12
ENDBRANCH  10  11
ENDBRANCH   9  10
ENDBRANCH   8   9
ENDBRANCH   7   8
ENDBRANCH   6   7
ENDBRANCH   5   6
ENDBRANCH   4   5
ENDBRANCH   3   4
ENDBRANCH   2   3
TORSDOF 13
ENDMDL
MODEL      200
REMARK 921   NORMALIZED FREE ENERGY PREDICTED BY IDOCK:   -3.44 KCAL/MOL
REMARK 922        TOTAL FREE ENERGY PREDICTED BY IDOCK:   -7.53 KCAL/MOL
REMARK 923 INTER-LIGAND FREE ENERGY PREDICTED BY IDOCK:   -5.79 KCAL/MOL
REMARK 924 INTRA-LIGAND FREE ENERGY PREDICTED BY IDOCK:   -1.74 KCAL/MOL
REMARK 927      BINDING AFFINITY PREDICTED BY RF-SCORE:    0.00 PKD
ROOT
HETATM    1  C   UNL     1     -10.244   5.464  69.366  1.00  0.00    -0.334 C  
HETATM    2  C   UNL     1     -11.515   6.263  69.598  1.00  0.00    -0.425 C  
ENDROOT
BRANCH   2   3
HETATM    3  C   UNL     1     -11.758   6.486  71.089  1.00  0.00    -0.392 C  
BRANCH   3   4
HETATM    4  C   UNL     1     -10.455   6.804  71.817  1.00  0.00    -0.228 C  
BRANCH   4   5
HETATM    5  C   UNL     1     -10.549   8.155  72.519  1.00  0.00    -0.411 C  
BRANCH   5   6
HETATM    6  C   UNL     1     -10.445   9.293  71.512  1.00  0.00    -0.385 C  
BRANCH   6   7
HETATM    7  C   UNL     1      -9.198   9.150  70.646  1.00  0.00    -0.310 C  
BRANCH   7   8
HETATM    8  C   UNL     1      -9.553   9.390  69.184  1.00  0.00    -0.163 C  
BRANCH   8   9
HETATM    9  C   UNL     1     -10.851  10.179  69.040  1.00  0.00    -0.257 C  
BRANCH   9  10
HETATM   10  C   UNL     1     -11.130  10.583  67.591  1.00  0.00    -0.375 C  
BRANCH  10  11
HETATM   11  C   UNL     1     -11.639  12.017  67.406  1.00  0.00    -0.388 C  
BRANCH  11  12
HETATM   12  C   UNL     1     -10.954  13.022  68.341  1.00  0.00    -0.262 C  
BRANCH  12  13
HETATM   13  N   UNL     1     -10.606  14.361  67.662  1.00  0.00    -0.258 N  
HETATM   14  C   UNL     1     -11.557  14.641  66.505  1.00  0.00    -0.344 C  
HETATM   15  C   UNL     1     -10.676  15.508  68.663  1.00  0.00    -0.252 C  
BRANCH  13  16
HETATM   16  C   UNL     1      -9.138  14.234  67.129  1.00  0.00    -0.228 C  
BRANCH  16  17
HETATM   17  C   UNL     1      -8.138  13.703  68.126  1.00  0.00    -0.156 A  
HETATM   18  C   UNL     1      -7.492  14.572  69.022  1.00  0.00    -0.131 A  
HETATM   19  C   UNL     1      -6.424  14.120  69.795  1.00  0.00    -0.130 A  
HETATM   20  C   UNL     1      -6.008  12.794  69.703  1.00  0.00    -0.121 A  
HETATM   21  C   UNL     1      -6.690  11.905  68.876  1.00  0.00    -0.095 A  
HETATM   22  C   UNL     1      -7.761  12.351  68.102  1.00  0.00    -0.139 A  
ENDBRANCH  16  17
ENDBRANCH  13  16
ENDBRANCH  12  13
ENDBRANCH  11  12
ENDBRANCH  10  11
ENDBRANCH   9  10
ENDBRANCH   8   9
ENDBRANCH   7   8
ENDBRANCH   6   7
ENDBRANCH   5   6
ENDBRANCH   4   5
ENDBRANCH   3   4
ENDBRANCH   2   3
TORSDOF 13
ENDMDL
MODEL      201
REMARK 921   NORMALIZED FREE ENERGY PREDICTED BY IDOCK:   -3.43 KCAL/MOL
REMARK 922        TOTAL FREE ENERGY PREDICTED BY IDOCK:   -7.51 KCAL/MOL
REMARK 923 INTER-LIGAND FREE ENERGY PREDICTED BY IDOCK:   -6.55 KCAL/MOL
REMARK 924 INTRA-LIGAND FREE ENERGY PREDICTED BY IDOCK:   -0.97 KCAL/MOL
REMARK 927      BINDING AFFINITY PREDICTED BY RF-SCORE:    0.00 PKD
ROOT
HETATM    1  C   UNL     1      -5.640  17.028  66.889  1.00  0.00    -0.210 C  
HETATM    2  C   UNL     1      -6.410  16.886  68.191  1.00  0.00    -0.143 C  
ENDROOT
BRANCH   2   3
HETATM    3  C   UNL     1      -7.332  18.081  68.415  1.00  0.00    -0.263 C  
BRANCH   3   4
HETATM    4  C   UNL     1      -6.784  19.333  67.737  1.00  0.00    -0.246 C  
BRANCH   4   5
HETATM    5  C   UNL     1      -7.818  20.456  67.765  1.00  0.00    -0.245 C  
BRANCH   5   6
HETATM    6  C   UNL     1      -9.229  19.886  67.828  1.00  0.00    -0.436 C  
BRANCH   6   7
HETATM    7  C   UNL     1     -10.066  20.358  66.644  1.00  0.00    -0.457 C  
BRANCH   7   8
HETATM    8  C   UNL     1     -10.769  19.170  66.000  1.00  0.00    -0.451 C  
BRANCH   8   9
HETATM    9  C   UNL     1      -9.927  17.901  66.086  1.00  0.00    -0.288 C  
BRANCH   9  10
HETATM   10  C   UNL     1     -10.651  16.681  65.514  1.00  0.00    -0.273 C  
BRANCH  10  11
HETATM   11  C   UNL     1     -10.097  15.326  65.970  1.00  0.00    -0.340 C  
BRANCH  11  12
HETATM   12  C   UNL     1     -11.174  14.406  66.557  1.00  0.00    -0.340 C  
BRANCH  12  13
HETATM   13  N   UNL     1     -11.019  14.159  68.071  1.00  0.00    -0.250 N  
HETATM   14  C   UNL     1      -9.575  13.815  68.415  1.00  0.00    -0.206 C  
HETATM   15  C   UNL     1     -11.449  15.388  68.864  1.00  0.00    -0.342 C  
BRANCH  13  16
HETATM   16  C   UNL     1     -11.957  12.958  68.436  1.00  0.00    -0.248 C  
BRANCH  16  17
HETATM   17  C   UNL     1     -11.289  11.606  68.451  1.00  0.00    -0.339 A  
HETATM   18  C   UNL     1     -11.001  10.938  67.250  1.00  0.00    -0.355 A  
HETATM   19  C   UNL     1     -10.580   9.609  67.265  1.00  0.00    -0.315 A  
HETATM   20  C   UNL     1     -10.415   8.945  68.478  1.00  0.00    -0.218 A  
HETATM   21  C   UNL     1     -10.623   9.619  69.678  1.00  0.00    -0.252 A  
HETATM   22  C   UNL     1     -11.043  10.949  69.667  1.00  0.00    -0.328 A  
ENDBRANCH  16  17
ENDBRANCH  13  16
ENDBRANCH  12  13
ENDBRANCH  11  12
ENDBRANCH  10  11
ENDBRANCH   9  10
ENDBRANCH   8   9
ENDBRANCH   7   8
ENDBRANCH   6   7
ENDBRANCH   5   6
ENDBRANCH   4   5
ENDBRANCH   3   4
ENDBRANCH   2   3
TORSDOF 13
ENDMDL
MODEL      202
REMARK 921   NORMALIZED FREE ENERGY PREDICTED BY IDOCK:   -3.43 KCAL/MOL
REMARK 922        TOTAL FREE ENERGY PREDICTED BY IDOCK:   -7.51 KCAL/MOL
REMARK 923 INTER-LIGAND FREE ENERGY PREDICTED BY IDOCK:   -6.05 KCAL/MOL
REMARK 924 INTRA-LIGAND FREE ENERGY PREDICTED BY IDOCK:   -1.46 KCAL/MOL
REMARK 927      BINDING AFFINITY PREDICTED BY RF-SCORE:    0.00 PKD
ROOT
HETATM    1  C   UNL     1     -10.399  14.364  64.713  1.00  0.00    -0.352 C  
HETATM    2  C   UNL     1     -11.186  13.145  64.262  1.00  0.00    -0.422 C  
ENDROOT
BRANCH   2   3
HETATM    3  C   UNL     1     -12.212  12.736  65.315  1.00  0.00    -0.535 C  
BRANCH   3   4
HETATM    4  C   UNL     1     -12.090  13.599  66.567  1.00  0.00    -0.469 C  
BRANCH   4   5
HETATM    5  C   UNL     1     -11.891  12.726  67.803  1.00  0.00    -0.387 C  
BRANCH   5   6
HETATM    6  C   UNL     1     -10.774  13.279  68.678  1.00  0.00    -0.281 C  
BRANCH   6   7
HETATM    7  C   UNL     1      -9.416  13.122  68.002  1.00  0.00    -0.220 C  
BRANCH   7   8
HETATM    8  C   UNL     1      -9.054  11.646  67.903  1.00  0.00    -0.171 C  
BRANCH   8   9
HETATM    9  C   UNL     1      -8.753  11.232  66.466  1.00  0.00    -0.178 C  
BRANCH   9  10
HETATM   10  C   UNL     1      -9.554  10.003  66.032  1.00  0.00    -0.279 C  
BRANCH  10  11
HETATM   11  C   UNL     1     -10.357   9.327  67.150  1.00  0.00    -0.330 C  
BRANCH  11  12
HETATM   12  C   UNL     1      -9.681   8.062  67.692  1.00  0.00    -0.158 C  
BRANCH  12  13
HETATM   13  N   UNL     1     -10.279   7.563  69.022  1.00  0.00    -0.200 N  
HETATM   14  C   UNL     1     -11.025   8.686  69.732  1.00  0.00    -0.127 C  
HETATM   15  C   UNL     1     -11.230   6.396  68.782  1.00  0.00    -0.274 C  
BRANCH  13  16
HETATM   16  C   UNL     1      -9.080   7.074  69.906  1.00  0.00    -0.141 C  
BRANCH  16  17
HETATM   17  C   UNL     1      -9.445   6.673  71.314  1.00  0.00    -0.166 A  
HETATM   18  C   UNL     1     -10.156   5.485  71.556  1.00  0.00    -0.260 A  
HETATM   19  C   UNL     1     -10.673   5.220  72.823  1.00  0.00    -0.292 A  
HETATM   20  C   UNL     1     -10.463   6.120  73.865  1.00  0.00    -0.287 A  
HETATM   21  C   UNL     1      -9.695   7.263  73.655  1.00  0.00    -0.335 A  
HETATM   22  C   UNL     1      -9.174   7.532  72.390  1.00  0.00    -0.188 A  
ENDBRANCH  16  17
ENDBRANCH  13  16
ENDBRANCH  12  13
ENDBRANCH  11  12
ENDBRANCH  10  11
ENDBRANCH   9  10
ENDBRANCH   8   9
ENDBRANCH   7   8
ENDBRANCH   6   7
ENDBRANCH   5   6
ENDBRANCH   4   5
ENDBRANCH   3   4
ENDBRANCH   2   3
TORSDOF 13
ENDMDL
MODEL      203
REMARK 921   NORMALIZED FREE ENERGY PREDICTED BY IDOCK:   -3.43 KCAL/MOL
REMARK 922        TOTAL FREE ENERGY PREDICTED BY IDOCK:   -7.50 KCAL/MOL
REMARK 923 INTER-LIGAND FREE ENERGY PREDICTED BY IDOCK:   -6.61 KCAL/MOL
REMARK 924 INTRA-LIGAND FREE ENERGY PREDICTED BY IDOCK:   -0.89 KCAL/MOL
REMARK 927      BINDING AFFINITY PREDICTED BY RF-SCORE:    0.00 PKD
ROOT
HETATM    1  C   UNL     1      -6.656  17.456  66.028  1.00  0.00    -0.176 C  
HETATM    2  C   UNL     1      -6.487  18.845  66.622  1.00  0.00    -0.206 C  
ENDROOT
BRANCH   2   3
HETATM    3  C   UNL     1      -7.592  19.783  66.143  1.00  0.00    -0.330 C  
BRANCH   3   4
HETATM    4  C   UNL     1      -8.098  20.663  67.282  1.00  0.00    -0.315 C  
BRANCH   4   5
HETATM    5  C   UNL     1      -9.624  20.686  67.305  1.00  0.00    -0.558 C  
BRANCH   5   6
HETATM    6  C   UNL     1     -10.192  19.508  66.525  1.00  0.00    -0.568 C  
BRANCH   6   7
HETATM    7  C   UNL     1     -10.855  18.499  67.457  1.00  0.00    -0.337 C  
BRANCH   7   8
HETATM    8  C   UNL     1      -9.914  17.328  67.707  1.00  0.00    -0.301 C  
BRANCH   8   9
HETATM    9  C   UNL     1     -10.401  16.055  67.023  1.00  0.00    -0.292 C  
BRANCH   9  10
HETATM   10  C   UNL     1      -9.449  14.877  67.237  1.00  0.00    -0.216 C  
BRANCH  10  11
HETATM   11  C   UNL     1      -9.746  13.641  66.380  1.00  0.00    -0.300 C  
BRANCH  11  12
HETATM   12  C   UNL     1      -9.122  12.358  66.943  1.00  0.00    -0.211 C  
BRANCH  12  13
HETATM   13  N   UNL     1     -10.028  11.118  66.808  1.00  0.00    -0.203 N  
HETATM   14  C   UNL     1     -11.231  11.228  67.736  1.00  0.00    -0.291 C  
HETATM   15  C   UNL     1     -10.510  10.957  65.371  1.00  0.00    -0.223 C  
BRANCH  13  16
HETATM   16  C   UNL     1      -9.160   9.874  67.201  1.00  0.00    -0.138 C  
BRANCH  16  17
HETATM   17  C   UNL     1      -9.933   8.706  67.760  1.00  0.00    -0.240 A  
HETATM   18  C   UNL     1     -10.011   8.499  69.148  1.00  0.00    -0.194 A  
HETATM   19  C   UNL     1     -10.542   7.315  69.656  1.00  0.00    -0.246 A  
HETATM   20  C   UNL     1     -11.026   6.339  68.787  1.00  0.00    -0.424 A  
HETATM   21  C   UNL     1     -11.025   6.565  67.414  1.00  0.00    -0.458 A  
HETATM   22  C   UNL     1     -10.496   7.749  66.901  1.00  0.00    -0.388 A  
ENDBRANCH  16  17
ENDBRANCH  13  16
ENDBRANCH  12  13
ENDBRANCH  11  12
ENDBRANCH  10  11
ENDBRANCH   9  10
ENDBRANCH   8   9
ENDBRANCH   7   8
ENDBRANCH   6   7
ENDBRANCH   5   6
ENDBRANCH   4   5
ENDBRANCH   3   4
ENDBRANCH   2   3
TORSDOF 13
ENDMDL
MODEL      204
REMARK 921   NORMALIZED FREE ENERGY PREDICTED BY IDOCK:   -3.42 KCAL/MOL
REMARK 922        TOTAL FREE ENERGY PREDICTED BY IDOCK:   -7.50 KCAL/MOL
REMARK 923 INTER-LIGAND FREE ENERGY PREDICTED BY IDOCK:   -5.94 KCAL/MOL
REMARK 924 INTRA-LIGAND FREE ENERGY PREDICTED BY IDOCK:   -1.56 KCAL/MOL
REMARK 927      BINDING AFFINITY PREDICTED BY RF-SCORE:    0.00 PKD
ROOT
HETATM    1  C   UNL     1     -10.583  15.212  65.134  1.00  0.00    -0.447 C  
HETATM    2  C   UNL     1     -11.825  14.623  64.487  1.00  0.00    -0.442 C  
ENDROOT
BRANCH   2   3
HETATM    3  C   UNL     1     -12.579  13.726  65.465  1.00  0.00    -0.551 C  
BRANCH   3   4
HETATM    4  C   UNL     1     -11.983  13.819  66.867  1.00  0.00    -0.460 C  
BRANCH   4   5
HETATM    5  C   UNL     1     -11.618  12.432  67.388  1.00  0.00    -0.433 C  
BRANCH   5   6
HETATM    6  C   UNL     1     -10.312  11.951  66.769  1.00  0.00    -0.238 C  
BRANCH   6   7
HETATM    7  C   UNL     1     -10.544  10.756  65.851  1.00  0.00    -0.216 C  
BRANCH   7   8
HETATM    8  C   UNL     1     -10.328   9.461  66.622  1.00  0.00    -0.284 C  
BRANCH   8   9
HETATM    9  C   UNL     1      -9.486   9.682  67.875  1.00  0.00    -0.148 C  
BRANCH   9  10
HETATM   10  C   UNL     1      -8.314   8.704  67.970  1.00  0.00    -0.123 C  
BRANCH  10  11
HETATM   11  C   UNL     1      -8.554   7.340  67.312  1.00  0.00    -0.121 C  
BRANCH  11  12
HETATM   12  C   UNL     1      -8.499   6.176  68.309  1.00  0.00    -0.113 C  
BRANCH  12  13
HETATM   13  N   UNL     1      -9.742   5.266  68.268  1.00  0.00    -0.133 N  
HETATM   14  C   UNL     1     -10.775   5.811  67.289  1.00  0.00    -0.261 C  
HETATM   15  C   UNL     1      -9.360   3.848  67.862  1.00  0.00    -0.177 C  
BRANCH  13  16
HETATM   16  C   UNL     1     -10.339   5.242  69.717  1.00  0.00    -0.299 C  
BRANCH  16  17
HETATM   17  C   UNL     1     -10.199   6.532  70.488  1.00  0.00    -0.224 A  
HETATM   18  C   UNL     1     -11.175   7.536  70.382  1.00  0.00    -0.270 A  
HETATM   19  C   UNL     1     -10.947   8.800  70.923  1.00  0.00    -0.315 A  
HETATM   20  C   UNL     1      -9.757   9.066  71.597  1.00  0.00    -0.347 A  
HETATM   21  C   UNL     1      -8.815   8.056  71.774  1.00  0.00    -0.184 A  
HETATM   22  C   UNL     1      -9.040   6.789  71.236  1.00  0.00    -0.150 A  
ENDBRANCH  16  17
ENDBRANCH  13  16
ENDBRANCH  12  13
ENDBRANCH  11  12
ENDBRANCH  10  11
ENDBRANCH   9  10
ENDBRANCH   8   9
ENDBRANCH   7   8
ENDBRANCH   6   7
ENDBRANCH   5   6
ENDBRANCH   4   5
ENDBRANCH   3   4
ENDBRANCH   2   3
TORSDOF 13
ENDMDL
MODEL      205
REMARK 921   NORMALIZED FREE ENERGY PREDICTED BY IDOCK:   -3.42 KCAL/MOL
REMARK 922        TOTAL FREE ENERGY PREDICTED BY IDOCK:   -7.50 KCAL/MOL
REMARK 923 INTER-LIGAND FREE ENERGY PREDICTED BY IDOCK:   -6.62 KCAL/MOL
REMARK 924 INTRA-LIGAND FREE ENERGY PREDICTED BY IDOCK:   -0.87 KCAL/MOL
REMARK 927      BINDING AFFINITY PREDICTED BY RF-SCORE:    0.00 PKD
ROOT
HETATM    1  C   UNL     1     -12.712  16.082  73.835  1.00  0.00    -0.706 C  
HETATM    2  C   UNL     1     -13.620  15.557  72.736  1.00  0.00    -0.653 C  
ENDROOT
BRANCH   2   3
HETATM    3  C   UNL     1     -13.440  14.052  72.549  1.00  0.00    -0.661 C  
BRANCH   3   4
HETATM    4  C   UNL     1     -12.785  13.739  71.207  1.00  0.00    -0.450 C  
BRANCH   4   5
HETATM    5  C   UNL     1     -12.280  15.017  70.544  1.00  0.00    -0.391 C  
BRANCH   5   6
HETATM    6  C   UNL     1     -10.770  15.140  70.694  1.00  0.00    -0.160 C  
BRANCH   6   7
HETATM    7  C   UNL     1     -10.071  15.014  69.344  1.00  0.00    -0.208 C  
BRANCH   7   8
HETATM    8  C   UNL     1     -11.102  15.034  68.223  1.00  0.00    -0.292 C  
BRANCH   8   9
HETATM    9  C   UNL     1     -11.023  13.779  67.360  1.00  0.00    -0.296 C  
BRANCH   9  10
HETATM   10  C   UNL     1     -12.035  12.714  67.784  1.00  0.00    -0.303 C  
BRANCH  10  11
HETATM   11  C   UNL     1     -11.444  11.321  68.031  1.00  0.00    -0.369 C  
BRANCH  11  12
HETATM   12  C   UNL     1      -9.961  11.359  68.418  1.00  0.00    -0.204 C  
BRANCH  12  13
HETATM   13  N   UNL     1      -9.076  10.423  67.571  1.00  0.00    -0.135 N  
HETATM   14  C   UNL     1      -7.865   9.959  68.372  1.00  0.00    -0.085 C  
HETATM   15  C   UNL     1      -9.869   9.209  67.103  1.00  0.00    -0.195 C  
BRANCH  13  16
HETATM   16  C   UNL     1      -8.609  11.244  66.321  1.00  0.00    -0.172 C  
BRANCH  16  17
HETATM   17  C   UNL     1      -8.767  10.539  64.997  1.00  0.00    -0.193 A  
HETATM   18  C   UNL     1      -7.999   9.402  64.697  1.00  0.00    -0.124 A  
HETATM   19  C   UNL     1      -7.991   8.878  63.405  1.00  0.00    -0.157 A  
HETATM   20  C   UNL     1      -8.769   9.465  62.410  1.00  0.00    -0.239 A  
HETATM   21  C   UNL     1      -9.593  10.545  62.714  1.00  0.00    -0.323 A  
HETATM   22  C   UNL     1      -9.606  11.072  64.005  1.00  0.00    -0.310 A  
ENDBRANCH  16  17
ENDBRANCH  13  16
ENDBRANCH  12  13
ENDBRANCH  11  12
ENDBRANCH  10  11
ENDBRANCH   9  10
ENDBRANCH   8   9
ENDBRANCH   7   8
ENDBRANCH   6   7
ENDBRANCH   5   6
ENDBRANCH   4   5
ENDBRANCH   3   4
ENDBRANCH   2   3
TORSDOF 13
ENDMDL
MODEL      206
REMARK 921   NORMALIZED FREE ENERGY PREDICTED BY IDOCK:   -3.42 KCAL/MOL
REMARK 922        TOTAL FREE ENERGY PREDICTED BY IDOCK:   -7.49 KCAL/MOL
REMARK 923 INTER-LIGAND FREE ENERGY PREDICTED BY IDOCK:   -6.15 KCAL/MOL
REMARK 924 INTRA-LIGAND FREE ENERGY PREDICTED BY IDOCK:   -1.34 KCAL/MOL
REMARK 927      BINDING AFFINITY PREDICTED BY RF-SCORE:    0.00 PKD
ROOT
HETATM    1  C   UNL     1     -12.362  13.294  65.679  1.00  0.00    -0.521 C  
HETATM    2  C   UNL     1     -12.273  13.650  67.153  1.00  0.00    -0.340 C  
ENDROOT
BRANCH   2   3
HETATM    3  C   UNL     1     -11.174  14.680  67.403  1.00  0.00    -0.351 C  
BRANCH   3   4
HETATM    4  C   UNL     1     -10.336  14.905  66.148  1.00  0.00    -0.312 C  
BRANCH   4   5
HETATM    5  C   UNL     1      -8.850  14.921  66.491  1.00  0.00    -0.256 C  
BRANCH   5   6
HETATM    6  C   UNL     1      -8.541  13.917  67.593  1.00  0.00    -0.190 C  
BRANCH   6   7
HETATM    7  C   UNL     1      -8.303  12.524  67.018  1.00  0.00    -0.144 C  
BRANCH   7   8
HETATM    8  C   UNL     1      -8.662  11.468  68.055  1.00  0.00    -0.151 C  
BRANCH   8   9
HETATM    9  C   UNL     1      -9.783  10.555  67.568  1.00  0.00    -0.190 C  
BRANCH   9  10
HETATM   10  C   UNL     1     -10.787  10.225  68.673  1.00  0.00    -0.272 C  
BRANCH  10  11
HETATM   11  C   UNL     1     -10.182  10.073  70.074  1.00  0.00    -0.306 C  
BRANCH  11  12
HETATM   12  C   UNL     1     -11.091   9.300  71.038  1.00  0.00    -0.326 C  
BRANCH  12  13
HETATM   13  N   UNL     1     -10.486   7.968  71.524  1.00  0.00    -0.212 N  
HETATM   14  C   UNL     1      -9.066   7.798  70.997  1.00  0.00    -0.147 C  
HETATM   15  C   UNL     1     -10.472   7.905  73.046  1.00  0.00    -0.343 C  
BRANCH  13  16
HETATM   16  C   UNL     1     -11.402   6.823  70.971  1.00  0.00    -0.309 C  
BRANCH  16  17
HETATM   17  C   UNL     1     -10.826   6.044  69.814  1.00  0.00    -0.433 A  
HETATM   18  C   UNL     1      -9.962   4.961  70.043  1.00  0.00    -0.323 A  
HETATM   19  C   UNL     1      -9.268   4.377  68.984  1.00  0.00    -0.201 A  
HETATM   20  C   UNL     1      -9.451   4.850  67.686  1.00  0.00    -0.166 A  
HETATM   21  C   UNL     1     -10.363   5.872  67.437  1.00  0.00    -0.274 A  
HETATM   22  C   UNL     1     -11.060   6.458  68.494  1.00  0.00    -0.385 A  
ENDBRANCH  16  17
ENDBRANCH  13  16
ENDBRANCH  12  13
ENDBRANCH  11  12
ENDBRANCH  10  11
ENDBRANCH   9  10
ENDBRANCH   8   9
ENDBRANCH   7   8
ENDBRANCH   6   7
ENDBRANCH   5   6
ENDBRANCH   4   5
ENDBRANCH   3   4
ENDBRANCH   2   3
TORSDOF 13
ENDMDL
MODEL      207
REMARK 921   NORMALIZED FREE ENERGY PREDICTED BY IDOCK:   -3.41 KCAL/MOL
REMARK 922        TOTAL FREE ENERGY PREDICTED BY IDOCK:   -7.47 KCAL/MOL
REMARK 923 INTER-LIGAND FREE ENERGY PREDICTED BY IDOCK:   -6.35 KCAL/MOL
REMARK 924 INTRA-LIGAND FREE ENERGY PREDICTED BY IDOCK:   -1.12 KCAL/MOL
REMARK 927      BINDING AFFINITY PREDICTED BY RF-SCORE:    0.00 PKD
ROOT
HETATM    1  C   UNL     1     -13.020  10.199  71.591  1.00  0.00    -0.561 C  
HETATM    2  C   UNL     1     -13.134   8.907  72.382  1.00  0.00    -0.476 C  
ENDROOT
BRANCH   2   3
HETATM    3  C   UNL     1     -13.503   7.738  71.471  1.00  0.00    -0.379 C  
BRANCH   3   4
HETATM    4  C   UNL     1     -12.307   6.820  71.243  1.00  0.00    -0.395 C  
BRANCH   4   5
HETATM    5  C   UNL     1     -11.766   6.301  72.573  1.00  0.00    -0.245 C  
BRANCH   5   6
HETATM    6  C   UNL     1     -10.247   6.395  72.609  1.00  0.00    -0.200 C  
BRANCH   6   7
HETATM    7  C   UNL     1      -9.791   7.757  73.122  1.00  0.00    -0.361 C  
BRANCH   7   8
HETATM    8  C   UNL     1      -9.135   8.543  71.994  1.00  0.00    -0.317 C  
BRANCH   8   9
HETATM    9  C   UNL     1      -8.537   7.620  70.936  1.00  0.00    -0.129 C  
BRANCH   9  10
HETATM   10  C   UNL     1      -7.656   8.372  69.938  1.00  0.00    -0.076 C  
BRANCH  10  11
HETATM   11  C   UNL     1      -8.320   8.679  68.591  1.00  0.00    -0.122 C  
BRANCH  11  12
HETATM   12  C   UNL     1      -8.939  10.081  68.534  1.00  0.00    -0.124 C  
BRANCH  12  13
HETATM   13  N   UNL     1      -9.094  10.631  67.102  1.00  0.00    -0.143 N  
HETATM   14  C   UNL     1      -8.399  11.980  66.966  1.00  0.00    -0.178 C  
HETATM   15  C   UNL     1      -8.512   9.657  66.084  1.00  0.00    -0.120 C  
BRANCH  13  16
HETATM   16  C   UNL     1     -10.631  10.791  66.839  1.00  0.00    -0.258 C  
BRANCH  16  17
HETATM   17  C   UNL     1     -11.249  12.047  67.401  1.00  0.00    -0.368 A  
HETATM   18  C   UNL     1     -11.647  13.090  66.548  1.00  0.00    -0.407 A  
HETATM   19  C   UNL     1     -12.021  14.326  67.074  1.00  0.00    -0.463 A  
HETATM   20  C   UNL     1     -12.028  14.524  68.452  1.00  0.00    -0.309 A  
HETATM   21  C   UNL     1     -11.709  13.475  69.310  1.00  0.00    -0.382 A  
HETATM   22  C   UNL     1     -11.336  12.236  68.789  1.00  0.00    -0.337 A  
ENDBRANCH  16  17
ENDBRANCH  13  16
ENDBRANCH  12  13
ENDBRANCH  11  12
ENDBRANCH  10  11
ENDBRANCH   9  10
ENDBRANCH   8   9
ENDBRANCH   7   8
ENDBRANCH   6   7
ENDBRANCH   5   6
ENDBRANCH   4   5
ENDBRANCH   3   4
ENDBRANCH   2   3
TORSDOF 13
ENDMDL
MODEL      208
REMARK 921   NORMALIZED FREE ENERGY PREDICTED BY IDOCK:   -3.39 KCAL/MOL
REMARK 922        TOTAL FREE ENERGY PREDICTED BY IDOCK:   -7.43 KCAL/MOL
REMARK 923 INTER-LIGAND FREE ENERGY PREDICTED BY IDOCK:   -6.72 KCAL/MOL
REMARK 924 INTRA-LIGAND FREE ENERGY PREDICTED BY IDOCK:   -0.71 KCAL/MOL
REMARK 927      BINDING AFFINITY PREDICTED BY RF-SCORE:    0.00 PKD
ROOT
HETATM    1  C   UNL     1     -12.808  15.750  73.404  1.00  0.00    -0.680 C  
HETATM    2  C   UNL     1     -13.968  15.531  72.447  1.00  0.00    -0.653 C  
ENDROOT
BRANCH   2   3
HETATM    3  C   UNL     1     -13.479  14.968  71.115  1.00  0.00    -0.503 C  
BRANCH   3   4
HETATM    4  C   UNL     1     -12.200  15.664  70.659  1.00  0.00    -0.446 C  
BRANCH   4   5
HETATM    5  C   UNL     1     -11.678  15.036  69.370  1.00  0.00    -0.351 C  
BRANCH   5   6
HETATM    6  C   UNL     1     -11.745  13.517  69.445  1.00  0.00    -0.381 C  
BRANCH   6   7
HETATM    7  C   UNL     1     -11.990  12.908  68.068  1.00  0.00    -0.323 C  
BRANCH   7   8
HETATM    8  C   UNL     1     -11.977  14.002  67.008  1.00  0.00    -0.472 C  
BRANCH   8   9
HETATM    9  C   UNL     1     -11.396  13.504  65.689  1.00  0.00    -0.312 C  
BRANCH   9  10
HETATM   10  C   UNL     1     -11.157  11.993  65.690  1.00  0.00    -0.361 C  
BRANCH  10  11
HETATM   11  C   UNL     1      -9.689  11.570  65.557  1.00  0.00    -0.259 C  
BRANCH  11  12
HETATM   12  C   UNL     1      -8.973  11.457  66.908  1.00  0.00    -0.171 C  
BRANCH  12  13
HETATM   13  N   UNL     1      -7.907  10.346  66.952  1.00  0.00    -0.112 N  
HETATM   14  C   UNL     1      -6.595  10.834  66.349  1.00  0.00    -0.128 C  
HETATM   15  C   UNL     1      -7.664   9.887  68.386  1.00  0.00    -0.084 C  
BRANCH  13  16
HETATM   16  C   UNL     1      -8.465   9.144  66.116  1.00  0.00    -0.129 C  
BRANCH  16  17
HETATM   17  C   UNL     1      -8.993   7.988  66.931  1.00  0.00    -0.160 A  
HETATM   18  C   UNL     1      -8.116   7.021  67.448  1.00  0.00    -0.116 A  
HETATM   19  C   UNL     1      -8.614   5.849  68.016  1.00  0.00    -0.113 A  
HETATM   20  C   UNL     1      -9.990   5.646  68.099  1.00  0.00    -0.186 A  
HETATM   21  C   UNL     1     -10.869   6.631  67.659  1.00  0.00    -0.393 A  
HETATM   22  C   UNL     1     -10.375   7.805  67.092  1.00  0.00    -0.389 A  
ENDBRANCH  16  17
ENDBRANCH  13  16
ENDBRANCH  12  13
ENDBRANCH  11  12
ENDBRANCH  10  11
ENDBRANCH   9  10
ENDBRANCH   8   9
ENDBRANCH   7   8
ENDBRANCH   6   7
ENDBRANCH   5   6
ENDBRANCH   4   5
ENDBRANCH   3   4
ENDBRANCH   2   3
TORSDOF 13
ENDMDL
MODEL      209
REMARK 921   NORMALIZED FREE ENERGY PREDICTED BY IDOCK:   -3.39 KCAL/MOL
REMARK 922        TOTAL FREE ENERGY PREDICTED BY IDOCK:   -7.43 KCAL/MOL
REMARK 923 INTER-LIGAND FREE ENERGY PREDICTED BY IDOCK:   -5.83 KCAL/MOL
REMARK 924 INTRA-LIGAND FREE ENERGY PREDICTED BY IDOCK:   -1.61 KCAL/MOL
REMARK 927      BINDING AFFINITY PREDICTED BY RF-SCORE:    0.00 PKD
ROOT
HETATM    1  C   UNL     1     -10.574   5.564  66.650  1.00  0.00    -0.365 C  
HETATM    2  C   UNL     1      -9.174   5.842  67.170  1.00  0.00    -0.115 C  
ENDROOT
BRANCH   2   3
HETATM    3  C   UNL     1      -8.531   4.570  67.718  1.00  0.00    -0.103 C  
BRANCH   3   4
HETATM    4  C   UNL     1      -7.972   4.796  69.119  1.00  0.00    -0.071 C  
BRANCH   4   5
HETATM    5  C   UNL     1      -8.437   3.693  70.067  1.00  0.00    -0.095 C  
BRANCH   5   6
HETATM    6  C   UNL     1      -9.770   4.060  70.706  1.00  0.00    -0.263 C  
BRANCH   6   7
HETATM    7  C   UNL     1      -9.838   5.551  71.021  1.00  0.00    -0.238 C  
BRANCH   7   8
HETATM    8  C   UNL     1     -11.139   6.135  70.486  1.00  0.00    -0.405 C  
BRANCH   8   9
HETATM    9  C   UNL     1     -10.951   7.559  69.974  1.00  0.00    -0.252 C  
BRANCH   9  10
HETATM   10  C   UNL     1      -9.562   8.115  70.292  1.00  0.00    -0.171 C  
BRANCH  10  11
HETATM   11  C   UNL     1      -8.864   8.820  69.124  1.00  0.00    -0.137 C  
BRANCH  11  12
HETATM   12  C   UNL     1      -9.201  10.314  69.038  1.00  0.00    -0.183 C  
BRANCH  12  13
HETATM   13  N   UNL     1      -9.296  10.845  67.594  1.00  0.00    -0.155 N  
HETATM   14  C   UNL     1      -8.727  12.255  67.501  1.00  0.00    -0.177 C  
HETATM   15  C   UNL     1      -8.544   9.932  66.633  1.00  0.00    -0.125 C  
BRANCH  13  16
HETATM   16  C   UNL     1     -10.815  10.854  67.211  1.00  0.00    -0.287 C  
BRANCH  16  17
HETATM   17  C   UNL     1     -11.210  11.884  66.182  1.00  0.00    -0.387 A  
HETATM   18  C   UNL     1     -11.932  13.029  66.558  1.00  0.00    -0.457 A  
HETATM   19  C   UNL     1     -12.475  13.870  65.588  1.00  0.00    -0.538 A  
HETATM   20  C   UNL     1     -12.279  13.594  64.237  1.00  0.00    -0.445 A  
HETATM   21  C   UNL     1     -11.501  12.505  63.853  1.00  0.00    -0.507 A  
HETATM   22  C   UNL     1     -10.954  11.662  64.820  1.00  0.00    -0.351 A  
ENDBRANCH  16  17
ENDBRANCH  13  16
ENDBRANCH  12  13
ENDBRANCH  11  12
ENDBRANCH  10  11
ENDBRANCH   9  10
ENDBRANCH   8   9
ENDBRANCH   7   8
ENDBRANCH   6   7
ENDBRANCH   5   6
ENDBRANCH   4   5
ENDBRANCH   3   4
ENDBRANCH   2   3
TORSDOF 13
ENDMDL
MODEL      210
REMARK 921   NORMALIZED FREE ENERGY PREDICTED BY IDOCK:   -3.39 KCAL/MOL
REMARK 922        TOTAL FREE ENERGY PREDICTED BY IDOCK:   -7.43 KCAL/MOL
REMARK 923 INTER-LIGAND FREE ENERGY PREDICTED BY IDOCK:   -6.09 KCAL/MOL
REMARK 924 INTRA-LIGAND FREE ENERGY PREDICTED BY IDOCK:   -1.34 KCAL/MOL
REMARK 927      BINDING AFFINITY PREDICTED BY RF-SCORE:    0.00 PKD
ROOT
HETATM    1  C   UNL     1     -10.639  13.935  65.104  1.00  0.00    -0.391 C  
HETATM    2  C   UNL     1     -11.579  13.272  66.097  1.00  0.00    -0.385 C  
ENDROOT
BRANCH   2   3
HETATM    3  C   UNL     1     -12.098  14.282  67.117  1.00  0.00    -0.412 C  
BRANCH   3   4
HETATM    4  C   UNL     1     -11.827  13.812  68.543  1.00  0.00    -0.406 C  
BRANCH   4   5
HETATM    5  C   UNL     1     -11.901  12.291  68.630  1.00  0.00    -0.354 C  
BRANCH   5   6
HETATM    6  C   UNL     1     -11.849  11.832  70.082  1.00  0.00    -0.408 C  
BRANCH   6   7
HETATM    7  C   UNL     1     -12.574  10.503  70.265  1.00  0.00    -0.306 C  
BRANCH   7   8
HETATM    8  C   UNL     1     -13.113  10.399  71.686  1.00  0.00    -0.553 C  
BRANCH   8   9
HETATM    9  C   UNL     1     -12.851   9.023  72.291  1.00  0.00    -0.474 C  
BRANCH   9  10
HETATM   10  C   UNL     1     -11.688   8.299  71.611  1.00  0.00    -0.341 C  
BRANCH  10  11
HETATM   11  C   UNL     1     -10.310   8.565  72.228  1.00  0.00    -0.402 C  
BRANCH  11  12
HETATM   12  C   UNL     1      -9.374   7.353  72.149  1.00  0.00    -0.135 C  
BRANCH  12  13
HETATM   13  N   UNL     1      -8.209   7.535  71.155  1.00  0.00    -0.100 N  
HETATM   14  C   UNL     1      -7.957   9.014  70.887  1.00  0.00    -0.164 C  
HETATM   15  C   UNL     1      -6.936   6.894  71.694  1.00  0.00    -0.070 C  
BRANCH  13  16
HETATM   16  C   UNL     1      -8.625   6.813  69.828  1.00  0.00    -0.141 C  
BRANCH  16  17
HETATM   17  C   UNL     1      -8.810   7.721  68.637  1.00  0.00    -0.131 A  
HETATM   18  C   UNL     1      -7.703   8.146  67.885  1.00  0.00    -0.114 A  
HETATM   19  C   UNL     1      -7.846   9.143  66.921  1.00  0.00    -0.098 A  
HETATM   20  C   UNL     1      -9.098   9.704  66.680  1.00  0.00    -0.176 A  
HETATM   21  C   UNL     1     -10.216   9.237  67.365  1.00  0.00    -0.304 A  
HETATM   22  C   UNL     1     -10.078   8.238  68.329  1.00  0.00    -0.231 A  
ENDBRANCH  16  17
ENDBRANCH  13  16
ENDBRANCH  12  13
ENDBRANCH  11  12
ENDBRANCH  10  11
ENDBRANCH   9  10
ENDBRANCH   8   9
ENDBRANCH   7   8
ENDBRANCH   6   7
ENDBRANCH   5   6
ENDBRANCH   4   5
ENDBRANCH   3   4
ENDBRANCH   2   3
TORSDOF 13
ENDMDL
MODEL      211
REMARK 921   NORMALIZED FREE ENERGY PREDICTED BY IDOCK:   -3.37 KCAL/MOL
REMARK 922        TOTAL FREE ENERGY PREDICTED BY IDOCK:   -7.41 KCAL/MOL
REMARK 923 INTER-LIGAND FREE ENERGY PREDICTED BY IDOCK:   -5.91 KCAL/MOL
REMARK 924 INTRA-LIGAND FREE ENERGY PREDICTED BY IDOCK:   -1.49 KCAL/MOL
REMARK 927      BINDING AFFINITY PREDICTED BY RF-SCORE:    0.00 PKD
ROOT
HETATM    1  C   UNL     1     -10.640   5.616  66.722  1.00  0.00    -0.372 C  
HETATM    2  C   UNL     1     -10.186   5.596  68.172  1.00  0.00    -0.236 C  
ENDROOT
BRANCH   2   3
HETATM    3  C   UNL     1     -11.212   6.275  69.076  1.00  0.00    -0.415 C  
BRANCH   3   4
HETATM    4  C   UNL     1     -10.907   6.015  70.548  1.00  0.00    -0.382 C  
BRANCH   4   5
HETATM    5  C   UNL     1     -12.004   6.596  71.435  1.00  0.00    -0.405 C  
BRANCH   5   6
HETATM    6  C   UNL     1     -11.424   7.604  72.418  1.00  0.00    -0.392 C  
BRANCH   6   7
HETATM    7  C   UNL     1     -10.699   8.731  71.689  1.00  0.00    -0.397 C  
BRANCH   7   8
HETATM    8  C   UNL     1      -9.244   8.786  72.137  1.00  0.00    -0.248 C  
BRANCH   8   9
HETATM    9  C   UNL     1      -8.294   8.936  70.953  1.00  0.00    -0.219 C  
BRANCH   9  10
HETATM   10  C   UNL     1      -9.033   9.228  69.646  1.00  0.00    -0.164 C  
BRANCH  10  11
HETATM   11  C   UNL     1      -8.873  10.658  69.117  1.00  0.00    -0.133 C  
BRANCH  11  12
HETATM   12  C   UNL     1     -10.184  11.250  68.586  1.00  0.00    -0.203 C  
BRANCH  12  13
HETATM   13  N   UNL     1     -10.022  12.028  67.265  1.00  0.00    -0.194 N  
HETATM   14  C   UNL     1     -10.683  13.397  67.362  1.00  0.00    -0.262 C  
HETATM   15  C   UNL     1      -8.547  12.201  66.919  1.00  0.00    -0.191 C  
BRANCH  13  16
HETATM   16  C   UNL     1     -10.714  11.177  66.147  1.00  0.00    -0.225 C  
BRANCH  16  17
HETATM   17  C   UNL     1      -9.774  10.410  65.251  1.00  0.00    -0.339 A  
HETATM   18  C   UNL     1      -9.555  10.821  63.926  1.00  0.00    -0.339 A  
HETATM   19  C   UNL     1      -8.857  10.003  63.040  1.00  0.00    -0.237 A  
HETATM   20  C   UNL     1      -8.346   8.781  63.473  1.00  0.00    -0.147 A  
HETATM   21  C   UNL     1      -8.490   8.398  64.804  1.00  0.00    -0.120 A  
HETATM   22  C   UNL     1      -9.187   9.215  65.695  1.00  0.00    -0.296 A  
ENDBRANCH  16  17
ENDBRANCH  13  16
ENDBRANCH  12  13
ENDBRANCH  11  12
ENDBRANCH  10  11
ENDBRANCH   9  10
ENDBRANCH   8   9
ENDBRANCH   7   8
ENDBRANCH   6   7
ENDBRANCH   5   6
ENDBRANCH   4   5
ENDBRANCH   3   4
ENDBRANCH   2   3
TORSDOF 13
ENDMDL
MODEL      212
REMARK 921   NORMALIZED FREE ENERGY PREDICTED BY IDOCK:   -3.37 KCAL/MOL
REMARK 922        TOTAL FREE ENERGY PREDICTED BY IDOCK:   -7.40 KCAL/MOL
REMARK 923 INTER-LIGAND FREE ENERGY PREDICTED BY IDOCK:   -6.31 KCAL/MOL
REMARK 924 INTRA-LIGAND FREE ENERGY PREDICTED BY IDOCK:   -1.09 KCAL/MOL
REMARK 927      BINDING AFFINITY PREDICTED BY RF-SCORE:    0.00 PKD
ROOT
HETATM    1  C   UNL     1     -10.700   5.848  68.196  1.00  0.00    -0.329 C  
HETATM    2  C   UNL     1     -10.642   5.639  69.700  1.00  0.00    -0.401 C  
ENDROOT
BRANCH   2   3
HETATM    3  C   UNL     1     -11.694   6.486  70.411  1.00  0.00    -0.439 C  
BRANCH   3   4
HETATM    4  C   UNL     1     -11.607   6.316  71.925  1.00  0.00    -0.369 C  
BRANCH   4   5
HETATM    5  C   UNL     1     -11.280   7.646  72.597  1.00  0.00    -0.419 C  
BRANCH   5   6
HETATM    6  C   UNL     1      -9.987   7.542  73.395  1.00  0.00    -0.378 C  
BRANCH   6   7
HETATM    7  C   UNL     1      -8.841   8.252  72.682  1.00  0.00    -0.304 C  
BRANCH   7   8
HETATM    8  C   UNL     1      -7.756   7.248  72.317  1.00  0.00    -0.095 C  
BRANCH   8   9
HETATM    9  C   UNL     1      -7.723   6.971  70.817  1.00  0.00    -0.095 C  
BRANCH   9  10
HETATM   10  C   UNL     1      -7.474   8.237  69.996  1.00  0.00    -0.064 C  
BRANCH  10  11
HETATM   11  C   UNL     1      -8.497   8.498  68.884  1.00  0.00    -0.123 C  
BRANCH  11  12
HETATM   12  C   UNL     1      -7.845   8.774  67.523  1.00  0.00    -0.102 C  
BRANCH  12  13
HETATM   13  N   UNL     1      -8.366  10.050  66.834  1.00  0.00    -0.124 N  
HETATM   14  C   UNL     1      -8.303  11.238  67.785  1.00  0.00    -0.125 C  
HETATM   15  C   UNL     1      -7.552  10.359  65.583  1.00  0.00    -0.150 C  
BRANCH  13  16
HETATM   16  C   UNL     1      -9.853   9.771  66.423  1.00  0.00    -0.235 C  
BRANCH  16  17
HETATM   17  C   UNL     1     -10.512  10.868  65.624  1.00  0.00    -0.274 A  
HETATM   18  C   UNL     1     -11.405  11.761  66.239  1.00  0.00    -0.350 A  
HETATM   19  C   UNL     1     -12.170  12.635  65.468  1.00  0.00    -0.501 A  
HETATM   20  C   UNL     1     -12.031  12.646  64.082  1.00  0.00    -0.501 A  
HETATM   21  C   UNL     1     -11.094  11.819  63.468  1.00  0.00    -0.503 A  
HETATM   22  C   UNL     1     -10.326  10.944  64.235  1.00  0.00    -0.436 A  
ENDBRANCH  16  17
ENDBRANCH  13  16
ENDBRANCH  12  13
ENDBRANCH  11  12
ENDBRANCH  10  11
ENDBRANCH   9  10
ENDBRANCH   8   9
ENDBRANCH   7   8
ENDBRANCH   6   7
ENDBRANCH   5   6
ENDBRANCH   4   5
ENDBRANCH   3   4
ENDBRANCH   2   3
TORSDOF 13
ENDMDL
MODEL      213
REMARK 921   NORMALIZED FREE ENERGY PREDICTED BY IDOCK:   -3.37 KCAL/MOL
REMARK 922        TOTAL FREE ENERGY PREDICTED BY IDOCK:   -7.40 KCAL/MOL
REMARK 923 INTER-LIGAND FREE ENERGY PREDICTED BY IDOCK:   -6.02 KCAL/MOL
REMARK 924 INTRA-LIGAND FREE ENERGY PREDICTED BY IDOCK:   -1.38 KCAL/MOL
REMARK 927      BINDING AFFINITY PREDICTED BY RF-SCORE:    0.00 PKD
ROOT
HETATM    1  C   UNL     1      -6.585  13.432  69.077  1.00  0.00    -0.107 C  
HETATM    2  C   UNL     1      -6.853  12.125  68.349  1.00  0.00    -0.073 C  
ENDROOT
BRANCH   2   3
HETATM    3  C   UNL     1      -6.020  12.030  67.072  1.00  0.00    -0.135 C  
BRANCH   3   4
HETATM    4  C   UNL     1      -5.582  10.593  66.807  1.00  0.00    -0.060 C  
BRANCH   4   5
HETATM    5  C   UNL     1      -6.795   9.682  66.650  1.00  0.00    -0.084 C  
BRANCH   5   6
HETATM    6  C   UNL     1      -6.984   9.285  65.191  1.00  0.00    -0.085 C  
BRANCH   6   7
HETATM    7  C   UNL     1      -8.036  10.157  64.515  1.00  0.00    -0.160 C  
BRANCH   7   8
HETATM    8  C   UNL     1      -9.428   9.730  64.962  1.00  0.00    -0.337 C  
BRANCH   8   9
HETATM    9  C   UNL     1     -10.295  10.929  65.333  1.00  0.00    -0.326 C  
BRANCH   9  10
HETATM   10  C   UNL     1     -11.231  11.346  64.198  1.00  0.00    -0.327 C  
BRANCH  10  11
HETATM   11  C   UNL     1     -11.667  12.816  64.225  1.00  0.00    -0.443 C  
BRANCH  11  12
HETATM   12  C   UNL     1     -10.505  13.781  64.491  1.00  0.00    -0.356 C  
BRANCH  12  13
HETATM   13  N   UNL     1     -10.662  14.596  65.790  1.00  0.00    -0.301 N  
HETATM   14  C   UNL     1      -9.480  14.358  66.720  1.00  0.00    -0.267 C  
HETATM   15  C   UNL     1     -10.773  16.084  65.482  1.00  0.00    -0.361 C  
BRANCH  13  16
HETATM   16  C   UNL     1     -11.987  14.113  66.473  1.00  0.00    -0.442 C  
BRANCH  16  17
HETATM   17  C   UNL     1     -11.873  13.805  67.945  1.00  0.00    -0.413 A  
HETATM   18  C   UNL     1     -11.690  12.484  68.386  1.00  0.00    -0.375 A  
HETATM   19  C   UNL     1     -11.794  12.172  69.741  1.00  0.00    -0.397 A  
HETATM   20  C   UNL     1     -12.051  13.178  70.670  1.00  0.00    -0.346 A  
HETATM   21  C   UNL     1     -12.158  14.502  70.253  1.00  0.00    -0.386 A  
HETATM   22  C   UNL     1     -12.053  14.819  68.899  1.00  0.00    -0.240 A  
ENDBRANCH  16  17
ENDBRANCH  13  16
ENDBRANCH  12  13
ENDBRANCH  11  12
ENDBRANCH  10  11
ENDBRANCH   9  10
ENDBRANCH   8   9
ENDBRANCH   7   8
ENDBRANCH   6   7
ENDBRANCH   5   6
ENDBRANCH   4   5
ENDBRANCH   3   4
ENDBRANCH   2   3
TORSDOF 13
ENDMDL
MODEL      214
REMARK 921   NORMALIZED FREE ENERGY PREDICTED BY IDOCK:   -3.36 KCAL/MOL
REMARK 922        TOTAL FREE ENERGY PREDICTED BY IDOCK:   -7.39 KCAL/MOL
REMARK 923 INTER-LIGAND FREE ENERGY PREDICTED BY IDOCK:   -6.18 KCAL/MOL
REMARK 924 INTRA-LIGAND FREE ENERGY PREDICTED BY IDOCK:   -1.20 KCAL/MOL
REMARK 927      BINDING AFFINITY PREDICTED BY RF-SCORE:    0.00 PKD
ROOT
HETATM    1  C   UNL     1     -12.246  15.075  70.202  1.00  0.00    -0.392 C  
HETATM    2  C   UNL     1     -11.761  14.750  68.799  1.00  0.00    -0.354 C  
ENDROOT
BRANCH   2   3
HETATM    3  C   UNL     1     -11.231  16.000  68.100  1.00  0.00    -0.325 C  
BRANCH   3   4
HETATM    4  C   UNL     1     -10.156  15.644  67.077  1.00  0.00    -0.253 C  
BRANCH   4   5
HETATM    5  C   UNL     1     -10.616  16.005  65.667  1.00  0.00    -0.392 C  
BRANCH   5   6
HETATM    6  C   UNL     1     -10.715  14.759  64.798  1.00  0.00    -0.380 C  
BRANCH   6   7
HETATM    7  C   UNL     1     -12.141  14.220  64.767  1.00  0.00    -0.457 C  
BRANCH   7   8
HETATM    8  C   UNL     1     -12.252  12.996  65.667  1.00  0.00    -0.521 C  
BRANCH   8   9
HETATM    9  C   UNL     1     -10.979  12.157  65.640  1.00  0.00    -0.337 C  
BRANCH   9  10
HETATM   10  C   UNL     1     -10.411  11.913  67.039  1.00  0.00    -0.253 C  
BRANCH  10  11
HETATM   11  C   UNL     1     -11.282  11.036  67.947  1.00  0.00    -0.375 C  
BRANCH  11  12
HETATM   12  C   UNL     1     -10.673  10.824  69.338  1.00  0.00    -0.233 C  
BRANCH  12  13
HETATM   13  N   UNL     1     -10.531   9.340  69.731  1.00  0.00    -0.212 N  
HETATM   14  C   UNL     1     -11.683   8.910  70.631  1.00  0.00    -0.179 C  
HETATM   15  C   UNL     1     -10.499   8.454  68.491  1.00  0.00    -0.164 C  
BRANCH  13  16
HETATM   16  C   UNL     1      -9.171   9.200  70.497  1.00  0.00    -0.241 C  
BRANCH  16  17
HETATM   17  C   UNL     1      -9.078   8.011  71.422  1.00  0.00    -0.175 A  
HETATM   18  C   UNL     1      -9.251   8.169  72.807  1.00  0.00    -0.341 A  
HETATM   19  C   UNL     1      -8.960   7.120  73.677  1.00  0.00    -0.214 A  
HETATM   20  C   UNL     1      -8.521   5.897  73.174  1.00  0.00    -0.116 A  
HETATM   21  C   UNL     1      -8.418   5.705  71.799  1.00  0.00    -0.127 A  
HETATM   22  C   UNL     1      -8.710   6.752  70.924  1.00  0.00    -0.142 A  
ENDBRANCH  16  17
ENDBRANCH  13  16
ENDBRANCH  12  13
ENDBRANCH  11  12
ENDBRANCH  10  11
ENDBRANCH   9  10
ENDBRANCH   8   9
ENDBRANCH   7   8
ENDBRANCH   6   7
ENDBRANCH   5   6
ENDBRANCH   4   5
ENDBRANCH   3   4
ENDBRANCH   2   3
TORSDOF 13
ENDMDL
MODEL      215
REMARK 921   NORMALIZED FREE ENERGY PREDICTED BY IDOCK:   -3.36 KCAL/MOL
REMARK 922        TOTAL FREE ENERGY PREDICTED BY IDOCK:   -7.39 KCAL/MOL
REMARK 923 INTER-LIGAND FREE ENERGY PREDICTED BY IDOCK:   -6.39 KCAL/MOL
REMARK 924 INTRA-LIGAND FREE ENERGY PREDICTED BY IDOCK:   -0.99 KCAL/MOL
REMARK 927      BINDING AFFINITY PREDICTED BY RF-SCORE:    0.00 PKD
ROOT
HETATM    1  C   UNL     1     -12.198  14.713  70.515  1.00  0.00    -0.389 C  
HETATM    2  C   UNL     1     -11.729  15.620  69.390  1.00  0.00    -0.395 C  
ENDROOT
BRANCH   2   3
HETATM    3  C   UNL     1     -10.999  14.823  68.311  1.00  0.00    -0.264 C  
BRANCH   3   4
HETATM    4  C   UNL     1     -11.986  14.139  67.370  1.00  0.00    -0.439 C  
BRANCH   4   5
HETATM    5  C   UNL     1     -11.773  12.628  67.375  1.00  0.00    -0.432 C  
BRANCH   5   6
HETATM    6  C   UNL     1     -10.460  12.272  68.059  1.00  0.00    -0.231 C  
BRANCH   6   7
HETATM    7  C   UNL     1     -10.660  11.171  69.094  1.00  0.00    -0.238 C  
BRANCH   7   8
HETATM    8  C   UNL     1     -12.140  11.031  69.423  1.00  0.00    -0.389 C  
BRANCH   8   9
HETATM    9  C   UNL     1     -12.395  11.105  70.925  1.00  0.00    -0.500 C  
BRANCH   9  10
HETATM   10  C   UNL     1     -13.336  10.001  71.412  1.00  0.00    -0.432 C  
BRANCH  10  11
HETATM   11  C   UNL     1     -12.673   8.920  72.275  1.00  0.00    -0.464 C  
BRANCH  11  12
HETATM   12  C   UNL     1     -11.942   7.858  71.446  1.00  0.00    -0.303 C  
BRANCH  12  13
HETATM   13  N   UNL     1     -10.548   7.496  71.996  1.00  0.00    -0.206 N  
HETATM   14  C   UNL     1      -9.625   8.707  71.960  1.00  0.00    -0.314 C  
HETATM   15  C   UNL     1     -10.650   6.979  73.426  1.00  0.00    -0.364 C  
BRANCH  13  16
HETATM   16  C   UNL     1      -9.977   6.360  71.079  1.00  0.00    -0.181 C  
BRANCH  16  17
HETATM   17  C   UNL     1      -9.439   5.156  71.812  1.00  0.00    -0.188 A  
HETATM   18  C   UNL     1     -10.272   4.060  72.092  1.00  0.00    -0.210 A  
HETATM   19  C   UNL     1      -9.840   3.046  72.945  1.00  0.00    -0.187 A  
HETATM   20  C   UNL     1      -8.564   3.101  73.503  1.00  0.00    -0.074 A  
HETATM   21  C   UNL     1      -7.702   4.143  73.172  1.00  0.00    -0.081 A  
HETATM   22  C   UNL     1      -8.130   5.159  72.318  1.00  0.00    -0.110 A  
ENDBRANCH  16  17
ENDBRANCH  13  16
ENDBRANCH  12  13
ENDBRANCH  11  12
ENDBRANCH  10  11
ENDBRANCH   9  10
ENDBRANCH   8   9
ENDBRANCH   7   8
ENDBRANCH   6   7
ENDBRANCH   5   6
ENDBRANCH   4   5
ENDBRANCH   3   4
ENDBRANCH   2   3
TORSDOF 13
ENDMDL
MODEL      216
REMARK 921   NORMALIZED FREE ENERGY PREDICTED BY IDOCK:   -3.34 KCAL/MOL
REMARK 922        TOTAL FREE ENERGY PREDICTED BY IDOCK:   -7.35 KCAL/MOL
REMARK 923 INTER-LIGAND FREE ENERGY PREDICTED BY IDOCK:   -5.85 KCAL/MOL
REMARK 924 INTRA-LIGAND FREE ENERGY PREDICTED BY IDOCK:   -1.51 KCAL/MOL
REMARK 927      BINDING AFFINITY PREDICTED BY RF-SCORE:    0.00 PKD
ROOT
HETATM    1  C   UNL     1      -8.014   6.025  63.251  1.00  0.00    -0.109 C  
HETATM    2  C   UNL     1      -7.899   6.396  64.720  1.00  0.00    -0.111 C  
ENDROOT
BRANCH   2   3
HETATM    3  C   UNL     1      -7.994   7.907  64.911  1.00  0.00    -0.138 C  
BRANCH   3   4
HETATM    4  C   UNL     1      -8.479   8.255  66.315  1.00  0.00    -0.134 C  
BRANCH   4   5
HETATM    5  C   UNL     1      -9.992   8.086  66.417  1.00  0.00    -0.215 C  
BRANCH   5   6
HETATM    6  C   UNL     1     -10.455   8.238  67.860  1.00  0.00    -0.259 C  
BRANCH   6   7
HETATM    7  C   UNL     1     -10.304   9.678  68.338  1.00  0.00    -0.233 C  
BRANCH   7   8
HETATM    8  C   UNL     1     -10.458   9.740  69.852  1.00  0.00    -0.298 C  
BRANCH   8   9
HETATM    9  C   UNL     1     -11.468  10.802  70.275  1.00  0.00    -0.406 C  
BRANCH   9  10
HETATM   10  C   UNL     1     -12.002  11.604  69.088  1.00  0.00    -0.378 C  
BRANCH  10  11
HETATM   11  C   UNL     1     -11.879  13.126  69.226  1.00  0.00    -0.377 C  
BRANCH  11  12
HETATM   12  C   UNL     1     -10.502  13.656  68.808  1.00  0.00    -0.202 C  
BRANCH  12  13
HETATM   13  N   UNL     1     -10.509  15.141  68.397  1.00  0.00    -0.229 N  
HETATM   14  C   UNL     1     -11.888  15.753  68.614  1.00  0.00    -0.275 C  
HETATM   15  C   UNL     1      -9.476  15.927  69.196  1.00  0.00    -0.260 C  
BRANCH  13  16
HETATM   16  C   UNL     1     -10.132  15.196  66.877  1.00  0.00    -0.255 C  
BRANCH  16  17
HETATM   17  C   UNL     1     -10.661  14.053  66.045  1.00  0.00    -0.297 A  
HETATM   18  C   UNL     1     -12.001  14.035  65.626  1.00  0.00    -0.408 A  
HETATM   19  C   UNL     1     -12.542  12.891  65.042  1.00  0.00    -0.538 A  
HETATM   20  C   UNL     1     -11.745  11.766  64.845  1.00  0.00    -0.187 A  
HETATM   21  C   UNL     1     -10.395  11.798  65.186  1.00  0.00    -0.323 A  
HETATM   22  C   UNL     1      -9.850  12.942  65.769  1.00  0.00    -0.216 A  
ENDBRANCH  16  17
ENDBRANCH  13  16
ENDBRANCH  12  13
ENDBRANCH  11  12
ENDBRANCH  10  11
ENDBRANCH   9  10
ENDBRANCH   8   9
ENDBRANCH   7   8
ENDBRANCH   6   7
ENDBRANCH   5   6
ENDBRANCH   4   5
ENDBRANCH   3   4
ENDBRANCH   2   3
TORSDOF 13
ENDMDL
MODEL      217
REMARK 921   NORMALIZED FREE ENERGY PREDICTED BY IDOCK:   -3.34 KCAL/MOL
REMARK 922        TOTAL FREE ENERGY PREDICTED BY IDOCK:   -7.35 KCAL/MOL
REMARK 923 INTER-LIGAND FREE ENERGY PREDICTED BY IDOCK:   -6.71 KCAL/MOL
REMARK 924 INTRA-LIGAND FREE ENERGY PREDICTED BY IDOCK:   -0.64 KCAL/MOL
REMARK 927      BINDING AFFINITY PREDICTED BY RF-SCORE:    0.00 PKD
ROOT
HETATM    1  C   UNL     1      -6.438  16.322  66.910  1.00  0.00    -0.075 C  
HETATM    2  C   UNL     1      -6.696  15.969  68.366  1.00  0.00    -0.120 C  
ENDROOT
BRANCH   2   3
HETATM    3  C   UNL     1      -7.636  16.982  69.016  1.00  0.00    -0.194 C  
BRANCH   3   4
HETATM    4  C   UNL     1      -6.994  18.365  69.081  1.00  0.00    -0.240 C  
BRANCH   4   5
HETATM    5  C   UNL     1      -8.020  19.449  68.764  1.00  0.00    -0.391 C  
BRANCH   5   6
HETATM    6  C   UNL     1      -9.375  18.830  68.445  1.00  0.00    -0.382 C  
BRANCH   6   7
HETATM    7  C   UNL     1     -10.126  19.656  67.406  1.00  0.00    -0.536 C  
BRANCH   7   8
HETATM    8  C   UNL     1     -10.557  18.765  66.249  1.00  0.00    -0.429 C  
BRANCH   8   9
HETATM    9  C   UNL     1      -9.669  17.532  66.124  1.00  0.00    -0.225 C  
BRANCH   9  10
HETATM   10  C   UNL     1     -10.417  16.330  65.545  1.00  0.00    -0.383 C  
BRANCH  10  11
HETATM   11  C   UNL     1      -9.840  14.962  65.928  1.00  0.00    -0.362 C  
BRANCH  11  12
HETATM   12  C   UNL     1     -10.205  13.857  64.929  1.00  0.00    -0.351 C  
BRANCH  12  13
HETATM   13  N   UNL     1     -11.700  13.483  64.940  1.00  0.00    -0.343 N  
HETATM   14  C   UNL     1     -12.213  13.359  66.370  1.00  0.00    -0.376 C  
HETATM   15  C   UNL     1     -12.523  14.529  64.197  1.00  0.00    -0.180 C  
BRANCH  13  16
HETATM   16  C   UNL     1     -11.832  12.107  64.203  1.00  0.00    -0.404 C  
BRANCH  16  17
HETATM   17  C   UNL     1     -10.625  11.208  64.306  1.00  0.00    -0.425 A  
HETATM   18  C   UNL     1     -10.264  10.635  65.537  1.00  0.00    -0.329 A  
HETATM   19  C   UNL     1      -9.042   9.980  65.678  1.00  0.00    -0.222 A  
HETATM   20  C   UNL     1      -8.182   9.866  64.588  1.00  0.00    -0.153 A  
HETATM   21  C   UNL     1      -8.561  10.363  63.344  1.00  0.00    -0.189 A  
HETATM   22  C   UNL     1      -9.785  11.017  63.198  1.00  0.00    -0.398 A  
ENDBRANCH  16  17
ENDBRANCH  13  16
ENDBRANCH  12  13
ENDBRANCH  11  12
ENDBRANCH  10  11
ENDBRANCH   9  10
ENDBRANCH   8   9
ENDBRANCH   7   8
ENDBRANCH   6   7
ENDBRANCH   5   6
ENDBRANCH   4   5
ENDBRANCH   3   4
ENDBRANCH   2   3
TORSDOF 13
ENDMDL
MODEL      218
REMARK 921   NORMALIZED FREE ENERGY PREDICTED BY IDOCK:   -3.34 KCAL/MOL
REMARK 922        TOTAL FREE ENERGY PREDICTED BY IDOCK:   -7.35 KCAL/MOL
REMARK 923 INTER-LIGAND FREE ENERGY PREDICTED BY IDOCK:   -6.11 KCAL/MOL
REMARK 924 INTRA-LIGAND FREE ENERGY PREDICTED BY IDOCK:   -1.23 KCAL/MOL
REMARK 927      BINDING AFFINITY PREDICTED BY RF-SCORE:    0.00 PKD
ROOT
HETATM    1  C   UNL     1      -9.495  15.967  65.592  1.00  0.00    -0.217 C  
HETATM    2  C   UNL     1     -10.642  16.831  66.088  1.00  0.00    -0.212 C  
ENDROOT
BRANCH   2   3
HETATM    3  C   UNL     1     -10.129  17.968  66.968  1.00  0.00    -0.348 C  
BRANCH   3   4
HETATM    4  C   UNL     1      -8.854  18.577  66.392  1.00  0.00    -0.267 C  
BRANCH   4   5
HETATM    5  C   UNL     1      -7.777  18.686  67.468  1.00  0.00    -0.240 C  
BRANCH   5   6
HETATM    6  C   UNL     1      -6.546  17.878  67.081  1.00  0.00    -0.196 C  
BRANCH   6   7
HETATM    7  C   UNL     1      -6.017  17.078  68.266  1.00  0.00    -0.134 C  
BRANCH   7   8
HETATM    8  C   UNL     1      -5.767  15.635  67.847  1.00  0.00    -0.154 C  
BRANCH   8   9
HETATM    9  C   UNL     1      -7.059  14.826  67.805  1.00  0.00    -0.191 C  
BRANCH   9  10
HETATM   10  C   UNL     1      -7.892  14.991  69.077  1.00  0.00    -0.170 C  
BRANCH  10  11
HETATM   11  C   UNL     1      -9.409  14.886  68.875  1.00  0.00    -0.197 C  
BRANCH  11  12
HETATM   12  C   UNL     1      -9.846  13.529  68.311  1.00  0.00    -0.233 C  
BRANCH  12  13
HETATM   13  N   UNL     1     -11.223  13.061  68.821  1.00  0.00    -0.266 N  
HETATM   14  C   UNL     1     -11.204  11.568  69.127  1.00  0.00    -0.274 C  
HETATM   15  C   UNL     1     -11.624  13.830  70.074  1.00  0.00    -0.195 C  
BRANCH  13  16
HETATM   16  C   UNL     1     -12.257  13.361  67.682  1.00  0.00    -0.159 C  
BRANCH  16  17
HETATM   17  C   UNL     1     -11.770  13.072  66.284  1.00  0.00    -0.440 A  
HETATM   18  C   UNL     1     -12.230  13.834  65.196  1.00  0.00    -0.453 A  
HETATM   19  C   UNL     1     -11.947  13.438  63.890  1.00  0.00    -0.520 A  
HETATM   20  C   UNL     1     -11.182  12.298  63.656  1.00  0.00    -0.539 A  
HETATM   21  C   UNL     1     -10.657  11.578  64.726  1.00  0.00    -0.362 A  
HETATM   22  C   UNL     1     -10.936  11.971  66.035  1.00  0.00    -0.346 A  
ENDBRANCH  16  17
ENDBRANCH  13  16
ENDBRANCH  12  13
ENDBRANCH  11  12
ENDBRANCH  10  11
ENDBRANCH   9  10
ENDBRANCH   8   9
ENDBRANCH   7   8
ENDBRANCH   6   7
ENDBRANCH   5   6
ENDBRANCH   4   5
ENDBRANCH   3   4
ENDBRANCH   2   3
TORSDOF 13
ENDMDL
MODEL      219
REMARK 921   NORMALIZED FREE ENERGY PREDICTED BY IDOCK:   -3.32 KCAL/MOL
REMARK 922        TOTAL FREE ENERGY PREDICTED BY IDOCK:   -7.32 KCAL/MOL
REMARK 923 INTER-LIGAND FREE ENERGY PREDICTED BY IDOCK:   -6.02 KCAL/MOL
REMARK 924 INTRA-LIGAND FREE ENERGY PREDICTED BY IDOCK:   -1.31 KCAL/MOL
REMARK 927      BINDING AFFINITY PREDICTED BY RF-SCORE:    0.00 PKD
ROOT
HETATM    1  C   UNL     1      -8.054  10.774  69.027  1.00  0.00    -0.140 C  
HETATM    2  C   UNL     1      -7.492   9.869  67.944  1.00  0.00    -0.089 C  
ENDROOT
BRANCH   2   3
HETATM    3  C   UNL     1      -6.962  10.686  66.768  1.00  0.00    -0.110 C  
BRANCH   3   4
HETATM    4  C   UNL     1      -7.900  10.596  65.568  1.00  0.00    -0.099 C  
BRANCH   4   5
HETATM    5  C   UNL     1      -8.995   9.563  65.819  1.00  0.00    -0.219 C  
BRANCH   5   6
HETATM    6  C   UNL     1     -10.360  10.126  65.447  1.00  0.00    -0.177 C  
BRANCH   6   7
HETATM    7  C   UNL     1     -10.233  11.505  64.809  1.00  0.00    -0.331 C  
BRANCH   7   8
HETATM    8  C   UNL     1     -11.617  12.075  64.528  1.00  0.00    -0.387 C  
BRANCH   8   9
HETATM    9  C   UNL     1     -11.540  13.474  63.924  1.00  0.00    -0.350 C  
BRANCH   9  10
HETATM   10  C   UNL     1     -10.501  14.354  64.621  1.00  0.00    -0.286 C  
BRANCH  10  11
HETATM   11  C   UNL     1     -10.986  15.033  65.907  1.00  0.00    -0.343 C  
BRANCH  11  12
HETATM   12  C   UNL     1     -10.347  14.447  67.172  1.00  0.00    -0.262 C  
BRANCH  12  13
HETATM   13  N   UNL     1     -10.624  15.272  68.444  1.00  0.00    -0.240 N  
HETATM   14  C   UNL     1      -9.527  15.049  69.479  1.00  0.00    -0.073 C  
HETATM   15  C   UNL     1     -10.714  16.757  68.115  1.00  0.00    -0.361 C  
BRANCH  13  16
HETATM   16  C   UNL     1     -12.002  14.787  69.011  1.00  0.00    -0.273 C  
BRANCH  16  17
HETATM   17  C   UNL     1     -12.085  13.312  69.316  1.00  0.00    -0.291 A  
HETATM   18  C   UNL     1     -12.376  12.867  70.616  1.00  0.00    -0.385 A  
HETATM   19  C   UNL     1     -12.248  11.519  70.945  1.00  0.00    -0.425 A  
HETATM   20  C   UNL     1     -11.856  10.599  69.975  1.00  0.00    -0.403 A  
HETATM   21  C   UNL     1     -11.639  11.016  68.665  1.00  0.00    -0.385 A  
HETATM   22  C   UNL     1     -11.768  12.364  68.331  1.00  0.00    -0.386 A  
ENDBRANCH  16  17
ENDBRANCH  13  16
ENDBRANCH  12  13
ENDBRANCH  11  12
ENDBRANCH  10  11
ENDBRANCH   9  10
ENDBRANCH   8   9
ENDBRANCH   7   8
ENDBRANCH   6   7
ENDBRANCH   5   6
ENDBRANCH   4   5
ENDBRANCH   3   4
ENDBRANCH   2   3
TORSDOF 13
ENDMDL
MODEL      220
REMARK 921   NORMALIZED FREE ENERGY PREDICTED BY IDOCK:   -3.31 KCAL/MOL
REMARK 922        TOTAL FREE ENERGY PREDICTED BY IDOCK:   -7.29 KCAL/MOL
REMARK 923 INTER-LIGAND FREE ENERGY PREDICTED BY IDOCK:   -6.59 KCAL/MOL
REMARK 924 INTRA-LIGAND FREE ENERGY PREDICTED BY IDOCK:   -0.70 KCAL/MOL
REMARK 927      BINDING AFFINITY PREDICTED BY RF-SCORE:    0.00 PKD
ROOT
HETATM    1  C   UNL     1     -12.976  15.843  73.283  1.00  0.00    -0.677 C  
HETATM    2  C   UNL     1     -14.151  15.389  72.432  1.00  0.00    -0.645 C  
ENDROOT
BRANCH   2   3
HETATM    3  C   UNL     1     -13.677  14.862  71.081  1.00  0.00    -0.452 C  
BRANCH   3   4
HETATM    4  C   UNL     1     -12.474  15.652  70.573  1.00  0.00    -0.440 C  
BRANCH   4   5
HETATM    5  C   UNL     1     -11.709  14.849  69.525  1.00  0.00    -0.353 C  
BRANCH   5   6
HETATM    6  C   UNL     1     -11.735  13.363  69.860  1.00  0.00    -0.337 C  
BRANCH   6   7
HETATM    7  C   UNL     1     -11.840  12.516  68.596  1.00  0.00    -0.340 C  
BRANCH   7   8
HETATM    8  C   UNL     1     -11.733  13.406  67.365  1.00  0.00    -0.415 C  
BRANCH   8   9
HETATM    9  C   UNL     1     -11.153  12.654  66.172  1.00  0.00    -0.327 C  
BRANCH   9  10
HETATM   10  C   UNL     1     -11.409  11.148  66.251  1.00  0.00     0.032 C  
BRANCH  10  11
HETATM   11  C   UNL     1     -10.147  10.277  66.274  1.00  0.00    -0.300 C  
BRANCH  11  12
HETATM   12  C   UNL     1     -10.108   9.312  67.466  1.00  0.00    -0.218 C  
BRANCH  12  13
HETATM   13  N   UNL     1      -9.167   8.110  67.257  1.00  0.00    -0.136 N  
HETATM   14  C   UNL     1      -8.532   8.157  65.872  1.00  0.00    -0.142 C  
HETATM   15  C   UNL     1      -8.070   8.093  68.315  1.00  0.00    -0.128 C  
BRANCH  13  16
HETATM   16  C   UNL     1     -10.040   6.816  67.402  1.00  0.00    -0.175 C  
BRANCH  16  17
HETATM   17  C   UNL     1     -10.066   6.213  68.784  1.00  0.00    -0.205 A  
HETATM   18  C   UNL     1      -9.245   5.117  69.101  1.00  0.00    -0.150 A  
HETATM   19  C   UNL     1      -9.418   4.431  70.302  1.00  0.00    -0.242 A  
HETATM   20  C   UNL     1     -10.390   4.848  71.209  1.00  0.00    -0.219 A  
HETATM   21  C   UNL     1     -11.156   5.978  70.941  1.00  0.00    -0.352 A  
HETATM   22  C   UNL     1     -10.986   6.669  69.741  1.00  0.00    -0.367 A  
ENDBRANCH  16  17
ENDBRANCH  13  16
ENDBRANCH  12  13
ENDBRANCH  11  12
ENDBRANCH  10  11
ENDBRANCH   9  10
ENDBRANCH   8   9
ENDBRANCH   7   8
ENDBRANCH   6   7
ENDBRANCH   5   6
ENDBRANCH   4   5
ENDBRANCH   3   4
ENDBRANCH   2   3
TORSDOF 13
ENDMDL
MODEL      221
REMARK 921   NORMALIZED FREE ENERGY PREDICTED BY IDOCK:   -3.30 KCAL/MOL
REMARK 922        TOTAL FREE ENERGY PREDICTED BY IDOCK:   -7.28 KCAL/MOL
REMARK 923 INTER-LIGAND FREE ENERGY PREDICTED BY IDOCK:   -5.42 KCAL/MOL
REMARK 924 INTRA-LIGAND FREE ENERGY PREDICTED BY IDOCK:   -1.86 KCAL/MOL
REMARK 927      BINDING AFFINITY PREDICTED BY RF-SCORE:    0.00 PKD
ROOT
HETATM    1  C   UNL     1     -10.597   5.505  70.018  1.00  0.00    -0.384 C  
HETATM    2  C   UNL     1     -11.698   6.533  70.217  1.00  0.00    -0.430 C  
ENDROOT
BRANCH   2   3
HETATM    3  C   UNL     1     -12.115   6.611  71.684  1.00  0.00    -0.404 C  
BRANCH   3   4
HETATM    4  C   UNL     1     -10.973   6.192  72.604  1.00  0.00    -0.291 C  
BRANCH   4   5
HETATM    5  C   UNL     1     -10.442   7.392  73.382  1.00  0.00    -0.419 C  
BRANCH   5   6
HETATM    6  C   UNL     1      -9.228   7.991  72.685  1.00  0.00    -0.304 C  
BRANCH   6   7
HETATM    7  C   UNL     1      -7.966   7.193  72.994  1.00  0.00    -0.115 C  
BRANCH   7   8
HETATM    8  C   UNL     1      -7.400   6.599  71.711  1.00  0.00    -0.086 C  
BRANCH   8   9
HETATM    9  C   UNL     1      -7.463   7.591  70.553  1.00  0.00    -0.080 C  
BRANCH   9  10
HETATM   10  C   UNL     1      -6.616   7.148  69.360  1.00  0.00    -0.044 C  
BRANCH  10  11
HETATM   11  C   UNL     1      -7.355   7.118  68.017  1.00  0.00    -0.097 C  
BRANCH  11  12
HETATM   12  C   UNL     1      -8.683   7.885  68.046  1.00  0.00    -0.125 C  
BRANCH  12  13
HETATM   13  N   UNL     1      -8.638   9.228  67.290  1.00  0.00    -0.124 N  
HETATM   14  C   UNL     1      -7.458   9.263  66.326  1.00  0.00    -0.096 C  
HETATM   15  C   UNL     1      -9.931   9.454  66.515  1.00  0.00    -0.269 C  
BRANCH  13  16
HETATM   16  C   UNL     1      -8.482  10.354  68.368  1.00  0.00    -0.124 C  
BRANCH  16  17
HETATM   17  C   UNL     1      -9.738  10.682  69.138  1.00  0.00    -0.205 A  
HETATM   18  C   UNL     1     -10.162   9.860  70.195  1.00  0.00    -0.326 A  
HETATM   19  C   UNL     1     -11.421  10.040  70.766  1.00  0.00    -0.438 A  
HETATM   20  C   UNL     1     -12.256  11.056  70.307  1.00  0.00    -0.447 A  
HETATM   21  C   UNL     1     -11.816  11.925  69.312  1.00  0.00    -0.379 A  
HETATM   22  C   UNL     1     -10.556  11.750  68.739  1.00  0.00    -0.234 A  
ENDBRANCH  16  17
ENDBRANCH  13  16
ENDBRANCH  12  13
ENDBRANCH  11  12
ENDBRANCH  10  11
ENDBRANCH   9  10
ENDBRANCH   8   9
ENDBRANCH   7   8
ENDBRANCH   6   7
ENDBRANCH   5   6
ENDBRANCH   4   5
ENDBRANCH   3   4
ENDBRANCH   2   3
TORSDOF 13
ENDMDL
MODEL      222
REMARK 921   NORMALIZED FREE ENERGY PREDICTED BY IDOCK:   -3.30 KCAL/MOL
REMARK 922        TOTAL FREE ENERGY PREDICTED BY IDOCK:   -7.28 KCAL/MOL
REMARK 923 INTER-LIGAND FREE ENERGY PREDICTED BY IDOCK:   -6.50 KCAL/MOL
REMARK 924 INTRA-LIGAND FREE ENERGY PREDICTED BY IDOCK:   -0.78 KCAL/MOL
REMARK 927      BINDING AFFINITY PREDICTED BY RF-SCORE:    0.00 PKD
ROOT
HETATM    1  C   UNL     1     -11.918  10.038  71.030  1.00  0.00    -0.469 C  
HETATM    2  C   UNL     1     -13.037   9.116  71.486  1.00  0.00    -0.409 C  
ENDROOT
BRANCH   2   3
HETATM    3  C   UNL     1     -12.560   7.668  71.553  1.00  0.00    -0.369 C  
BRANCH   3   4
HETATM    4  C   UNL     1     -11.121   7.539  71.063  1.00  0.00    -0.274 C  
BRANCH   4   5
HETATM    5  C   UNL     1     -10.920   6.216  70.330  1.00  0.00    -0.417 C  
BRANCH   5   6
HETATM    6  C   UNL     1     -11.214   6.374  68.844  1.00  0.00    -0.385 C  
BRANCH   6   7
HETATM    7  C   UNL     1     -10.771   7.743  68.337  1.00  0.00    -0.088 C  
BRANCH   7   8
HETATM    8  C   UNL     1     -10.605   7.706  66.823  1.00  0.00    -0.256 C  
BRANCH   8   9
HETATM    9  C   UNL     1      -9.203   8.129  66.398  1.00  0.00    -0.250 C  
BRANCH   9  10
HETATM   10  C   UNL     1      -9.223   9.164  65.272  1.00  0.00    -0.243 C  
BRANCH  10  11
HETATM   11  C   UNL     1     -10.285  10.260  65.419  1.00  0.00    -0.312 C  
BRANCH  11  12
HETATM   12  C   UNL     1      -9.684  11.664  65.548  1.00  0.00    -0.232 C  
BRANCH  12  13
HETATM   13  N   UNL     1     -10.216  12.456  66.758  1.00  0.00    -0.218 N  
HETATM   14  C   UNL     1     -11.160  11.597  67.590  1.00  0.00    -0.255 C  
HETATM   15  C   UNL     1      -9.067  12.940  67.635  1.00  0.00    -0.194 C  
BRANCH  13  16
HETATM   16  C   UNL     1     -10.985  13.697  66.188  1.00  0.00    -0.284 C  
BRANCH  16  17
HETATM   17  C   UNL     1     -10.740  14.994  66.920  1.00  0.00    -0.308 A  
HETATM   18  C   UNL     1      -9.853  15.951  66.399  1.00  0.00    -0.302 A  
HETATM   19  C   UNL     1      -9.467  17.046  67.170  1.00  0.00    -0.245 A  
HETATM   20  C   UNL     1      -9.983  17.213  68.453  1.00  0.00    -0.310 A  
HETATM   21  C   UNL     1     -10.921  16.312  68.950  1.00  0.00    -0.334 A  
HETATM   22  C   UNL     1     -11.311  15.215  68.182  1.00  0.00    -0.345 A  
ENDBRANCH  16  17
ENDBRANCH  13  16
ENDBRANCH  12  13
ENDBRANCH  11  12
ENDBRANCH  10  11
ENDBRANCH   9  10
ENDBRANCH   8   9
ENDBRANCH   7   8
ENDBRANCH   6   7
ENDBRANCH   5   6
ENDBRANCH   4   5
ENDBRANCH   3   4
ENDBRANCH   2   3
TORSDOF 13
ENDMDL
MODEL      223
REMARK 921   NORMALIZED FREE ENERGY PREDICTED BY IDOCK:   -3.29 KCAL/MOL
REMARK 922        TOTAL FREE ENERGY PREDICTED BY IDOCK:   -7.26 KCAL/MOL
REMARK 923 INTER-LIGAND FREE ENERGY PREDICTED BY IDOCK:   -6.36 KCAL/MOL
REMARK 924 INTRA-LIGAND FREE ENERGY PREDICTED BY IDOCK:   -0.90 KCAL/MOL
REMARK 927      BINDING AFFINITY PREDICTED BY RF-SCORE:    0.00 PKD
ROOT
HETATM    1  C   UNL     1     -10.770   7.767  67.132  1.00  0.00    -0.337 C  
HETATM    2  C   UNL     1      -9.570   8.454  66.501  1.00  0.00    -0.304 C  
ENDROOT
BRANCH   2   3
HETATM    3  C   UNL     1     -10.002   9.670  65.686  1.00  0.00    -0.321 C  
BRANCH   3   4
HETATM    4  C   UNL     1      -9.688  10.967  66.426  1.00  0.00    -0.235 C  
BRANCH   4   5
HETATM    5  C   UNL     1     -10.969  11.614  66.944  1.00  0.00    -0.342 C  
BRANCH   5   6
HETATM    6  C   UNL     1     -10.648  12.754  67.901  1.00  0.00    -0.232 C  
BRANCH   6   7
HETATM    7  C   UNL     1     -11.651  12.809  69.049  1.00  0.00    -0.366 C  
BRANCH   7   8
HETATM    8  C   UNL     1     -12.148  11.405  69.370  1.00  0.00    -0.358 C  
BRANCH   8   9
HETATM    9  C   UNL     1     -12.375  11.215  70.867  1.00  0.00    -0.500 C  
BRANCH   9  10
HETATM   10  C   UNL     1     -11.827   9.880  71.375  1.00  0.00    -0.476 C  
BRANCH  10  11
HETATM   11  C   UNL     1     -10.523   9.421  70.712  1.00  0.00    -0.372 C  
BRANCH  11  12
HETATM   12  C   UNL     1      -9.560   8.740  71.692  1.00  0.00    -0.293 C  
BRANCH  12  13
HETATM   13  N   UNL     1      -9.201   7.293  71.301  1.00  0.00    -0.150 N  
HETATM   14  C   UNL     1      -8.447   7.266  69.977  1.00  0.00    -0.139 C  
HETATM   15  C   UNL     1      -8.348   6.638  72.381  1.00  0.00    -0.106 C  
BRANCH  13  16
HETATM   16  C   UNL     1     -10.550   6.508  71.166  1.00  0.00    -0.229 C  
BRANCH  16  17
HETATM   17  C   UNL     1     -10.582   5.167  71.855  1.00  0.00    -0.256 A  
HETATM   18  C   UNL     1     -11.176   5.028  73.121  1.00  0.00    -0.408 A  
HETATM   19  C   UNL     1     -11.023   3.848  73.846  1.00  0.00    -0.285 A  
HETATM   20  C   UNL     1     -10.301   2.786  73.305  1.00  0.00    -0.222 A  
HETATM   21  C   UNL     1      -9.773   2.884  72.021  1.00  0.00    -0.230 A  
HETATM   22  C   UNL     1      -9.925   4.062  71.291  1.00  0.00    -0.202 A  
ENDBRANCH  16  17
ENDBRANCH  13  16
ENDBRANCH  12  13
ENDBRANCH  11  12
ENDBRANCH  10  11
ENDBRANCH   9  10
ENDBRANCH   8   9
ENDBRANCH   7   8
ENDBRANCH   6   7
ENDBRANCH   5   6
ENDBRANCH   4   5
ENDBRANCH   3   4
ENDBRANCH   2   3
TORSDOF 13
ENDMDL
MODEL      224
REMARK 921   NORMALIZED FREE ENERGY PREDICTED BY IDOCK:   -3.28 KCAL/MOL
REMARK 922        TOTAL FREE ENERGY PREDICTED BY IDOCK:   -7.25 KCAL/MOL
REMARK 923 INTER-LIGAND FREE ENERGY PREDICTED BY IDOCK:   -4.68 KCAL/MOL
REMARK 924 INTRA-LIGAND FREE ENERGY PREDICTED BY IDOCK:   -2.57 KCAL/MOL
REMARK 927      BINDING AFFINITY PREDICTED BY RF-SCORE:    0.00 PKD
ROOT
HETATM    1  C   UNL     1     -10.930   5.865  67.173  1.00  0.00    -0.289 C  
HETATM    2  C   UNL     1      -9.917   5.490  66.104  1.00  0.00    -0.133 C  
ENDROOT
BRANCH   2   3
HETATM    3  C   UNL     1      -9.823   3.974  65.948  1.00  0.00    -0.179 C  
BRANCH   3   4
HETATM    4  C   UNL     1      -8.643   3.412  66.735  1.00  0.00    -0.116 C  
BRANCH   4   5
HETATM    5  C   UNL     1      -9.123   2.405  67.776  1.00  0.00    -0.222 C  
BRANCH   5   6
HETATM    6  C   UNL     1      -9.344   3.086  69.121  1.00  0.00    -0.220 C  
BRANCH   6   7
HETATM    7  C   UNL     1      -8.246   4.104  69.410  1.00  0.00    -0.067 C  
BRANCH   7   8
HETATM    8  C   UNL     1      -8.811   5.255  70.233  1.00  0.00    -0.145 C  
BRANCH   8   9
HETATM    9  C   UNL     1      -7.911   6.486  70.175  1.00  0.00    -0.112 C  
BRANCH   9  10
HETATM   10  C   UNL     1      -7.533   6.865  68.742  1.00  0.00    -0.099 C  
BRANCH  10  11
HETATM   11  C   UNL     1      -8.268   8.088  68.181  1.00  0.00    -0.126 C  
BRANCH  11  12
HETATM   12  C   UNL     1      -8.669   9.095  69.266  1.00  0.00    -0.139 C  
BRANCH  12  13
HETATM   13  N   UNL     1      -9.792  10.057  68.832  1.00  0.00    -0.175 N  
HETATM   14  C   UNL     1      -9.243  11.462  68.615  1.00  0.00    -0.146 C  
HETATM   15  C   UNL     1     -10.454   9.570  67.548  1.00  0.00    -0.275 C  
BRANCH  13  16
HETATM   16  C   UNL     1     -10.854  10.069  69.984  1.00  0.00    -0.302 C  
BRANCH  16  17
HETATM   17  C   UNL     1     -10.807   8.879  70.910  1.00  0.00    -0.308 A  
HETATM   18  C   UNL     1     -11.619   7.757  70.673  1.00  0.00    -0.233 A  
HETATM   19  C   UNL     1     -11.732   6.753  71.633  1.00  0.00    -0.357 A  
HETATM   20  C   UNL     1     -11.015   6.844  72.824  1.00  0.00    -0.315 A  
HETATM   21  C   UNL     1     -10.148   7.912  73.037  1.00  0.00    -0.384 A  
HETATM   22  C   UNL     1     -10.031   8.918  72.078  1.00  0.00    -0.338 A  
ENDBRANCH  16  17
ENDBRANCH  13  16
ENDBRANCH  12  13
ENDBRANCH  11  12
ENDBRANCH  10  11
ENDBRANCH   9  10
ENDBRANCH   8   9
ENDBRANCH   7   8
ENDBRANCH   6   7
ENDBRANCH   5   6
ENDBRANCH   4   5
ENDBRANCH   3   4
ENDBRANCH   2   3
TORSDOF 13
ENDMDL
MODEL      225
REMARK 921   NORMALIZED FREE ENERGY PREDICTED BY IDOCK:   -3.28 KCAL/MOL
REMARK 922        TOTAL FREE ENERGY PREDICTED BY IDOCK:   -7.25 KCAL/MOL
REMARK 923 INTER-LIGAND FREE ENERGY PREDICTED BY IDOCK:   -6.46 KCAL/MOL
REMARK 924 INTRA-LIGAND FREE ENERGY PREDICTED BY IDOCK:   -0.79 KCAL/MOL
REMARK 927      BINDING AFFINITY PREDICTED BY RF-SCORE:    0.00 PKD
ROOT
HETATM    1  C   UNL     1     -11.836  15.220  72.834  1.00  0.00    -0.510 C  
HETATM    2  C   UNL     1     -12.468  15.797  71.578  1.00  0.00    -0.515 C  
ENDROOT
BRANCH   2   3
HETATM    3  C   UNL     1     -12.589  14.734  70.489  1.00  0.00    -0.416 C  
BRANCH   3   4
HETATM    4  C   UNL     1     -11.728  15.087  69.279  1.00  0.00    -0.349 C  
BRANCH   4   5
HETATM    5  C   UNL     1     -11.645  13.905  68.317  1.00  0.00    -0.372 C  
BRANCH   5   6
HETATM    6  C   UNL     1     -11.692  12.587  69.078  1.00  0.00    -0.368 C  
BRANCH   6   7
HETATM    7  C   UNL     1     -11.774  11.401  68.122  1.00  0.00    -0.355 C  
BRANCH   7   8
HETATM    8  C   UNL     1     -10.403  11.127  67.518  1.00  0.00    -0.228 C  
BRANCH   8   9
HETATM    9  C   UNL     1      -9.342  10.919  68.595  1.00  0.00    -0.188 C  
BRANCH   9  10
HETATM   10  C   UNL     1      -9.238   9.458  69.037  1.00  0.00    -0.145 C  
BRANCH  10  11
HETATM   11  C   UNL     1      -9.527   9.210  70.522  1.00  0.00    -0.291 C  
BRANCH  11  12
HETATM   12  C   UNL     1     -10.310   7.915  70.771  1.00  0.00    -0.203 C  
BRANCH  12  13
HETATM   13  N   UNL     1     -11.634   8.129  71.532  1.00  0.00    -0.265 N  
HETATM   14  C   UNL     1     -12.065   9.588  71.459  1.00  0.00    -0.389 C  
HETATM   15  C   UNL     1     -12.735   7.246  70.956  1.00  0.00    -0.238 C  
BRANCH  13  16
HETATM   16  C   UNL     1     -11.375   7.720  73.022  1.00  0.00    -0.273 C  
BRANCH  16  17
HETATM   17  C   UNL     1     -10.649   6.410  73.210  1.00  0.00    -0.291 A  
HETATM   18  C   UNL     1     -11.333   5.190  73.077  1.00  0.00    -0.381 A  
HETATM   19  C   UNL     1     -10.722   3.995  73.453  1.00  0.00    -0.299 A  
HETATM   20  C   UNL     1      -9.416   4.003  73.937  1.00  0.00    -0.116 A  
HETATM   21  C   UNL     1      -8.702   5.196  74.001  1.00  0.00    -0.117 A  
HETATM   22  C   UNL     1      -9.309   6.394  73.624  1.00  0.00    -0.150 A  
ENDBRANCH  16  17
ENDBRANCH  13  16
ENDBRANCH  12  13
ENDBRANCH  11  12
ENDBRANCH  10  11
ENDBRANCH   9  10
ENDBRANCH   8   9
ENDBRANCH   7   8
ENDBRANCH   6   7
ENDBRANCH   5   6
ENDBRANCH   4   5
ENDBRANCH   3   4
ENDBRANCH   2   3
TORSDOF 13
ENDMDL
MODEL      226
REMARK 921   NORMALIZED FREE ENERGY PREDICTED BY IDOCK:   -3.28 KCAL/MOL
REMARK 922        TOTAL FREE ENERGY PREDICTED BY IDOCK:   -7.24 KCAL/MOL
REMARK 923 INTER-LIGAND FREE ENERGY PREDICTED BY IDOCK:   -5.49 KCAL/MOL
REMARK 924 INTRA-LIGAND FREE ENERGY PREDICTED BY IDOCK:   -1.75 KCAL/MOL
REMARK 927      BINDING AFFINITY PREDICTED BY RF-SCORE:    0.00 PKD
ROOT
HETATM    1  C   UNL     1     -10.604   8.799  68.988  1.00  0.00    -0.191 C  
HETATM    2  C   UNL     1      -9.663   9.808  69.624  1.00  0.00    -0.242 C  
ENDROOT
BRANCH   2   3
HETATM    3  C   UNL     1      -8.495  10.128  68.695  1.00  0.00    -0.122 C  
BRANCH   3   4
HETATM    4  C   UNL     1      -8.353  11.633  68.488  1.00  0.00    -0.140 C  
BRANCH   4   5
HETATM    5  C   UNL     1      -9.604  12.205  67.827  1.00  0.00    -0.195 C  
BRANCH   5   6
HETATM    6  C   UNL     1      -9.710  11.737  66.382  1.00  0.00    -0.234 C  
BRANCH   6   7
HETATM    7  C   UNL     1     -11.140  11.864  65.866  1.00  0.00    -0.365 C  
BRANCH   7   8
HETATM    8  C   UNL     1     -11.750  13.174  66.347  1.00  0.00    -0.429 C  
BRANCH   8   9
HETATM    9  C   UNL     1     -12.651  13.800  65.288  1.00  0.00    -0.510 C  
BRANCH   9  10
HETATM   10  C   UNL     1     -11.961  14.938  64.534  1.00  0.00    -0.420 C  
BRANCH  10  11
HETATM   11  C   UNL     1     -10.656  15.436  65.166  1.00  0.00    -0.458 C  
BRANCH  11  12
HETATM   12  C   UNL     1     -10.605  16.962  65.311  1.00  0.00    -0.120 C  
BRANCH  12  13
HETATM   13  N   UNL     1      -9.866  17.438  66.577  1.00  0.00    -0.291 N  
HETATM   14  C   UNL     1      -8.530  18.074  66.212  1.00  0.00    -0.184 C  
HETATM   15  C   UNL     1     -10.712  18.445  67.348  1.00  0.00    -0.361 C  
BRANCH  13  16
HETATM   16  C   UNL     1      -9.631  16.173  67.471  1.00  0.00    -0.229 C  
BRANCH  16  17
HETATM   17  C   UNL     1      -8.204  15.955  67.909  1.00  0.00    -0.151 A  
HETATM   18  C   UNL     1      -7.379  15.046  67.225  1.00  0.00    -0.195 A  
HETATM   19  C   UNL     1      -6.138  14.689  67.750  1.00  0.00    -0.136 A  
HETATM   20  C   UNL     1      -5.696  15.256  68.944  1.00  0.00    -0.098 A  
HETATM   21  C   UNL     1      -6.471  16.215  69.590  1.00  0.00    -0.190 A  
HETATM   22  C   UNL     1      -7.713  16.576  69.067  1.00  0.00    -0.228 A  
ENDBRANCH  16  17
ENDBRANCH  13  16
ENDBRANCH  12  13
ENDBRANCH  11  12
ENDBRANCH  10  11
ENDBRANCH   9  10
ENDBRANCH   8   9
ENDBRANCH   7   8
ENDBRANCH   6   7
ENDBRANCH   5   6
ENDBRANCH   4   5
ENDBRANCH   3   4
ENDBRANCH   2   3
TORSDOF 13
ENDMDL
MODEL      227
REMARK 921   NORMALIZED FREE ENERGY PREDICTED BY IDOCK:   -3.27 KCAL/MOL
REMARK 922        TOTAL FREE ENERGY PREDICTED BY IDOCK:   -7.23 KCAL/MOL
REMARK 923 INTER-LIGAND FREE ENERGY PREDICTED BY IDOCK:   -5.61 KCAL/MOL
REMARK 924 INTRA-LIGAND FREE ENERGY PREDICTED BY IDOCK:   -1.62 KCAL/MOL
REMARK 927      BINDING AFFINITY PREDICTED BY RF-SCORE:    0.00 PKD
ROOT
HETATM    1  C   UNL     1     -11.184  15.818  70.824  1.00  0.00    -0.404 C  
HETATM    2  C   UNL     1     -12.290  15.098  70.070  1.00  0.00    -0.356 C  
ENDROOT
BRANCH   2   3
HETATM    3  C   UNL     1     -11.718  14.258  68.931  1.00  0.00    -0.363 C  
BRANCH   3   4
HETATM    4  C   UNL     1     -10.537  14.961  68.267  1.00  0.00    -0.240 C  
BRANCH   4   5
HETATM    5  C   UNL     1     -10.952  15.552  66.923  1.00  0.00    -0.268 C  
BRANCH   5   6
HETATM    6  C   UNL     1     -11.742  14.536  66.109  1.00  0.00    -0.355 C  
BRANCH   6   7
HETATM    7  C   UNL     1     -10.823  13.723  65.203  1.00  0.00    -0.349 C  
BRANCH   7   8
HETATM    8  C   UNL     1     -11.641  13.043  64.112  1.00  0.00    -0.462 C  
BRANCH   8   9
HETATM    9  C   UNL     1     -11.069  11.678  63.744  1.00  0.00    -0.499 C  
BRANCH   9  10
HETATM   10  C   UNL     1      -9.824  11.328  64.561  1.00  0.00    -0.317 C  
BRANCH  10  11
HETATM   11  C   UNL     1      -9.956  10.078  65.439  1.00  0.00    -0.364 C  
BRANCH  11  12
HETATM   12  C   UNL     1     -10.698  10.345  66.754  1.00  0.00    -0.168 C  
BRANCH  12  13
HETATM   13  N   UNL     1     -10.007   9.735  67.989  1.00  0.00    -0.152 N  
HETATM   14  C   UNL     1     -10.393  10.495  69.252  1.00  0.00    -0.227 C  
HETATM   15  C   UNL     1     -10.386   8.267  68.148  1.00  0.00    -0.202 C  
BRANCH  13  16
HETATM   16  C   UNL     1      -8.463   9.844  67.749  1.00  0.00    -0.118 C  
BRANCH  16  17
HETATM   17  C   UNL     1      -7.817  11.092  68.296  1.00  0.00    -0.123 A  
HETATM   18  C   UNL     1      -7.936  12.315  67.614  1.00  0.00    -0.161 A  
HETATM   19  C   UNL     1      -7.172  13.415  68.001  1.00  0.00    -0.123 A  
HETATM   20  C   UNL     1      -6.305  13.314  69.086  1.00  0.00    -0.103 A  
HETATM   21  C   UNL     1      -6.235  12.131  69.817  1.00  0.00    -0.132 A  
HETATM   22  C   UNL     1      -6.999  11.029  69.434  1.00  0.00    -0.126 A  
ENDBRANCH  16  17
ENDBRANCH  13  16
ENDBRANCH  12  13
ENDBRANCH  11  12
ENDBRANCH  10  11
ENDBRANCH   9  10
ENDBRANCH   8   9
ENDBRANCH   7   8
ENDBRANCH   6   7
ENDBRANCH   5   6
ENDBRANCH   4   5
ENDBRANCH   3   4
ENDBRANCH   2   3
TORSDOF 13
ENDMDL
MODEL      228
REMARK 921   NORMALIZED FREE ENERGY PREDICTED BY IDOCK:   -3.27 KCAL/MOL
REMARK 922        TOTAL FREE ENERGY PREDICTED BY IDOCK:   -7.23 KCAL/MOL
REMARK 923 INTER-LIGAND FREE ENERGY PREDICTED BY IDOCK:   -6.51 KCAL/MOL
REMARK 924 INTRA-LIGAND FREE ENERGY PREDICTED BY IDOCK:   -0.72 KCAL/MOL
REMARK 927      BINDING AFFINITY PREDICTED BY RF-SCORE:    0.00 PKD
ROOT
HETATM    1  C   UNL     1     -13.375  12.162  71.990  1.00  0.00    -0.470 C  
HETATM    2  C   UNL     1     -13.571  13.614  72.396  1.00  0.00    -0.703 C  
ENDROOT
BRANCH   2   3
HETATM    3  C   UNL     1     -12.416  14.481  71.901  1.00  0.00    -0.406 C  
BRANCH   3   4
HETATM    4  C   UNL     1     -12.878  15.442  70.810  1.00  0.00    -0.524 C  
BRANCH   4   5
HETATM    5  C   UNL     1     -11.964  15.351  69.592  1.00  0.00    -0.366 C  
BRANCH   5   6
HETATM    6  C   UNL     1     -12.105  13.994  68.914  1.00  0.00    -0.351 C  
BRANCH   6   7
HETATM    7  C   UNL     1     -10.751  13.465  68.455  1.00  0.00    -0.271 C  
BRANCH   7   8
HETATM    8  C   UNL     1     -10.484  13.901  67.020  1.00  0.00    -0.278 C  
BRANCH   8   9
HETATM    9  C   UNL     1      -9.693  12.850  66.247  1.00  0.00    -0.268 C  
BRANCH   9  10
HETATM   10  C   UNL     1      -8.627  12.172  67.110  1.00  0.00    -0.185 C  
BRANCH  10  11
HETATM   11  C   UNL     1      -8.671  10.639  67.107  1.00  0.00    -0.130 C  
BRANCH  11  12
HETATM   12  C   UNL     1      -9.470  10.061  68.281  1.00  0.00    -0.140 C  
BRANCH  12  13
HETATM   13  N   UNL     1      -9.033   8.639  68.686  1.00  0.00    -0.142 N  
HETATM   14  C   UNL     1      -8.088   8.051  67.647  1.00  0.00    -0.124 C  
HETATM   15  C   UNL     1      -8.344   8.654  70.046  1.00  0.00    -0.124 C  
BRANCH  13  16
HETATM   16  C   UNL     1     -10.334   7.771  68.780  1.00  0.00    -0.204 C  
BRANCH  16  17
HETATM   17  C   UNL     1     -10.738   7.372  70.178  1.00  0.00    -0.254 A  
HETATM   18  C   UNL     1     -11.397   8.285  71.018  1.00  0.00    -0.299 A  
HETATM   19  C   UNL     1     -11.582   7.992  72.368  1.00  0.00    -0.450 A  
HETATM   20  C   UNL     1     -11.139   6.777  72.885  1.00  0.00    -0.277 A  
HETATM   21  C   UNL     1     -10.554   5.833  72.046  1.00  0.00    -0.276 A  
HETATM   22  C   UNL     1     -10.368   6.121  70.694  1.00  0.00    -0.268 A  
ENDBRANCH  16  17
ENDBRANCH  13  16
ENDBRANCH  12  13
ENDBRANCH  11  12
ENDBRANCH  10  11
ENDBRANCH   9  10
ENDBRANCH   8   9
ENDBRANCH   7   8
ENDBRANCH   6   7
ENDBRANCH   5   6
ENDBRANCH   4   5
ENDBRANCH   3   4
ENDBRANCH   2   3
TORSDOF 13
ENDMDL
MODEL      229
REMARK 921   NORMALIZED FREE ENERGY PREDICTED BY IDOCK:   -3.27 KCAL/MOL
REMARK 922        TOTAL FREE ENERGY PREDICTED BY IDOCK:   -7.23 KCAL/MOL
REMARK 923 INTER-LIGAND FREE ENERGY PREDICTED BY IDOCK:   -6.48 KCAL/MOL
REMARK 924 INTRA-LIGAND FREE ENERGY PREDICTED BY IDOCK:   -0.75 KCAL/MOL
REMARK 927      BINDING AFFINITY PREDICTED BY RF-SCORE:    0.00 PKD
ROOT
HETATM    1  C   UNL     1     -12.556  15.349  73.637  1.00  0.00    -0.723 C  
HETATM    2  C   UNL     1     -13.645  15.543  72.597  1.00  0.00    -0.657 C  
ENDROOT
BRANCH   2   3
HETATM    3  C   UNL     1     -13.208  15.000  71.238  1.00  0.00    -0.502 C  
BRANCH   3   4
HETATM    4  C   UNL     1     -12.142  15.890  70.607  1.00  0.00    -0.367 C  
BRANCH   4   5
HETATM    5  C   UNL     1     -11.736  15.353  69.238  1.00  0.00    -0.367 C  
BRANCH   5   6
HETATM    6  C   UNL     1     -11.614  13.835  69.270  1.00  0.00    -0.362 C  
BRANCH   6   7
HETATM    7  C   UNL     1     -11.854  13.234  67.889  1.00  0.00    -0.388 C  
BRANCH   7   8
HETATM    8  C   UNL     1     -12.157  14.341  66.888  1.00  0.00    -0.440 C  
BRANCH   8   9
HETATM    9  C   UNL     1     -11.538  14.054  65.523  1.00  0.00    -0.333 C  
BRANCH   9  10
HETATM   10  C   UNL     1     -11.673  12.585  65.119  1.00  0.00    -0.422 C  
BRANCH  10  11
HETATM   11  C   UNL     1     -10.346  11.842  64.928  1.00  0.00    -0.334 C  
BRANCH  11  12
HETATM   12  C   UNL     1     -10.375  10.412  65.483  1.00  0.00    -0.195 C  
BRANCH  12  13
HETATM   13  N   UNL     1      -9.464  10.206  66.709  1.00  0.00    -0.163 N  
HETATM   14  C   UNL     1      -8.818  11.521  67.126  1.00  0.00    -0.168 C  
HETATM   15  C   UNL     1     -10.256   9.636  67.880  1.00  0.00    -0.198 C  
BRANCH  13  16
HETATM   16  C   UNL     1      -8.359   9.177  66.287  1.00  0.00    -0.119 C  
BRANCH  16  17
HETATM   17  C   UNL     1      -7.382   9.676  65.252  1.00  0.00    -0.113 A  
HETATM   18  C   UNL     1      -7.543   9.339  63.897  1.00  0.00    -0.113 A  
HETATM   19  C   UNL     1      -6.535   9.620  62.977  1.00  0.00    -0.107 A  
HETATM   20  C   UNL     1      -5.371  10.264  63.392  1.00  0.00    -0.132 A  
HETATM   21  C   UNL     1      -5.233  10.670  64.716  1.00  0.00    -0.149 A  
HETATM   22  C   UNL     1      -6.240  10.393  65.640  1.00  0.00    -0.126 A  
ENDBRANCH  16  17
ENDBRANCH  13  16
ENDBRANCH  12  13
ENDBRANCH  11  12
ENDBRANCH  10  11
ENDBRANCH   9  10
ENDBRANCH   8   9
ENDBRANCH   7   8
ENDBRANCH   6   7
ENDBRANCH   5   6
ENDBRANCH   4   5
ENDBRANCH   3   4
ENDBRANCH   2   3
TORSDOF 13
ENDMDL
MODEL      230
REMARK 921   NORMALIZED FREE ENERGY PREDICTED BY IDOCK:   -3.27 KCAL/MOL
REMARK 922        TOTAL FREE ENERGY PREDICTED BY IDOCK:   -7.23 KCAL/MOL
REMARK 923 INTER-LIGAND FREE ENERGY PREDICTED BY IDOCK:   -5.54 KCAL/MOL
REMARK 924 INTRA-LIGAND FREE ENERGY PREDICTED BY IDOCK:   -1.69 KCAL/MOL
REMARK 927      BINDING AFFINITY PREDICTED BY RF-SCORE:    0.00 PKD
ROOT
HETATM    1  C   UNL     1     -11.207   6.264  70.454  1.00  0.00    -0.439 C  
HETATM    2  C   UNL     1     -10.228   5.907  69.349  1.00  0.00    -0.284 C  
ENDROOT
BRANCH   2   3
HETATM    3  C   UNL     1      -8.906   6.651  69.526  1.00  0.00    -0.139 C  
BRANCH   3   4
HETATM    4  C   UNL     1      -8.303   7.030  68.178  1.00  0.00    -0.123 C  
BRANCH   4   5
HETATM    5  C   UNL     1      -9.224   6.604  67.038  1.00  0.00    -0.147 C  
BRANCH   5   6
HETATM    6  C   UNL     1      -8.953   7.432  65.789  1.00  0.00    -0.061 C  
BRANCH   6   7
HETATM    7  C   UNL     1      -7.559   8.048  65.828  1.00  0.00    -0.083 C  
BRANCH   7   8
HETATM    8  C   UNL     1      -7.510   9.275  64.927  1.00  0.00    -0.107 C  
BRANCH   8   9
HETATM    9  C   UNL     1      -8.369  10.412  65.472  1.00  0.00    -0.168 C  
BRANCH   9  10
HETATM   10  C   UNL     1      -9.368  10.935  64.438  1.00  0.00    -0.256 C  
BRANCH  10  11
HETATM   11  C   UNL     1     -10.127  12.200  64.854  1.00  0.00    -0.280 C  
BRANCH  11  12
HETATM   12  C   UNL     1      -9.615  12.801  66.169  1.00  0.00    -0.212 C  
BRANCH  12  13
HETATM   13  N   UNL     1     -10.627  13.738  66.857  1.00  0.00    -0.275 N  
HETATM   14  C   UNL     1     -10.056  14.282  68.161  1.00  0.00    -0.232 C  
HETATM   15  C   UNL     1     -10.994  14.900  65.942  1.00  0.00    -0.338 C  
BRANCH  13  16
HETATM   16  C   UNL     1     -11.911  12.888  67.148  1.00  0.00    -0.362 C  
BRANCH  16  17
HETATM   17  C   UNL     1     -11.735  11.792  68.170  1.00  0.00    -0.377 A  
HETATM   18  C   UNL     1     -12.090  12.004  69.512  1.00  0.00    -0.273 A  
HETATM   19  C   UNL     1     -11.737  11.076  70.490  1.00  0.00    -0.416 A  
HETATM   20  C   UNL     1     -11.052   9.916  70.135  1.00  0.00    -0.353 A  
HETATM   21  C   UNL     1     -10.762   9.658  68.798  1.00  0.00    -0.234 A  
HETATM   22  C   UNL     1     -11.115  10.584  67.816  1.00  0.00    -0.382 A  
ENDBRANCH  16  17
ENDBRANCH  13  16
ENDBRANCH  12  13
ENDBRANCH  11  12
ENDBRANCH  10  11
ENDBRANCH   9  10
ENDBRANCH   8   9
ENDBRANCH   7   8
ENDBRANCH   6   7
ENDBRANCH   5   6
ENDBRANCH   4   5
ENDBRANCH   3   4
ENDBRANCH   2   3
TORSDOF 13
ENDMDL
MODEL      231
REMARK 921   NORMALIZED FREE ENERGY PREDICTED BY IDOCK:   -3.26 KCAL/MOL
REMARK 922        TOTAL FREE ENERGY PREDICTED BY IDOCK:   -7.22 KCAL/MOL
REMARK 923 INTER-LIGAND FREE ENERGY PREDICTED BY IDOCK:   -6.52 KCAL/MOL
REMARK 924 INTRA-LIGAND FREE ENERGY PREDICTED BY IDOCK:   -0.70 KCAL/MOL
REMARK 927      BINDING AFFINITY PREDICTED BY RF-SCORE:    0.00 PKD
ROOT
HETATM    1  C   UNL     1      -9.889  18.860  68.344  1.00  0.00    -0.435 C  
HETATM    2  C   UNL     1      -9.365  17.456  68.095  1.00  0.00    -0.277 C  
ENDROOT
BRANCH   2   3
HETATM    3  C   UNL     1     -10.134  16.777  66.964  1.00  0.00    -0.276 C  
BRANCH   3   4
HETATM    4  C   UNL     1      -9.239  15.812  66.192  1.00  0.00    -0.385 C  
BRANCH   4   5
HETATM    5  C   UNL     1     -10.068  14.692  65.571  1.00  0.00    -0.405 C  
BRANCH   5   6
HETATM    6  C   UNL     1     -11.398  14.541  66.296  1.00  0.00    -0.352 C  
BRANCH   6   7
HETATM    7  C   UNL     1     -12.412  13.790  65.438  1.00  0.00    -0.532 C  
BRANCH   7   8
HETATM    8  C   UNL     1     -11.776  13.397  64.111  1.00  0.00    -0.466 C  
BRANCH   8   9
HETATM    9  C   UNL     1     -11.709  11.883  63.942  1.00  0.00    -0.509 C  
BRANCH   9  10
HETATM   10  C   UNL     1     -10.281  11.384  63.712  1.00  0.00    -0.433 C  
BRANCH  10  11
HETATM   11  C   UNL     1      -9.844  10.231  64.624  1.00  0.00    -0.396 C  
BRANCH  11  12
HETATM   12  C   UNL     1     -10.013  10.549  66.115  1.00  0.00    -0.229 C  
BRANCH  12  13
HETATM   13  N   UNL     1      -9.410   9.481  67.047  1.00  0.00    -0.144 N  
HETATM   14  C   UNL     1     -10.190   8.175  66.945  1.00  0.00    -0.316 C  
HETATM   15  C   UNL     1      -7.948   9.225  66.699  1.00  0.00    -0.108 C  
BRANCH  13  16
HETATM   16  C   UNL     1      -9.499  10.045  68.506  1.00  0.00    -0.148 C  
BRANCH  16  17
HETATM   17  C   UNL     1      -9.612   9.002  69.590  1.00  0.00    -0.175 A  
HETATM   18  C   UNL     1     -10.871   8.537  70.006  1.00  0.00    -0.225 A  
HETATM   19  C   UNL     1     -10.987   7.737  71.141  1.00  0.00    -0.259 A  
HETATM   20  C   UNL     1      -9.848   7.371  71.855  1.00  0.00    -0.187 A  
HETATM   21  C   UNL     1      -8.589   7.762  71.409  1.00  0.00    -0.131 A  
HETATM   22  C   UNL     1      -8.468   8.561  70.272  1.00  0.00    -0.128 A  
ENDBRANCH  16  17
ENDBRANCH  13  16
ENDBRANCH  12  13
ENDBRANCH  11  12
ENDBRANCH  10  11
ENDBRANCH   9  10
ENDBRANCH   8   9
ENDBRANCH   7   8
ENDBRANCH   6   7
ENDBRANCH   5   6
ENDBRANCH   4   5
ENDBRANCH   3   4
ENDBRANCH   2   3
TORSDOF 13
ENDMDL
MODEL      232
REMARK 921   NORMALIZED FREE ENERGY PREDICTED BY IDOCK:   -3.26 KCAL/MOL
REMARK 922        TOTAL FREE ENERGY PREDICTED BY IDOCK:   -7.21 KCAL/MOL
REMARK 923 INTER-LIGAND FREE ENERGY PREDICTED BY IDOCK:   -5.43 KCAL/MOL
REMARK 924 INTRA-LIGAND FREE ENERGY PREDICTED BY IDOCK:   -1.79 KCAL/MOL
REMARK 927      BINDING AFFINITY PREDICTED BY RF-SCORE:    0.00 PKD
ROOT
HETATM    1  C   UNL     1     -10.708   7.515  66.997  1.00  0.00    -0.367 C  
HETATM    2  C   UNL     1     -10.718   6.057  67.424  1.00  0.00    -0.393 C  
ENDROOT
BRANCH   2   3
HETATM    3  C   UNL     1     -10.762   5.131  66.211  1.00  0.00    -0.272 C  
BRANCH   3   4
HETATM    4  C   UNL     1      -9.608   4.133  66.238  1.00  0.00    -0.209 C  
BRANCH   4   5
HETATM    5  C   UNL     1      -8.269   4.863  66.285  1.00  0.00    -0.108 C  
BRANCH   5   6
HETATM    6  C   UNL     1      -7.199   3.983  66.918  1.00  0.00    -0.068 C  
BRANCH   6   7
HETATM    7  C   UNL     1      -6.268   4.802  67.808  1.00  0.00    -0.035 C  
BRANCH   7   8
HETATM    8  C   UNL     1      -6.632   6.278  67.718  1.00  0.00    -0.062 C  
BRANCH   8   9
HETATM    9  C   UNL     1      -6.600   6.952  69.086  1.00  0.00    -0.048 C  
BRANCH   9  10
HETATM   10  C   UNL     1      -8.002   7.226  69.634  1.00  0.00    -0.127 C  
BRANCH  10  11
HETATM   11  C   UNL     1      -8.633   6.063  70.407  1.00  0.00    -0.133 C  
BRANCH  11  12
HETATM   12  C   UNL     1      -8.874   6.387  71.886  1.00  0.00    -0.138 C  
BRANCH  12  13
HETATM   13  N   UNL     1     -10.274   5.984  72.389  1.00  0.00    -0.187 N  
HETATM   14  C   UNL     1     -10.366   4.473  72.568  1.00  0.00    -0.195 C  
HETATM   15  C   UNL     1     -10.591   6.670  73.712  1.00  0.00    -0.278 C  
BRANCH  13  16
HETATM   16  C   UNL     1     -11.301   6.458  71.305  1.00  0.00    -0.306 C  
BRANCH  16  17
HETATM   17  C   UNL     1     -11.816   7.865  71.483  1.00  0.00    -0.322 A  
HETATM   18  C   UNL     1     -13.008   8.106  72.186  1.00  0.00    -0.287 A  
HETATM   19  C   UNL     1     -13.591   9.372  72.172  1.00  0.00    -0.528 A  
HETATM   20  C   UNL     1     -12.977  10.415  71.481  1.00  0.00    -0.562 A  
HETATM   21  C   UNL     1     -11.756  10.207  70.845  1.00  0.00    -0.468 A  
HETATM   22  C   UNL     1     -11.168   8.942  70.858  1.00  0.00    -0.334 A  
ENDBRANCH  16  17
ENDBRANCH  13  16
ENDBRANCH  12  13
ENDBRANCH  11  12
ENDBRANCH  10  11
ENDBRANCH   9  10
ENDBRANCH   8   9
ENDBRANCH   7   8
ENDBRANCH   6   7
ENDBRANCH   5   6
ENDBRANCH   4   5
ENDBRANCH   3   4
ENDBRANCH   2   3
TORSDOF 13
ENDMDL
MODEL      233
REMARK 921   NORMALIZED FREE ENERGY PREDICTED BY IDOCK:   -3.26 KCAL/MOL
REMARK 922        TOTAL FREE ENERGY PREDICTED BY IDOCK:   -7.20 KCAL/MOL
REMARK 923 INTER-LIGAND FREE ENERGY PREDICTED BY IDOCK:   -6.22 KCAL/MOL
REMARK 924 INTRA-LIGAND FREE ENERGY PREDICTED BY IDOCK:   -0.99 KCAL/MOL
REMARK 927      BINDING AFFINITY PREDICTED BY RF-SCORE:    0.00 PKD
ROOT
HETATM    1  C   UNL     1     -14.310   7.584  71.415  1.00  0.00    -0.540 C  
HETATM    2  C   UNL     1     -12.908   7.039  71.631  1.00  0.00    -0.408 C  
ENDROOT
BRANCH   2   3
HETATM    3  C   UNL     1     -11.853   8.061  71.216  1.00  0.00    -0.321 C  
BRANCH   3   4
HETATM    4  C   UNL     1     -10.455   7.607  71.626  1.00  0.00    -0.229 C  
BRANCH   4   5
HETATM    5  C   UNL     1      -9.464   8.763  71.523  1.00  0.00    -0.341 C  
BRANCH   5   6
HETATM    6  C   UNL     1      -8.255   8.361  70.689  1.00  0.00    -0.117 C  
BRANCH   6   7
HETATM    7  C   UNL     1      -8.349   6.904  70.248  1.00  0.00    -0.134 C  
BRANCH   7   8
HETATM    8  C   UNL     1      -7.644   6.722  68.910  1.00  0.00    -0.105 C  
BRANCH   8   9
HETATM    9  C   UNL     1      -7.920   7.884  67.962  1.00  0.00    -0.128 C  
BRANCH   9  10
HETATM   10  C   UNL     1      -8.846   7.490  66.810  1.00  0.00    -0.153 C  
BRANCH  10  11
HETATM   11  C   UNL     1     -10.088   8.374  66.647  1.00  0.00    -0.358 C  
BRANCH  11  12
HETATM   12  C   UNL     1     -10.366   9.249  67.875  1.00  0.00    -0.227 C  
BRANCH  12  13
HETATM   13  N   UNL     1     -10.316  10.762  67.581  1.00  0.00    -0.191 N  
HETATM   14  C   UNL     1     -11.638  11.424  67.948  1.00  0.00    -0.266 C  
HETATM   15  C   UNL     1      -9.185  11.425  68.358  1.00  0.00    -0.183 C  
BRANCH  13  16
HETATM   16  C   UNL     1     -10.046  10.919  66.046  1.00  0.00    -0.249 C  
BRANCH  16  17
HETATM   17  C   UNL     1     -10.626  12.163  65.418  1.00  0.00    -0.309 A  
HETATM   18  C   UNL     1     -10.202  13.436  65.833  1.00  0.00    -0.302 A  
HETATM   19  C   UNL     1     -10.880  14.578  65.409  1.00  0.00    -0.362 A  
HETATM   20  C   UNL     1     -11.967  14.462  64.546  1.00  0.00    -0.487 A  
HETATM   21  C   UNL     1     -12.349  13.212  64.067  1.00  0.00    -0.425 A  
HETATM   22  C   UNL     1     -11.672  12.067  64.488  1.00  0.00    -0.380 A  
ENDBRANCH  16  17
ENDBRANCH  13  16
ENDBRANCH  12  13
ENDBRANCH  11  12
ENDBRANCH  10  11
ENDBRANCH   9  10
ENDBRANCH   8   9
ENDBRANCH   7   8
ENDBRANCH   6   7
ENDBRANCH   5   6
ENDBRANCH   4   5
ENDBRANCH   3   4
ENDBRANCH   2   3
TORSDOF 13
ENDMDL
MODEL      234
REMARK 921   NORMALIZED FREE ENERGY PREDICTED BY IDOCK:   -3.25 KCAL/MOL
REMARK 922        TOTAL FREE ENERGY PREDICTED BY IDOCK:   -7.20 KCAL/MOL
REMARK 923 INTER-LIGAND FREE ENERGY PREDICTED BY IDOCK:   -6.55 KCAL/MOL
REMARK 924 INTRA-LIGAND FREE ENERGY PREDICTED BY IDOCK:   -0.65 KCAL/MOL
REMARK 927      BINDING AFFINITY PREDICTED BY RF-SCORE:    0.00 PKD
ROOT
HETATM    1  C   UNL     1      -7.583   3.933  72.275  1.00  0.00    -0.070 C  
HETATM    2  C   UNL     1      -8.694   4.639  71.516  1.00  0.00    -0.137 C  
ENDROOT
BRANCH   2   3
HETATM    3  C   UNL     1      -9.033   5.980  72.162  1.00  0.00    -0.142 C  
BRANCH   3   4
HETATM    4  C   UNL     1     -10.267   5.866  73.051  1.00  0.00    -0.211 C  
BRANCH   4   5
HETATM    5  C   UNL     1     -11.489   5.472  72.227  1.00  0.00    -0.221 C  
BRANCH   5   6
HETATM    6  C   UNL     1     -11.775   6.517  71.156  1.00  0.00    -0.392 C  
BRANCH   6   7
HETATM    7  C   UNL     1     -12.870   7.479  71.604  1.00  0.00    -0.392 C  
BRANCH   7   8
HETATM    8  C   UNL     1     -12.245   8.757  72.150  1.00  0.00    -0.448 C  
BRANCH   8   9
HETATM    9  C   UNL     1     -13.042   9.993  71.746  1.00  0.00    -0.562 C  
BRANCH   9  10
HETATM   10  C   UNL     1     -12.173  11.051  71.066  1.00  0.00    -0.456 C  
BRANCH  10  11
HETATM   11  C   UNL     1     -12.408  11.212  69.560  1.00  0.00    -0.262 C  
BRANCH  11  12
HETATM   12  C   UNL     1     -11.225  10.724  68.714  1.00  0.00    -0.272 C  
BRANCH  12  13
HETATM   13  N   UNL     1     -10.665  11.796  67.758  1.00  0.00    -0.198 N  
HETATM   14  C   UNL     1      -9.538  12.575  68.425  1.00  0.00    -0.176 C  
HETATM   15  C   UNL     1     -10.148  11.157  66.475  1.00  0.00    -0.223 C  
BRANCH  13  16
HETATM   16  C   UNL     1     -11.849  12.761  67.410  1.00  0.00    -0.342 C  
BRANCH  16  17
HETATM   17  C   UNL     1     -11.518  14.232  67.479  1.00  0.00    -0.368 A  
HETATM   18  C   UNL     1     -10.955  14.890  66.373  1.00  0.00    -0.336 A  
HETATM   19  C   UNL     1     -10.458  16.185  66.502  1.00  0.00    -0.298 A  
HETATM   20  C   UNL     1     -10.544  16.846  67.725  1.00  0.00    -0.340 A  
HETATM   21  C   UNL     1     -11.168  16.233  68.808  1.00  0.00    -0.343 A  
HETATM   22  C   UNL     1     -11.668  14.937  68.683  1.00  0.00    -0.358 A  
ENDBRANCH  16  17
ENDBRANCH  13  16
ENDBRANCH  12  13
ENDBRANCH  11  12
ENDBRANCH  10  11
ENDBRANCH   9  10
ENDBRANCH   8   9
ENDBRANCH   7   8
ENDBRANCH   6   7
ENDBRANCH   5   6
ENDBRANCH   4   5
ENDBRANCH   3   4
ENDBRANCH   2   3
TORSDOF 13
ENDMDL
MODEL      235
REMARK 921   NORMALIZED FREE ENERGY PREDICTED BY IDOCK:   -3.25 KCAL/MOL
REMARK 922        TOTAL FREE ENERGY PREDICTED BY IDOCK:   -7.20 KCAL/MOL
REMARK 923 INTER-LIGAND FREE ENERGY PREDICTED BY IDOCK:   -5.96 KCAL/MOL
REMARK 924 INTRA-LIGAND FREE ENERGY PREDICTED BY IDOCK:   -1.24 KCAL/MOL
REMARK 927      BINDING AFFINITY PREDICTED BY RF-SCORE:    0.00 PKD
ROOT
HETATM    1  C   UNL     1      -6.800  16.756  66.730  1.00  0.00    -0.265 C  
HETATM    2  C   UNL     1      -6.912  18.092  67.444  1.00  0.00    -0.207 C  
ENDROOT
BRANCH   2   3
HETATM    3  C   UNL     1      -8.064  18.920  66.879  1.00  0.00    -0.275 C  
BRANCH   3   4
HETATM    4  C   UNL     1      -8.695  19.792  67.960  1.00  0.00    -0.353 C  
BRANCH   4   5
HETATM    5  C   UNL     1     -10.122  19.335  68.253  1.00  0.00    -0.516 C  
BRANCH   5   6
HETATM    6  C   UNL     1     -10.387  17.970  67.633  1.00  0.00    -0.397 C  
BRANCH   6   7
HETATM    7  C   UNL     1     -10.812  16.957  68.691  1.00  0.00    -0.314 C  
BRANCH   7   8
HETATM    8  C   UNL     1      -9.629  16.074  69.068  1.00  0.00    -0.247 C  
BRANCH   8   9
HETATM    9  C   UNL     1      -9.609  14.782  68.258  1.00  0.00    -0.215 C  
BRANCH   9  10
HETATM   10  C   UNL     1      -8.632  13.752  68.828  1.00  0.00     0.029 C  
BRANCH  10  11
HETATM   11  C   UNL     1      -8.041  12.781  67.799  1.00  0.00    -0.168 C  
BRANCH  11  12
HETATM   12  C   UNL     1      -8.533  11.340  67.983  1.00  0.00    -0.138 C  
BRANCH  12  13
HETATM   13  N   UNL     1      -9.199  10.748  66.726  1.00  0.00    -0.156 N  
HETATM   14  C   UNL     1      -9.709  11.858  65.815  1.00  0.00    -0.237 C  
HETATM   15  C   UNL     1      -8.218   9.872  65.956  1.00  0.00    -0.119 C  
BRANCH  13  16
HETATM   16  C   UNL     1     -10.398   9.866  67.217  1.00  0.00    -0.245 C  
BRANCH  16  17
HETATM   17  C   UNL     1     -10.834  10.115  68.640  1.00  0.00    -0.272 A  
HETATM   18  C   UNL     1     -10.774   9.087  69.595  1.00  0.00    -0.228 A  
HETATM   19  C   UNL     1     -11.368   9.251  70.846  1.00  0.00    -0.373 A  
HETATM   20  C   UNL     1     -12.001  10.450  71.165  1.00  0.00    -0.460 A  
HETATM   21  C   UNL     1     -12.001  11.503  70.254  1.00  0.00    -0.455 A  
HETATM   22  C   UNL     1     -11.406  11.344  69.003  1.00  0.00    -0.345 A  
ENDBRANCH  16  17
ENDBRANCH  13  16
ENDBRANCH  12  13
ENDBRANCH  11  12
ENDBRANCH  10  11
ENDBRANCH   9  10
ENDBRANCH   8   9
ENDBRANCH   7   8
ENDBRANCH   6   7
ENDBRANCH   5   6
ENDBRANCH   4   5
ENDBRANCH   3   4
ENDBRANCH   2   3
TORSDOF 13
ENDMDL
MODEL      236
REMARK 921   NORMALIZED FREE ENERGY PREDICTED BY IDOCK:   -3.25 KCAL/MOL
REMARK 922        TOTAL FREE ENERGY PREDICTED BY IDOCK:   -7.19 KCAL/MOL
REMARK 923 INTER-LIGAND FREE ENERGY PREDICTED BY IDOCK:   -5.47 KCAL/MOL
REMARK 924 INTRA-LIGAND FREE ENERGY PREDICTED BY IDOCK:   -1.73 KCAL/MOL
REMARK 927      BINDING AFFINITY PREDICTED BY RF-SCORE:    0.00 PKD
ROOT
HETATM    1  C   UNL     1     -11.008   6.184  68.599  1.00  0.00    -0.415 C  
HETATM    2  C   UNL     1     -10.949   6.361  67.091  1.00  0.00    -0.476 C  
ENDROOT
BRANCH   2   3
HETATM    3  C   UNL     1     -10.376   5.118  66.415  1.00  0.00    -0.332 C  
BRANCH   3   4
HETATM    4  C   UNL     1      -9.897   4.102  67.448  1.00  0.00    -0.152 C  
BRANCH   4   5
HETATM    5  C   UNL     1      -8.389   3.895  67.339  1.00  0.00    -0.098 C  
BRANCH   5   6
HETATM    6  C   UNL     1      -7.689   4.360  68.608  1.00  0.00    -0.071 C  
BRANCH   6   7
HETATM    7  C   UNL     1      -6.796   5.566  68.335  1.00  0.00    -0.059 C  
BRANCH   7   8
HETATM    8  C   UNL     1      -7.311   6.776  69.103  1.00  0.00    -0.093 C  
BRANCH   8   9
HETATM    9  C   UNL     1      -7.181   8.059  68.289  1.00  0.00    -0.093 C  
BRANCH   9  10
HETATM   10  C   UNL     1      -7.584   7.865  66.826  1.00  0.00    -0.098 C  
BRANCH  10  11
HETATM   11  C   UNL     1      -8.580   8.899  66.287  1.00  0.00    -0.145 C  
BRANCH  11  12
HETATM   12  C   UNL     1      -8.071  10.341  66.408  1.00  0.00    -0.123 C  
BRANCH  12  13
HETATM   13  N   UNL     1      -8.912  11.215  67.358  1.00  0.00    -0.139 N  
HETATM   14  C   UNL     1     -10.147  10.459  67.833  1.00  0.00    -0.171 C  
HETATM   15  C   UNL     1      -8.088  11.647  68.566  1.00  0.00    -0.145 C  
BRANCH  13  16
HETATM   16  C   UNL     1      -9.341  12.486  66.548  1.00  0.00    -0.233 C  
BRANCH  16  17
HETATM   17  C   UNL     1     -10.462  12.268  65.562  1.00  0.00    -0.296 A  
HETATM   18  C   UNL     1     -10.220  11.626  64.336  1.00  0.00    -0.346 A  
HETATM   19  C   UNL     1     -11.198  11.611  63.344  1.00  0.00    -0.401 A  
HETATM   20  C   UNL     1     -12.435  12.210  63.574  1.00  0.00    -0.666 A  
HETATM   21  C   UNL     1     -12.713  12.782  64.812  1.00  0.00    -0.469 A  
HETATM   22  C   UNL     1     -11.738  12.798  65.809  1.00  0.00    -0.449 A  
ENDBRANCH  16  17
ENDBRANCH  13  16
ENDBRANCH  12  13
ENDBRANCH  11  12
ENDBRANCH  10  11
ENDBRANCH   9  10
ENDBRANCH   8   9
ENDBRANCH   7   8
ENDBRANCH   6   7
ENDBRANCH   5   6
ENDBRANCH   4   5
ENDBRANCH   3   4
ENDBRANCH   2   3
TORSDOF 13
ENDMDL
MODEL      237
REMARK 921   NORMALIZED FREE ENERGY PREDICTED BY IDOCK:   -3.25 KCAL/MOL
REMARK 922        TOTAL FREE ENERGY PREDICTED BY IDOCK:   -7.19 KCAL/MOL
REMARK 923 INTER-LIGAND FREE ENERGY PREDICTED BY IDOCK:   -6.04 KCAL/MOL
REMARK 924 INTRA-LIGAND FREE ENERGY PREDICTED BY IDOCK:   -1.15 KCAL/MOL
REMARK 927      BINDING AFFINITY PREDICTED BY RF-SCORE:    0.00 PKD
ROOT
HETATM    1  C   UNL     1     -13.608   9.516  71.363  1.00  0.00    -0.353 C  
HETATM    2  C   UNL     1     -12.364  10.371  71.543  1.00  0.00    -0.468 C  
ENDROOT
BRANCH   2   3
HETATM    3  C   UNL     1     -12.521  11.719  70.843  1.00  0.00    -0.416 C  
BRANCH   3   4
HETATM    4  C   UNL     1     -13.046  12.780  71.805  1.00  0.00    -0.455 C  
BRANCH   4   5
HETATM    5  C   UNL     1     -12.805  14.179  71.245  1.00  0.00    -0.429 C  
BRANCH   5   6
HETATM    6  C   UNL     1     -12.346  14.106  69.794  1.00  0.00    -0.350 C  
BRANCH   6   7
HETATM    7  C   UNL     1     -11.636  15.389  69.376  1.00  0.00    -0.354 C  
BRANCH   7   8
HETATM    8  C   UNL     1     -10.162  15.311  69.752  1.00  0.00    -0.241 C  
BRANCH   8   9
HETATM    9  C   UNL     1      -9.268  15.221  68.519  1.00  0.00    -0.200 C  
BRANCH   9  10
HETATM   10  C   UNL     1      -8.764  13.799  68.267  1.00  0.00    -0.179 C  
BRANCH  10  11
HETATM   11  C   UNL     1      -9.654  12.949  67.352  1.00  0.00    -0.203 C  
BRANCH  11  12
HETATM   12  C   UNL     1      -9.979  11.572  67.944  1.00  0.00    -0.183 C  
BRANCH  12  13
HETATM   13  N   UNL     1      -9.429  10.397  67.113  1.00  0.00    -0.157 N  
HETATM   14  C   UNL     1      -8.984  10.874  65.736  1.00  0.00    -0.193 C  
HETATM   15  C   UNL     1      -8.254   9.735  67.823  1.00  0.00    -0.114 C  
BRANCH  13  16
HETATM   16  C   UNL     1     -10.593   9.357  66.969  1.00  0.00    -0.201 C  
BRANCH  16  17
HETATM   17  C   UNL     1     -10.527   8.187  67.918  1.00  0.00    -0.259 A  
HETATM   18  C   UNL     1     -10.197   6.904  67.449  1.00  0.00    -0.262 A  
HETATM   19  C   UNL     1     -10.339   5.793  68.278  1.00  0.00    -0.265 A  
HETATM   20  C   UNL     1     -10.784   5.952  69.588  1.00  0.00    -0.415 A  
HETATM   21  C   UNL     1     -11.041   7.226  70.088  1.00  0.00    -0.281 A  
HETATM   22  C   UNL     1     -10.898   8.341  69.263  1.00  0.00    -0.063 A  
ENDBRANCH  16  17
ENDBRANCH  13  16
ENDBRANCH  12  13
ENDBRANCH  11  12
ENDBRANCH  10  11
ENDBRANCH   9  10
ENDBRANCH   8   9
ENDBRANCH   7   8
ENDBRANCH   6   7
ENDBRANCH   5   6
ENDBRANCH   4   5
ENDBRANCH   3   4
ENDBRANCH   2   3
TORSDOF 13
ENDMDL
MODEL      238
REMARK 921   NORMALIZED FREE ENERGY PREDICTED BY IDOCK:   -3.25 KCAL/MOL
REMARK 922        TOTAL FREE ENERGY PREDICTED BY IDOCK:   -7.19 KCAL/MOL
REMARK 923 INTER-LIGAND FREE ENERGY PREDICTED BY IDOCK:   -6.26 KCAL/MOL
REMARK 924 INTRA-LIGAND FREE ENERGY PREDICTED BY IDOCK:   -0.93 KCAL/MOL
REMARK 927      BINDING AFFINITY PREDICTED BY RF-SCORE:    0.00 PKD
ROOT
HETATM    1  C   UNL     1      -7.184  11.789  67.796  1.00  0.00    -0.097 C  
HETATM    2  C   UNL     1      -6.248  10.591  67.802  1.00  0.00    -0.055 C  
ENDROOT
BRANCH   2   3
HETATM    3  C   UNL     1      -6.948   9.353  68.356  1.00  0.00    -0.067 C  
BRANCH   3   4
HETATM    4  C   UNL     1      -8.188   9.734  69.159  1.00  0.00    -0.130 C  
BRANCH   4   5
HETATM    5  C   UNL     1      -9.056   8.507  69.421  1.00  0.00    -0.150 C  
BRANCH   5   6
HETATM    6  C   UNL     1     -10.428   8.673  68.782  1.00  0.00    -0.209 C  
BRANCH   6   7
HETATM    7  C   UNL     1     -10.322   9.342  67.415  1.00  0.00    -0.327 C  
BRANCH   7   8
HETATM    8  C   UNL     1     -11.265  10.536  67.348  1.00  0.00    -0.249 C  
BRANCH   8   9
HETATM    9  C   UNL     1     -11.725  10.972  68.736  1.00  0.00    -0.383 C  
BRANCH   9  10
HETATM   10  C   UNL     1     -11.286  12.397  69.074  1.00  0.00    -0.336 C  
BRANCH  10  11
HETATM   11  C   UNL     1     -10.632  13.165  67.919  1.00  0.00    -0.243 C  
BRANCH  11  12
HETATM   12  C   UNL     1     -11.296  14.520  67.648  1.00  0.00    -0.337 C  
BRANCH  12  13
HETATM   13  N   UNL     1     -10.292  15.663  67.401  1.00  0.00    -0.269 N  
HETATM   14  C   UNL     1      -8.937  15.330  68.013  1.00  0.00    -0.171 C  
HETATM   15  C   UNL     1     -10.124  15.919  65.908  1.00  0.00    -0.352 C  
BRANCH  13  16
HETATM   16  C   UNL     1     -10.885  16.945  68.079  1.00  0.00    -0.338 C  
BRANCH  16  17
HETATM   17  C   UNL     1     -10.089  18.209  67.864  1.00  0.00    -0.366 A  
HETATM   18  C   UNL     1     -10.545  19.198  66.976  1.00  0.00    -0.551 A  
HETATM   19  C   UNL     1      -9.717  20.260  66.619  1.00  0.00    -0.550 A  
HETATM   20  C   UNL     1      -8.439  20.362  67.165  1.00  0.00    -0.393 A  
HETATM   21  C   UNL     1      -8.005  19.430  68.104  1.00  0.00    -0.352 A  
HETATM   22  C   UNL     1      -8.831  18.366  68.465  1.00  0.00    -0.336 A  
ENDBRANCH  16  17
ENDBRANCH  13  16
ENDBRANCH  12  13
ENDBRANCH  11  12
ENDBRANCH  10  11
ENDBRANCH   9  10
ENDBRANCH   8   9
ENDBRANCH   7   8
ENDBRANCH   6   7
ENDBRANCH   5   6
ENDBRANCH   4   5
ENDBRANCH   3   4
ENDBRANCH   2   3
TORSDOF 13
ENDMDL
MODEL      239
REMARK 921   NORMALIZED FREE ENERGY PREDICTED BY IDOCK:   -3.25 KCAL/MOL
REMARK 922        TOTAL FREE ENERGY PREDICTED BY IDOCK:   -7.19 KCAL/MOL
REMARK 923 INTER-LIGAND FREE ENERGY PREDICTED BY IDOCK:   -6.37 KCAL/MOL
REMARK 924 INTRA-LIGAND FREE ENERGY PREDICTED BY IDOCK:   -0.82 KCAL/MOL
REMARK 927      BINDING AFFINITY PREDICTED BY RF-SCORE:    0.00 PKD
ROOT
HETATM    1  C   UNL     1     -10.112   5.259  69.688  1.00  0.00    -0.327 C  
HETATM    2  C   UNL     1     -11.377   6.101  69.717  1.00  0.00    -0.452 C  
ENDROOT
BRANCH   2   3
HETATM    3  C   UNL     1     -11.576   6.741  71.089  1.00  0.00    -0.377 C  
BRANCH   3   4
HETATM    4  C   UNL     1     -10.254   7.247  71.657  1.00  0.00    -0.207 C  
BRANCH   4   5
HETATM    5  C   UNL     1     -10.320   8.750  71.914  1.00  0.00    -0.414 C  
BRANCH   5   6
HETATM    6  C   UNL     1     -10.046   9.527  70.633  1.00  0.00    -0.353 C  
BRANCH   6   7
HETATM    7  C   UNL     1      -8.653   9.222  70.091  1.00  0.00    -0.215 C  
BRANCH   7   8
HETATM    8  C   UNL     1      -8.754   8.729  68.653  1.00  0.00    -0.134 C  
BRANCH   8   9
HETATM    9  C   UNL     1      -9.562   9.687  67.782  1.00  0.00    -0.161 C  
BRANCH   9  10
HETATM   10  C   UNL     1      -9.043   9.746  66.345  1.00  0.00    -0.187 C  
BRANCH  10  11
HETATM   11  C   UNL     1      -9.724  10.793  65.454  1.00  0.00    -0.297 C  
BRANCH  11  12
HETATM   12  C   UNL     1     -10.376  11.927  66.254  1.00  0.00    -0.224 C  
BRANCH  12  13
HETATM   13  N   UNL     1     -10.769  13.144  65.394  1.00  0.00    -0.288 N  
HETATM   14  C   UNL     1     -10.776  12.778  63.915  1.00  0.00    -0.409 C  
HETATM   15  C   UNL     1     -12.145  13.664  65.793  1.00  0.00    -0.428 C  
BRANCH  13  16
HETATM   16  C   UNL     1      -9.701  14.258  65.665  1.00  0.00    -0.205 C  
BRANCH  16  17
HETATM   17  C   UNL     1     -10.234  15.511  66.316  1.00  0.00    -0.308 A  
HETATM   18  C   UNL     1     -10.361  16.700  65.579  1.00  0.00    -0.268 A  
HETATM   19  C   UNL     1     -10.651  17.901  66.224  1.00  0.00    -0.241 A  
HETATM   20  C   UNL     1     -10.844  17.923  67.603  1.00  0.00    -0.243 A  
HETATM   21  C   UNL     1     -10.797  16.739  68.333  1.00  0.00    -0.355 A  
HETATM   22  C   UNL     1     -10.509  15.534  67.692  1.00  0.00    -0.279 A  
ENDBRANCH  16  17
ENDBRANCH  13  16
ENDBRANCH  12  13
ENDBRANCH  11  12
ENDBRANCH  10  11
ENDBRANCH   9  10
ENDBRANCH   8   9
ENDBRANCH   7   8
ENDBRANCH   6   7
ENDBRANCH   5   6
ENDBRANCH   4   5
ENDBRANCH   3   4
ENDBRANCH   2   3
TORSDOF 13
ENDMDL
MODEL      240
REMARK 921   NORMALIZED FREE ENERGY PREDICTED BY IDOCK:   -3.24 KCAL/MOL
REMARK 922        TOTAL FREE ENERGY PREDICTED BY IDOCK:   -7.17 KCAL/MOL
REMARK 923 INTER-LIGAND FREE ENERGY PREDICTED BY IDOCK:   -6.72 KCAL/MOL
REMARK 924 INTRA-LIGAND FREE ENERGY PREDICTED BY IDOCK:   -0.45 KCAL/MOL
REMARK 927      BINDING AFFINITY PREDICTED BY RF-SCORE:    0.00 PKD
ROOT
HETATM    1  C   UNL     1     -10.042  19.533  68.559  1.00  0.00    -0.543 C  
HETATM    2  C   UNL     1     -10.775  19.010  67.335  1.00  0.00    -0.559 C  
ENDROOT
BRANCH   2   3
HETATM    3  C   UNL     1     -10.555  17.509  67.164  1.00  0.00    -0.264 C  
BRANCH   3   4
HETATM    4  C   UNL     1     -10.602  16.790  68.509  1.00  0.00    -0.354 C  
BRANCH   4   5
HETATM    5  C   UNL     1     -11.604  15.640  68.468  1.00  0.00    -0.378 C  
BRANCH   5   6
HETATM    6  C   UNL     1     -11.522  14.901  67.139  1.00  0.00    -0.344 C  
BRANCH   6   7
HETATM    7  C   UNL     1     -11.557  13.391  67.345  1.00  0.00    -0.394 C  
BRANCH   7   8
HETATM    8  C   UNL     1     -11.759  13.074  68.821  1.00  0.00    -0.363 C  
BRANCH   8   9
HETATM    9  C   UNL     1     -11.426  11.620  69.139  1.00  0.00    -0.364 C  
BRANCH   9  10
HETATM   10  C   UNL     1     -11.195  10.786  67.878  1.00  0.00    -0.386 C  
BRANCH  10  11
HETATM   11  C   UNL     1     -10.671   9.366  68.127  1.00  0.00    -0.230 C  
BRANCH  11  12
HETATM   12  C   UNL     1     -10.771   8.941  69.597  1.00  0.00    -0.217 C  
BRANCH  12  13
HETATM   13  N   UNL     1     -10.316   7.491  69.854  1.00  0.00    -0.217 N  
HETATM   14  C   UNL     1     -11.494   6.531  69.745  1.00  0.00    -0.379 C  
HETATM   15  C   UNL     1      -9.236   7.081  68.860  1.00  0.00    -0.136 C  
BRANCH  13  16
HETATM   16  C   UNL     1      -9.723   7.449  71.304  1.00  0.00    -0.165 C  
BRANCH  16  17
HETATM   17  C   UNL     1      -9.977   6.170  72.062  1.00  0.00    -0.194 A  
HETATM   18  C   UNL     1      -9.229   5.014  71.782  1.00  0.00    -0.171 A  
HETATM   19  C   UNL     1      -9.600   3.786  72.328  1.00  0.00    -0.205 A  
HETATM   20  C   UNL     1     -10.700   3.704  73.179  1.00  0.00    -0.268 A  
HETATM   21  C   UNL     1     -11.402   4.856  73.524  1.00  0.00    -0.303 A  
HETATM   22  C   UNL     1     -11.034   6.087  72.981  1.00  0.00    -0.289 A  
ENDBRANCH  16  17
ENDBRANCH  13  16
ENDBRANCH  12  13
ENDBRANCH  11  12
ENDBRANCH  10  11
ENDBRANCH   9  10
ENDBRANCH   8   9
ENDBRANCH   7   8
ENDBRANCH   6   7
ENDBRANCH   5   6
ENDBRANCH   4   5
ENDBRANCH   3   4
ENDBRANCH   2   3
TORSDOF 13
ENDMDL
MODEL      241
REMARK 921   NORMALIZED FREE ENERGY PREDICTED BY IDOCK:   -3.24 KCAL/MOL
REMARK 922        TOTAL FREE ENERGY PREDICTED BY IDOCK:   -7.17 KCAL/MOL
REMARK 923 INTER-LIGAND FREE ENERGY PREDICTED BY IDOCK:   -5.90 KCAL/MOL
REMARK 924 INTRA-LIGAND FREE ENERGY PREDICTED BY IDOCK:   -1.27 KCAL/MOL
REMARK 927      BINDING AFFINITY PREDICTED BY RF-SCORE:    0.00 PKD
ROOT
HETATM    1  C   UNL     1      -8.296   7.353  67.082  1.00  0.00    -0.118 C  
HETATM    2  C   UNL     1      -7.303   8.240  66.349  1.00  0.00    -0.080 C  
ENDROOT
BRANCH   2   3
HETATM    3  C   UNL     1      -8.023   9.271  65.485  1.00  0.00    -0.104 C  
BRANCH   3   4
HETATM    4  C   UNL     1      -7.698   9.074  64.007  1.00  0.00    -0.125 C  
BRANCH   4   5
HETATM    5  C   UNL     1      -8.583   9.964  63.139  1.00  0.00    -0.199 C  
BRANCH   5   6
HETATM    6  C   UNL     1      -9.674  10.618  63.977  1.00  0.00    -0.373 C  
BRANCH   6   7
HETATM    7  C   UNL     1     -10.241  11.849  63.278  1.00  0.00    -0.428 C  
BRANCH   7   8
HETATM    8  C   UNL     1     -11.708  12.025  63.647  1.00  0.00    -0.587 C  
BRANCH   8   9
HETATM    9  C   UNL     1     -11.996  13.428  64.171  1.00  0.00    -0.505 C  
BRANCH   9  10
HETATM   10  C   UNL     1     -12.596  13.413  65.578  1.00  0.00    -0.520 C  
BRANCH  10  11
HETATM   11  C   UNL     1     -11.583  13.581  66.716  1.00  0.00    -0.397 C  
BRANCH  11  12
HETATM   12  C   UNL     1     -11.893  12.696  67.929  1.00  0.00    -0.332 C  
BRANCH  12  13
HETATM   13  N   UNL     1     -10.844  11.593  68.174  1.00  0.00    -0.205 N  
HETATM   14  C   UNL     1     -11.131  10.375  67.305  1.00  0.00    -0.179 C  
HETATM   15  C   UNL     1      -9.440  12.108  67.877  1.00  0.00    -0.195 C  
BRANCH  13  16
HETATM   16  C   UNL     1     -10.937  11.204  69.689  1.00  0.00    -0.192 C  
BRANCH  16  17
HETATM   17  C   UNL     1     -10.429   9.825  70.028  1.00  0.00    -0.314 A  
HETATM   18  C   UNL     1     -11.326   8.790  70.339  1.00  0.00    -0.213 A  
HETATM   19  C   UNL     1     -10.858   7.582  70.853  1.00  0.00    -0.252 A  
HETATM   20  C   UNL     1      -9.491   7.384  71.035  1.00  0.00    -0.157 A  
HETATM   21  C   UNL     1      -8.587   8.374  70.659  1.00  0.00    -0.150 A  
HETATM   22  C   UNL     1      -9.051   9.584  70.143  1.00  0.00    -0.276 A  
ENDBRANCH  16  17
ENDBRANCH  13  16
ENDBRANCH  12  13
ENDBRANCH  11  12
ENDBRANCH  10  11
ENDBRANCH   9  10
ENDBRANCH   8   9
ENDBRANCH   7   8
ENDBRANCH   6   7
ENDBRANCH   5   6
ENDBRANCH   4   5
ENDBRANCH   3   4
ENDBRANCH   2   3
TORSDOF 13
ENDMDL
MODEL      242
REMARK 921   NORMALIZED FREE ENERGY PREDICTED BY IDOCK:   -3.23 KCAL/MOL
REMARK 922        TOTAL FREE ENERGY PREDICTED BY IDOCK:   -7.16 KCAL/MOL
REMARK 923 INTER-LIGAND FREE ENERGY PREDICTED BY IDOCK:   -5.54 KCAL/MOL
REMARK 924 INTRA-LIGAND FREE ENERGY PREDICTED BY IDOCK:   -1.62 KCAL/MOL
REMARK 927      BINDING AFFINITY PREDICTED BY RF-SCORE:    0.00 PKD
ROOT
HETATM    1  C   UNL     1      -7.525   8.313  72.156  1.00  0.00    -0.146 C  
HETATM    2  C   UNL     1      -7.884   7.585  70.871  1.00  0.00    -0.094 C  
ENDROOT
BRANCH   2   3
HETATM    3  C   UNL     1      -8.998   6.569  71.111  1.00  0.00    -0.145 C  
BRANCH   3   4
HETATM    4  C   UNL     1     -10.048   7.120  72.071  1.00  0.00    -0.194 C  
BRANCH   4   5
HETATM    5  C   UNL     1     -11.370   6.377  71.904  1.00  0.00    -0.339 C  
BRANCH   5   6
HETATM    6  C   UNL     1     -12.417   7.279  71.264  1.00  0.00    -0.402 C  
BRANCH   6   7
HETATM    7  C   UNL     1     -11.858   8.675  71.007  1.00  0.00    -0.303 C  
BRANCH   7   8
HETATM    8  C   UNL     1     -12.767   9.721  71.640  1.00  0.00    -0.517 C  
BRANCH   8   9
HETATM    9  C   UNL     1     -12.615  11.082  70.970  1.00  0.00    -0.512 C  
BRANCH   9  10
HETATM   10  C   UNL     1     -12.232  10.965  69.494  1.00  0.00    -0.331 C  
BRANCH  10  11
HETATM   11  C   UNL     1     -11.205  11.996  69.008  1.00  0.00    -0.313 C  
BRANCH  11  12
HETATM   12  C   UNL     1      -9.859  11.367  68.630  1.00  0.00    -0.193 C  
BRANCH  12  13
HETATM   13  N   UNL     1      -9.313  11.845  67.270  1.00  0.00    -0.174 N  
HETATM   14  C   UNL     1      -9.790  13.260  66.966  1.00  0.00    -0.242 C  
HETATM   15  C   UNL     1      -7.789  11.812  67.258  1.00  0.00    -0.161 C  
BRANCH  13  16
HETATM   16  C   UNL     1      -9.857  10.853  66.186  1.00  0.00    -0.222 C  
BRANCH  16  17
HETATM   17  C   UNL     1      -9.644   9.391  66.492  1.00  0.00    -0.267 A  
HETATM   18  C   UNL     1     -10.660   8.633  67.097  1.00  0.00    -0.304 A  
HETATM   19  C   UNL     1     -10.395   7.348  67.569  1.00  0.00    -0.320 A  
HETATM   20  C   UNL     1      -9.124   6.798  67.417  1.00  0.00    -0.117 A  
HETATM   21  C   UNL     1      -8.130   7.510  66.751  1.00  0.00    -0.123 A  
HETATM   22  C   UNL     1      -8.392   8.795  66.275  1.00  0.00    -0.120 A  
ENDBRANCH  16  17
ENDBRANCH  13  16
ENDBRANCH  12  13
ENDBRANCH  11  12
ENDBRANCH  10  11
ENDBRANCH   9  10
ENDBRANCH   8   9
ENDBRANCH   7   8
ENDBRANCH   6   7
ENDBRANCH   5   6
ENDBRANCH   4   5
ENDBRANCH   3   4
ENDBRANCH   2   3
TORSDOF 13
ENDMDL
MODEL      243
REMARK 921   NORMALIZED FREE ENERGY PREDICTED BY IDOCK:   -3.23 KCAL/MOL
REMARK 922        TOTAL FREE ENERGY PREDICTED BY IDOCK:   -7.16 KCAL/MOL
REMARK 923 INTER-LIGAND FREE ENERGY PREDICTED BY IDOCK:   -6.77 KCAL/MOL
REMARK 924 INTRA-LIGAND FREE ENERGY PREDICTED BY IDOCK:   -0.39 KCAL/MOL
REMARK 927      BINDING AFFINITY PREDICTED BY RF-SCORE:    0.00 PKD
ROOT
HETATM    1  C   UNL     1      -6.736  20.050  69.636  1.00  0.00    -0.294 C  
HETATM    2  C   UNL     1      -7.054  19.692  68.194  1.00  0.00    -0.327 C  
ENDROOT
BRANCH   2   3
HETATM    3  C   UNL     1      -8.270  18.773  68.114  1.00  0.00    -0.332 C  
BRANCH   3   4
HETATM    4  C   UNL     1      -9.536  19.563  67.793  1.00  0.00    -0.423 C  
BRANCH   4   5
HETATM    5  C   UNL     1     -10.683  18.619  67.443  1.00  0.00    -0.456 C  
BRANCH   5   6
HETATM    6  C   UNL     1     -10.600  17.342  68.268  1.00  0.00    -0.383 C  
BRANCH   6   7
HETATM    7  C   UNL     1     -11.136  16.146  67.487  1.00  0.00    -0.175 C  
BRANCH   7   8
HETATM    8  C   UNL     1     -10.216  15.841  66.311  1.00  0.00    -0.317 C  
BRANCH   8   9
HETATM    9  C   UNL     1      -9.492  14.511  66.491  1.00  0.00    -0.310 C  
BRANCH   9  10
HETATM   10  C   UNL     1     -10.165  13.372  65.723  1.00  0.00    -0.300 C  
BRANCH  10  11
HETATM   11  C   UNL     1      -9.701  11.964  66.114  1.00  0.00    -0.251 C  
BRANCH  11  12
HETATM   12  C   UNL     1      -9.472  11.807  67.622  1.00  0.00    -0.180 C  
BRANCH  12  13
HETATM   13  N   UNL     1     -10.534  10.936  68.322  1.00  0.00    -0.170 N  
HETATM   14  C   UNL     1     -11.795  11.746  68.598  1.00  0.00    -0.310 C  
HETATM   15  C   UNL     1     -10.888   9.725  67.466  1.00  0.00    -0.220 C  
BRANCH  13  16
HETATM   16  C   UNL     1      -9.906  10.446  69.671  1.00  0.00    -0.144 C  
BRANCH  16  17
HETATM   17  C   UNL     1     -10.786   9.539  70.494  1.00  0.00    -0.352 A  
HETATM   18  C   UNL     1     -10.741   8.146  70.317  1.00  0.00    -0.235 A  
HETATM   19  C   UNL     1     -11.694   7.327  70.921  1.00  0.00    -0.348 A  
HETATM   20  C   UNL     1     -12.682   7.886  71.728  1.00  0.00    -0.353 A  
HETATM   21  C   UNL     1     -12.691   9.256  71.973  1.00  0.00    -0.479 A  
HETATM   22  C   UNL     1     -11.738  10.079  71.372  1.00  0.00    -0.414 A  
ENDBRANCH  16  17
ENDBRANCH  13  16
ENDBRANCH  12  13
ENDBRANCH  11  12
ENDBRANCH  10  11
ENDBRANCH   9  10
ENDBRANCH   8   9
ENDBRANCH   7   8
ENDBRANCH   6   7
ENDBRANCH   5   6
ENDBRANCH   4   5
ENDBRANCH   3   4
ENDBRANCH   2   3
TORSDOF 13
ENDMDL
MODEL      244
REMARK 921   NORMALIZED FREE ENERGY PREDICTED BY IDOCK:   -3.22 KCAL/MOL
REMARK 922        TOTAL FREE ENERGY PREDICTED BY IDOCK:   -7.13 KCAL/MOL
REMARK 923 INTER-LIGAND FREE ENERGY PREDICTED BY IDOCK:   -6.58 KCAL/MOL
REMARK 924 INTRA-LIGAND FREE ENERGY PREDICTED BY IDOCK:   -0.56 KCAL/MOL
REMARK 927      BINDING AFFINITY PREDICTED BY RF-SCORE:    0.00 PKD
ROOT
HETATM    1  C   UNL     1      -7.898   3.985  69.566  1.00  0.00    -0.052 C  
HETATM    2  C   UNL     1      -9.039   4.539  68.729  1.00  0.00    -0.166 C  
ENDROOT
BRANCH   2   3
HETATM    3  C   UNL     1     -10.152   5.091  69.616  1.00  0.00    -0.321 C  
BRANCH   3   4
HETATM    4  C   UNL     1     -10.671   6.422  69.083  1.00  0.00    -0.339 C  
BRANCH   4   5
HETATM    5  C   UNL     1     -10.955   6.328  67.587  1.00  0.00    -0.438 C  
BRANCH   5   6
HETATM    6  C   UNL     1     -10.161   7.379  66.822  1.00  0.00    -0.313 C  
BRANCH   6   7
HETATM    7  C   UNL     1      -9.890   8.604  67.689  1.00  0.00    -0.229 C  
BRANCH   7   8
HETATM    8  C   UNL     1     -10.252   9.870  66.925  1.00  0.00    -0.302 C  
BRANCH   8   9
HETATM    9  C   UNL     1      -9.191  10.229  65.890  1.00  0.00    -0.205 C  
BRANCH   9  10
HETATM   10  C   UNL     1      -9.800  10.729  64.579  1.00  0.00    -0.369 C  
BRANCH  10  11
HETATM   11  C   UNL     1     -10.772  11.906  64.724  1.00  0.00    -0.356 C  
BRANCH  11  12
HETATM   12  C   UNL     1     -10.118  13.150  65.338  1.00  0.00    -0.248 C  
BRANCH  12  13
HETATM   13  N   UNL     1     -11.121  14.106  66.014  1.00  0.00    -0.310 N  
HETATM   14  C   UNL     1     -12.551  13.733  65.643  1.00  0.00    -0.509 C  
HETATM   15  C   UNL     1     -10.965  14.069  67.529  1.00  0.00    -0.277 C  
BRANCH  13  16
HETATM   16  C   UNL     1     -10.793  15.549  65.499  1.00  0.00    -0.361 C  
BRANCH  16  17
HETATM   17  C   UNL     1      -9.863  16.347  66.380  1.00  0.00    -0.312 A  
HETATM   18  C   UNL     1     -10.375  17.275  67.302  1.00  0.00    -0.331 A  
HETATM   19  C   UNL     1      -9.521  18.157  67.962  1.00  0.00    -0.290 A  
HETATM   20  C   UNL     1      -8.149  18.103  67.730  1.00  0.00    -0.240 A  
HETATM   21  C   UNL     1      -7.622  17.137  66.877  1.00  0.00    -0.240 A  
HETATM   22  C   UNL     1      -8.473  16.251  66.216  1.00  0.00    -0.369 A  
ENDBRANCH  16  17
ENDBRANCH  13  16
ENDBRANCH  12  13
ENDBRANCH  11  12
ENDBRANCH  10  11
ENDBRANCH   9  10
ENDBRANCH   8   9
ENDBRANCH   7   8
ENDBRANCH   6   7
ENDBRANCH   5   6
ENDBRANCH   4   5
ENDBRANCH   3   4
ENDBRANCH   2   3
TORSDOF 13
ENDMDL
MODEL      245
REMARK 921   NORMALIZED FREE ENERGY PREDICTED BY IDOCK:   -3.22 KCAL/MOL
REMARK 922        TOTAL FREE ENERGY PREDICTED BY IDOCK:   -7.13 KCAL/MOL
REMARK 923 INTER-LIGAND FREE ENERGY PREDICTED BY IDOCK:   -5.86 KCAL/MOL
REMARK 924 INTRA-LIGAND FREE ENERGY PREDICTED BY IDOCK:   -1.27 KCAL/MOL
REMARK 927      BINDING AFFINITY PREDICTED BY RF-SCORE:    0.00 PKD
ROOT
HETATM    1  C   UNL     1      -9.964  18.609  66.186  1.00  0.00    -0.355 C  
HETATM    2  C   UNL     1     -10.094  19.457  67.440  1.00  0.00    -0.506 C  
ENDROOT
BRANCH   2   3
HETATM    3  C   UNL     1      -8.786  20.182  67.748  1.00  0.00    -0.349 C  
BRANCH   3   4
HETATM    4  C   UNL     1      -7.606  19.504  67.059  1.00  0.00    -0.266 C  
BRANCH   4   5
HETATM    5  C   UNL     1      -6.391  19.473  67.981  1.00  0.00    -0.246 C  
BRANCH   5   6
HETATM    6  C   UNL     1      -5.895  18.046  68.170  1.00  0.00    -0.168 C  
BRANCH   6   7
HETATM    7  C   UNL     1      -6.791  17.274  69.134  1.00  0.00    -0.234 C  
BRANCH   7   8
HETATM    8  C   UNL     1      -6.334  15.823  69.217  1.00  0.00    -0.147 C  
BRANCH   8   9
HETATM    9  C   UNL     1      -6.285  15.167  67.841  1.00  0.00    -0.172 C  
BRANCH   9  10
HETATM   10  C   UNL     1      -7.664  14.707  67.365  1.00  0.00    -0.226 C  
BRANCH  10  11
HETATM   11  C   UNL     1      -7.859  13.187  67.318  1.00  0.00    -0.125 C  
BRANCH  11  12
HETATM   12  C   UNL     1      -8.878  12.682  68.346  1.00  0.00    -0.119 C  
BRANCH  12  13
HETATM   13  N   UNL     1      -9.782  11.551  67.818  1.00  0.00    -0.171 N  
HETATM   14  C   UNL     1      -9.104  10.812  66.670  1.00  0.00    -0.159 C  
HETATM   15  C   UNL     1     -10.114  10.562  68.929  1.00  0.00    -0.202 C  
BRANCH  13  16
HETATM   16  C   UNL     1     -11.105  12.222  67.315  1.00  0.00    -0.275 C  
BRANCH  16  17
HETATM   17  C   UNL     1     -11.553  13.426  68.106  1.00  0.00    -0.376 A  
HETATM   18  C   UNL     1     -11.386  14.722  67.590  1.00  0.00    -0.352 A  
HETATM   19  C   UNL     1     -11.603  15.836  68.399  1.00  0.00    -0.343 A  
HETATM   20  C   UNL     1     -12.016  15.669  69.719  1.00  0.00    -0.371 A  
HETATM   21  C   UNL     1     -12.258  14.393  70.218  1.00  0.00    -0.397 A  
HETATM   22  C   UNL     1     -12.044  13.275  69.412  1.00  0.00    -0.301 A  
ENDBRANCH  16  17
ENDBRANCH  13  16
ENDBRANCH  12  13
ENDBRANCH  11  12
ENDBRANCH  10  11
ENDBRANCH   9  10
ENDBRANCH   8   9
ENDBRANCH   7   8
ENDBRANCH   6   7
ENDBRANCH   5   6
ENDBRANCH   4   5
ENDBRANCH   3   4
ENDBRANCH   2   3
TORSDOF 13
ENDMDL
MODEL      246
REMARK 921   NORMALIZED FREE ENERGY PREDICTED BY IDOCK:   -3.20 KCAL/MOL
REMARK 922        TOTAL FREE ENERGY PREDICTED BY IDOCK:   -7.11 KCAL/MOL
REMARK 923 INTER-LIGAND FREE ENERGY PREDICTED BY IDOCK:   -6.46 KCAL/MOL
REMARK 924 INTRA-LIGAND FREE ENERGY PREDICTED BY IDOCK:   -0.65 KCAL/MOL
REMARK 927      BINDING AFFINITY PREDICTED BY RF-SCORE:    0.00 PKD
ROOT
HETATM    1  C   UNL     1      -9.910   7.172  73.616  1.00  0.00    -0.342 C  
HETATM    2  C   UNL     1      -9.851   5.686  73.304  1.00  0.00    -0.178 C  
ENDROOT
BRANCH   2   3
HETATM    3  C   UNL     1     -11.049   5.256  72.460  1.00  0.00    -0.289 C  
BRANCH   3   4
HETATM    4  C   UNL     1     -11.883   6.461  72.035  1.00  0.00    -0.382 C  
BRANCH   4   5
HETATM    5  C   UNL     1     -11.901   6.592  70.515  1.00  0.00    -0.393 C  
BRANCH   5   6
HETATM    6  C   UNL     1     -10.483   6.676  69.965  1.00  0.00    -0.250 C  
BRANCH   6   7
HETATM    7  C   UNL     1     -10.282   5.702  68.809  1.00  0.00    -0.269 C  
BRANCH   7   8
HETATM    8  C   UNL     1     -10.676   6.368  67.497  1.00  0.00    -0.396 C  
BRANCH   8   9
HETATM    9  C   UNL     1     -10.368   7.862  67.506  1.00  0.00    -0.329 C  
BRANCH   9  10
HETATM   10  C   UNL     1      -9.687   8.326  66.217  1.00  0.00    -0.253 C  
BRANCH  10  11
HETATM   11  C   UNL     1      -9.785   9.830  65.939  1.00  0.00    -0.332 C  
BRANCH  11  12
HETATM   12  C   UNL     1     -10.772  10.549  66.867  1.00  0.00    -0.219 C  
BRANCH  12  13
HETATM   13  N   UNL     1     -10.355  11.991  67.215  1.00  0.00    -0.210 N  
HETATM   14  C   UNL     1     -11.548  12.784  67.736  1.00  0.00    -0.353 C  
HETATM   15  C   UNL     1      -9.248  11.995  68.263  1.00  0.00    -0.192 C  
BRANCH  13  16
HETATM   16  C   UNL     1      -9.816  12.641  65.895  1.00  0.00    -0.244 C  
BRANCH  16  17
HETATM   17  C   UNL     1     -10.218  14.079  65.679  1.00  0.00    -0.351 A  
HETATM   18  C   UNL     1     -11.216  14.408  64.746  1.00  0.00    -0.391 A  
HETATM   19  C   UNL     1     -11.441  15.738  64.395  1.00  0.00    -0.268 A  
HETATM   20  C   UNL     1     -10.694  16.752  64.989  1.00  0.00    -0.118 A  
HETATM   21  C   UNL     1      -9.755  16.444  65.970  1.00  0.00    -0.356 A  
HETATM   22  C   UNL     1      -9.528  15.115  66.327  1.00  0.00    -0.341 A  
ENDBRANCH  16  17
ENDBRANCH  13  16
ENDBRANCH  12  13
ENDBRANCH  11  12
ENDBRANCH  10  11
ENDBRANCH   9  10
ENDBRANCH   8   9
ENDBRANCH   7   8
ENDBRANCH   6   7
ENDBRANCH   5   6
ENDBRANCH   4   5
ENDBRANCH   3   4
ENDBRANCH   2   3
TORSDOF 13
ENDMDL
MODEL      247
REMARK 921   NORMALIZED FREE ENERGY PREDICTED BY IDOCK:   -3.20 KCAL/MOL
REMARK 922        TOTAL FREE ENERGY PREDICTED BY IDOCK:   -7.10 KCAL/MOL
REMARK 923 INTER-LIGAND FREE ENERGY PREDICTED BY IDOCK:   -6.44 KCAL/MOL
REMARK 924 INTRA-LIGAND FREE ENERGY PREDICTED BY IDOCK:   -0.66 KCAL/MOL
REMARK 927      BINDING AFFINITY PREDICTED BY RF-SCORE:    0.00 PKD
ROOT
HETATM    1  C   UNL     1      -7.337   7.502  73.393  1.00  0.00    -0.109 C  
HETATM    2  C   UNL     1      -6.708   7.400  72.014  1.00  0.00    -0.054 C  
ENDROOT
BRANCH   2   3
HETATM    3  C   UNL     1      -7.586   6.582  71.070  1.00  0.00    -0.089 C  
BRANCH   3   4
HETATM    4  C   UNL     1      -9.059   6.940  71.240  1.00  0.00    -0.149 C  
BRANCH   4   5
HETATM    5  C   UNL     1      -9.942   5.959  70.474  1.00  0.00    -0.243 C  
BRANCH   5   6
HETATM    6  C   UNL     1     -11.408   6.164  70.830  1.00  0.00    -0.364 C  
BRANCH   6   7
HETATM    7  C   UNL     1     -11.762   7.647  70.877  1.00  0.00    -0.291 C  
BRANCH   7   8
HETATM    8  C   UNL     1     -12.446   7.974  72.198  1.00  0.00    -0.335 C  
BRANCH   8   9
HETATM    9  C   UNL     1     -12.794   9.455  72.303  1.00  0.00    -0.452 C  
BRANCH   9  10
HETATM   10  C   UNL     1     -13.007  10.102  70.933  1.00  0.00    -0.432 C  
BRANCH  10  11
HETATM   11  C   UNL     1     -11.948  11.137  70.534  1.00  0.00    -0.475 C  
BRANCH  11  12
HETATM   12  C   UNL     1     -11.750  11.236  69.017  1.00  0.00    -0.342 C  
BRANCH  12  13
HETATM   13  N   UNL     1     -10.442  10.588  68.520  1.00  0.00    -0.177 N  
HETATM   14  C   UNL     1      -9.505  10.306  69.688  1.00  0.00    -0.151 C  
HETATM   15  C   UNL     1     -10.732   9.289  67.779  1.00  0.00    -0.207 C  
BRANCH  13  16
HETATM   16  C   UNL     1      -9.776  11.606  67.532  1.00  0.00    -0.177 C  
BRANCH  16  17
HETATM   17  C   UNL     1     -10.739  12.484  66.773  1.00  0.00    -0.261 A  
HETATM   18  C   UNL     1     -11.098  13.748  67.271  1.00  0.00    -0.319 A  
HETATM   19  C   UNL     1     -12.138  14.467  66.685  1.00  0.00    -0.392 A  
HETATM   20  C   UNL     1     -12.810  13.946  65.580  1.00  0.00    -0.467 A  
HETATM   21  C   UNL     1     -12.412  12.731  65.031  1.00  0.00    -0.572 A  
HETATM   22  C   UNL     1     -11.370  12.009  65.613  1.00  0.00    -0.381 A  
ENDBRANCH  16  17
ENDBRANCH  13  16
ENDBRANCH  12  13
ENDBRANCH  11  12
ENDBRANCH  10  11
ENDBRANCH   9  10
ENDBRANCH   8   9
ENDBRANCH   7   8
ENDBRANCH   6   7
ENDBRANCH   5   6
ENDBRANCH   4   5
ENDBRANCH   3   4
ENDBRANCH   2   3
TORSDOF 13
ENDMDL
MODEL      248
REMARK 921   NORMALIZED FREE ENERGY PREDICTED BY IDOCK:   -3.20 KCAL/MOL
REMARK 922        TOTAL FREE ENERGY PREDICTED BY IDOCK:   -7.10 KCAL/MOL
REMARK 923 INTER-LIGAND FREE ENERGY PREDICTED BY IDOCK:   -6.17 KCAL/MOL
REMARK 924 INTRA-LIGAND FREE ENERGY PREDICTED BY IDOCK:   -0.93 KCAL/MOL
REMARK 927      BINDING AFFINITY PREDICTED BY RF-SCORE:    0.00 PKD
ROOT
HETATM    1  C   UNL     1      -7.359   8.963  71.403  1.00  0.00    -0.106 C  
HETATM    2  C   UNL     1      -7.760   7.559  71.824  1.00  0.00    -0.085 C  
ENDROOT
BRANCH   2   3
HETATM    3  C   UNL     1      -8.754   7.598  72.982  1.00  0.00    -0.213 C  
BRANCH   3   4
HETATM    4  C   UNL     1     -10.072   8.238  72.555  1.00  0.00    -0.376 C  
BRANCH   4   5
HETATM    5  C   UNL     1     -10.610   7.568  71.295  1.00  0.00    -0.230 C  
BRANCH   5   6
HETATM    6  C   UNL     1     -10.925   6.101  71.558  1.00  0.00    -0.328 C  
BRANCH   6   7
HETATM    7  C   UNL     1     -10.526   5.230  70.371  1.00  0.00    -0.322 C  
BRANCH   7   8
HETATM    8  C   UNL     1      -9.767   6.066  69.348  1.00  0.00    -0.176 C  
BRANCH   8   9
HETATM    9  C   UNL     1     -10.188   5.731  67.920  1.00  0.00    -0.231 C  
BRANCH   9  10
HETATM   10  C   UNL     1     -10.601   6.973  67.128  1.00  0.00    -0.412 C  
BRANCH  10  11
HETATM   11  C   UNL     1     -10.324   8.309  67.827  1.00  0.00    -0.296 C  
BRANCH  11  12
HETATM   12  C   UNL     1      -9.190   9.105  67.170  1.00  0.00    -0.133 C  
BRANCH  12  13
HETATM   13  N   UNL     1      -9.494  10.608  67.022  1.00  0.00    -0.162 N  
HETATM   14  C   UNL     1      -9.318  11.327  68.354  1.00  0.00    -0.181 C  
HETATM   15  C   UNL     1      -8.581  11.244  65.980  1.00  0.00    -0.130 C  
BRANCH  13  16
HETATM   16  C   UNL     1     -10.981  10.727  66.542  1.00  0.00    -0.075 C  
BRANCH  16  17
HETATM   17  C   UNL     1     -11.299  11.969  65.746  1.00  0.00    -0.384 A  
HETATM   18  C   UNL     1     -11.805  13.115  66.384  1.00  0.00    -0.455 A  
HETATM   19  C   UNL     1     -12.293  14.182  65.631  1.00  0.00    -0.473 A  
HETATM   20  C   UNL     1     -12.257  14.128  64.240  1.00  0.00    -0.449 A  
HETATM   21  C   UNL     1     -11.688  13.032  63.598  1.00  0.00    -0.550 A  
HETATM   22  C   UNL     1     -11.197  11.962  64.347  1.00  0.00    -0.401 A  
ENDBRANCH  16  17
ENDBRANCH  13  16
ENDBRANCH  12  13
ENDBRANCH  11  12
ENDBRANCH  10  11
ENDBRANCH   9  10
ENDBRANCH   8   9
ENDBRANCH   7   8
ENDBRANCH   6   7
ENDBRANCH   5   6
ENDBRANCH   4   5
ENDBRANCH   3   4
ENDBRANCH   2   3
TORSDOF 13
ENDMDL
MODEL      249
REMARK 921   NORMALIZED FREE ENERGY PREDICTED BY IDOCK:   -3.20 KCAL/MOL
REMARK 922        TOTAL FREE ENERGY PREDICTED BY IDOCK:   -7.10 KCAL/MOL
REMARK 923 INTER-LIGAND FREE ENERGY PREDICTED BY IDOCK:   -5.24 KCAL/MOL
REMARK 924 INTRA-LIGAND FREE ENERGY PREDICTED BY IDOCK:   -1.86 KCAL/MOL
REMARK 927      BINDING AFFINITY PREDICTED BY RF-SCORE:    0.00 PKD
ROOT
HETATM    1  C   UNL     1     -11.495   8.523  72.048  1.00  0.00    -0.431 C  
HETATM    2  C   UNL     1     -12.282   7.384  71.421  1.00  0.00    -0.374 C  
ENDROOT
BRANCH   2   3
HETATM    3  C   UNL     1     -11.786   6.032  71.925  1.00  0.00    -0.287 C  
BRANCH   3   4
HETATM    4  C   UNL     1     -10.292   5.863  71.668  1.00  0.00    -0.268 C  
BRANCH   4   5
HETATM    5  C   UNL     1     -10.054   5.011  70.425  1.00  0.00    -0.330 C  
BRANCH   5   6
HETATM    6  C   UNL     1      -9.362   5.824  69.339  1.00  0.00    -0.151 C  
BRANCH   6   7
HETATM    7  C   UNL     1     -10.173   5.819  68.046  1.00  0.00    -0.231 C  
BRANCH   7   8
HETATM    8  C   UNL     1     -11.026   7.078  67.965  1.00  0.00    -0.185 C  
BRANCH   8   9
HETATM    9  C   UNL     1     -10.172   8.328  67.776  1.00  0.00    -0.282 C  
BRANCH   9  10
HETATM   10  C   UNL     1     -10.294   9.302  68.949  1.00  0.00    -0.231 C  
BRANCH  10  11
HETATM   11  C   UNL     1     -11.088  10.579  68.650  1.00  0.00    -0.319 C  
BRANCH  11  12
HETATM   12  C   UNL     1     -11.035  10.985  67.172  1.00  0.00    -0.283 C  
BRANCH  12  13
HETATM   13  N   UNL     1     -10.909  12.505  66.952  1.00  0.00    -0.243 N  
HETATM   14  C   UNL     1     -11.905  12.981  65.902  1.00  0.00    -0.416 C  
HETATM   15  C   UNL     1     -11.147  13.260  68.254  1.00  0.00    -0.266 C  
BRANCH  13  16
HETATM   16  C   UNL     1      -9.445  12.775  66.463  1.00  0.00    -0.253 C  
BRANCH  16  17
HETATM   17  C   UNL     1      -8.534  11.572  66.476  1.00  0.00    -0.160 A  
HETATM   18  C   UNL     1      -7.618  11.382  67.524  1.00  0.00    -0.117 A  
HETATM   19  C   UNL     1      -6.638  10.395  67.434  1.00  0.00    -0.067 A  
HETATM   20  C   UNL     1      -6.581   9.570  66.312  1.00  0.00    -0.071 A  
HETATM   21  C   UNL     1      -7.530   9.699  65.302  1.00  0.00    -0.113 A  
HETATM   22  C   UNL     1      -8.513  10.685  65.389  1.00  0.00    -0.162 A  
ENDBRANCH  16  17
ENDBRANCH  13  16
ENDBRANCH  12  13
ENDBRANCH  11  12
ENDBRANCH  10  11
ENDBRANCH   9  10
ENDBRANCH   8   9
ENDBRANCH   7   8
ENDBRANCH   6   7
ENDBRANCH   5   6
ENDBRANCH   4   5
ENDBRANCH   3   4
ENDBRANCH   2   3
TORSDOF 13
ENDMDL
MODEL      250
REMARK 921   NORMALIZED FREE ENERGY PREDICTED BY IDOCK:   -3.19 KCAL/MOL
REMARK 922        TOTAL FREE ENERGY PREDICTED BY IDOCK:   -7.10 KCAL/MOL
REMARK 923 INTER-LIGAND FREE ENERGY PREDICTED BY IDOCK:   -5.69 KCAL/MOL
REMARK 924 INTRA-LIGAND FREE ENERGY PREDICTED BY IDOCK:   -1.40 KCAL/MOL
REMARK 927      BINDING AFFINITY PREDICTED BY RF-SCORE:    0.00 PKD
ROOT
HETATM    1  C   UNL     1     -12.415  14.943  71.703  1.00  0.00    -0.395 C  
HETATM    2  C   UNL     1     -12.542  13.709  70.827  1.00  0.00    -0.397 C  
ENDROOT
BRANCH   2   3
HETATM    3  C   UNL     1     -12.889  12.479  71.661  1.00  0.00    -0.368 C  
BRANCH   3   4
HETATM    4  C   UNL     1     -12.624  11.193  70.883  1.00  0.00    -0.483 C  
BRANCH   4   5
HETATM    5  C   UNL     1     -13.072   9.977  71.687  1.00  0.00    -0.547 C  
BRANCH   5   6
HETATM    6  C   UNL     1     -11.993   8.902  71.683  1.00  0.00    -0.415 C  
BRANCH   6   7
HETATM    7  C   UNL     1     -10.904   9.219  70.663  1.00  0.00    -0.339 C  
BRANCH   7   8
HETATM    8  C   UNL     1      -9.711   8.296  70.876  1.00  0.00    -0.204 C  
BRANCH   8   9
HETATM    9  C   UNL     1      -8.417   9.080  71.069  1.00  0.00    -0.254 C  
BRANCH   9  10
HETATM   10  C   UNL     1      -7.798   9.520  69.741  1.00  0.00    -0.128 C  
BRANCH  10  11
HETATM   11  C   UNL     1      -7.708   8.422  68.674  1.00  0.00    -0.107 C  
BRANCH  11  12
HETATM   12  C   UNL     1      -8.557   8.723  67.432  1.00  0.00    -0.126 C  
BRANCH  12  13
HETATM   13  N   UNL     1      -7.739   8.801  66.128  1.00  0.00    -0.100 N  
HETATM   14  C   UNL     1      -6.253   8.625  66.414  1.00  0.00    -0.060 C  
HETATM   15  C   UNL     1      -8.194   7.732  65.141  1.00  0.00    -0.132 C  
BRANCH  13  16
HETATM   16  C   UNL     1      -8.001  10.216  65.509  1.00  0.00    -0.146 C  
BRANCH  16  17
HETATM   17  C   UNL     1      -8.924  11.103  66.308  1.00  0.00    -0.202 A  
HETATM   18  C   UNL     1      -8.403  12.080  67.173  1.00  0.00    -0.181 A  
HETATM   19  C   UNL     1      -9.241  12.752  68.062  1.00  0.00    -0.208 A  
HETATM   20  C   UNL     1     -10.606  12.478  68.076  1.00  0.00    -0.237 A  
HETATM   21  C   UNL     1     -11.145  11.568  67.170  1.00  0.00    -0.355 A  
HETATM   22  C   UNL     1     -10.311  10.894  66.278  1.00  0.00    -0.306 A  
ENDBRANCH  16  17
ENDBRANCH  13  16
ENDBRANCH  12  13
ENDBRANCH  11  12
ENDBRANCH  10  11
ENDBRANCH   9  10
ENDBRANCH   8   9
ENDBRANCH   7   8
ENDBRANCH   6   7
ENDBRANCH   5   6
ENDBRANCH   4   5
ENDBRANCH   3   4
ENDBRANCH   2   3
TORSDOF 13
ENDMDL
MODEL      251
REMARK 921   NORMALIZED FREE ENERGY PREDICTED BY IDOCK:   -3.19 KCAL/MOL
REMARK 922        TOTAL FREE ENERGY PREDICTED BY IDOCK:   -7.09 KCAL/MOL
REMARK 923 INTER-LIGAND FREE ENERGY PREDICTED BY IDOCK:   -6.48 KCAL/MOL
REMARK 924 INTRA-LIGAND FREE ENERGY PREDICTED BY IDOCK:   -0.61 KCAL/MOL
REMARK 927      BINDING AFFINITY PREDICTED BY RF-SCORE:    0.00 PKD
ROOT
HETATM    1  C   UNL     1      -8.135   6.336  67.686  1.00  0.00    -0.117 C  
HETATM    2  C   UNL     1      -7.573   7.646  68.214  1.00  0.00    -0.114 C  
ENDROOT
BRANCH   2   3
HETATM    3  C   UNL     1      -7.518   8.701  67.112  1.00  0.00    -0.088 C  
BRANCH   3   4
HETATM    4  C   UNL     1      -6.980   8.112  65.812  1.00  0.00    -0.064 C  
BRANCH   4   5
HETATM    5  C   UNL     1      -7.818   8.579  64.624  1.00  0.00    -0.131 C  
BRANCH   5   6
HETATM    6  C   UNL     1      -8.897   9.554  65.077  1.00  0.00    -0.232 C  
BRANCH   6   7
HETATM    7  C   UNL     1      -9.494  10.303  63.891  1.00  0.00    -0.356 C  
BRANCH   7   8
HETATM    8  C   UNL     1     -10.633  11.198  64.364  1.00  0.00    -0.411 C  
BRANCH   8   9
HETATM    9  C   UNL     1     -10.972  12.272  63.336  1.00  0.00    -0.467 C  
BRANCH   9  10
HETATM   10  C   UNL     1     -12.329  12.927  63.602  1.00  0.00    -0.520 C  
BRANCH  10  11
HETATM   11  C   UNL     1     -12.267  14.258  64.360  1.00  0.00    -0.471 C  
BRANCH  11  12
HETATM   12  C   UNL     1     -12.359  14.086  65.881  1.00  0.00    -0.486 C  
BRANCH  12  13
HETATM   13  N   UNL     1     -11.045  14.409  66.620  1.00  0.00    -0.318 N  
HETATM   14  C   UNL     1     -10.515  13.174  67.338  1.00  0.00    -0.242 C  
HETATM   15  C   UNL     1      -9.990  14.920  65.646  1.00  0.00    -0.358 C  
BRANCH  13  16
HETATM   16  C   UNL     1     -11.372  15.534  67.660  1.00  0.00    -0.260 C  
BRANCH  16  17
HETATM   17  C   UNL     1     -10.316  16.603  67.800  1.00  0.00    -0.306 A  
HETATM   18  C   UNL     1      -9.091  16.318  68.427  1.00  0.00    -0.203 A  
HETATM   19  C   UNL     1      -8.206  17.347  68.743  1.00  0.00    -0.226 A  
HETATM   20  C   UNL     1      -8.520  18.663  68.412  1.00  0.00    -0.366 A  
HETATM   21  C   UNL     1      -9.695  18.948  67.723  1.00  0.00    -0.371 A  
HETATM   22  C   UNL     1     -10.584  17.922  67.403  1.00  0.00    -0.370 A  
ENDBRANCH  16  17
ENDBRANCH  13  16
ENDBRANCH  12  13
ENDBRANCH  11  12
ENDBRANCH  10  11
ENDBRANCH   9  10
ENDBRANCH   8   9
ENDBRANCH   7   8
ENDBRANCH   6   7
ENDBRANCH   5   6
ENDBRANCH   4   5
ENDBRANCH   3   4
ENDBRANCH   2   3
TORSDOF 13
ENDMDL
MODEL      252
REMARK 921   NORMALIZED FREE ENERGY PREDICTED BY IDOCK:   -3.18 KCAL/MOL
REMARK 922        TOTAL FREE ENERGY PREDICTED BY IDOCK:   -7.07 KCAL/MOL
REMARK 923 INTER-LIGAND FREE ENERGY PREDICTED BY IDOCK:   -6.35 KCAL/MOL
REMARK 924 INTRA-LIGAND FREE ENERGY PREDICTED BY IDOCK:   -0.72 KCAL/MOL
REMARK 927      BINDING AFFINITY PREDICTED BY RF-SCORE:    0.00 PKD
ROOT
HETATM    1  C   UNL     1     -13.090  14.015  71.654  1.00  0.00    -0.435 C  
HETATM    2  C   UNL     1     -12.574  15.354  71.154  1.00  0.00    -0.485 C  
ENDROOT
BRANCH   2   3
HETATM    3  C   UNL     1     -12.249  15.293  69.663  1.00  0.00    -0.304 C  
BRANCH   3   4
HETATM    4  C   UNL     1     -11.285  14.151  69.357  1.00  0.00    -0.298 C  
BRANCH   4   5
HETATM    5  C   UNL     1     -11.805  13.306  68.198  1.00  0.00    -0.388 C  
BRANCH   5   6
HETATM    6  C   UNL     1     -12.002  14.161  66.954  1.00  0.00    -0.479 C  
BRANCH   6   7
HETATM    7  C   UNL     1     -11.240  13.586  65.764  1.00  0.00    -0.308 C  
BRANCH   7   8
HETATM    8  C   UNL     1     -11.572  12.108  65.602  1.00  0.00    -0.409 C  
BRANCH   8   9
HETATM    9  C   UNL     1     -10.862  11.498  64.398  1.00  0.00    -0.405 C  
BRANCH   9  10
HETATM   10  C   UNL     1      -9.727  10.557  64.804  1.00  0.00    -0.365 C  
BRANCH  10  11
HETATM   11  C   UNL     1      -9.979   9.757  66.088  1.00  0.00    -0.338 C  
BRANCH  11  12
HETATM   12  C   UNL     1      -9.343   8.362  66.058  1.00  0.00    -0.177 C  
BRANCH  12  13
HETATM   13  N   UNL     1      -8.261   8.152  67.135  1.00  0.00    -0.119 N  
HETATM   14  C   UNL     1      -7.975   6.668  67.328  1.00  0.00    -0.117 C  
HETATM   15  C   UNL     1      -6.972   8.869  66.752  1.00  0.00    -0.077 C  
BRANCH  13  16
HETATM   16  C   UNL     1      -8.815   8.768  68.465  1.00  0.00    -0.138 C  
BRANCH  16  17
HETATM   17  C   UNL     1      -9.489   7.788  69.392  1.00  0.00    -0.156 A  
HETATM   18  C   UNL     1      -8.809   7.279  70.511  1.00  0.00    -0.153 A  
HETATM   19  C   UNL     1      -9.348   6.223  71.244  1.00  0.00    -0.164 A  
HETATM   20  C   UNL     1     -10.582   5.685  70.887  1.00  0.00    -0.328 A  
HETATM   21  C   UNL     1     -11.301   6.231  69.827  1.00  0.00    -0.506 A  
HETATM   22  C   UNL     1     -10.766   7.289  69.092  1.00  0.00    -0.201 A  
ENDBRANCH  16  17
ENDBRANCH  13  16
ENDBRANCH  12  13
ENDBRANCH  11  12
ENDBRANCH  10  11
ENDBRANCH   9  10
ENDBRANCH   8   9
ENDBRANCH   7   8
ENDBRANCH   6   7
ENDBRANCH   5   6
ENDBRANCH   4   5
ENDBRANCH   3   4
ENDBRANCH   2   3
TORSDOF 13
ENDMDL
MODEL      253
REMARK 921   NORMALIZED FREE ENERGY PREDICTED BY IDOCK:   -3.18 KCAL/MOL
REMARK 922        TOTAL FREE ENERGY PREDICTED BY IDOCK:   -7.06 KCAL/MOL
REMARK 923 INTER-LIGAND FREE ENERGY PREDICTED BY IDOCK:   -4.99 KCAL/MOL
REMARK 924 INTRA-LIGAND FREE ENERGY PREDICTED BY IDOCK:   -2.07 KCAL/MOL
REMARK 927      BINDING AFFINITY PREDICTED BY RF-SCORE:    0.00 PKD
ROOT
HETATM    1  C   UNL     1     -10.832  10.050  67.758  1.00  0.00    -0.337 C  
HETATM    2  C   UNL     1     -10.003   8.918  67.177  1.00  0.00    -0.289 C  
ENDROOT
BRANCH   2   3
HETATM    3  C   UNL     1      -8.555   9.353  66.966  1.00  0.00    -0.131 C  
BRANCH   3   4
HETATM    4  C   UNL     1      -7.744   8.254  66.286  1.00  0.00    -0.097 C  
BRANCH   4   5
HETATM    5  C   UNL     1      -6.462   7.973  67.064  1.00  0.00    -0.056 C  
BRANCH   5   6
HETATM    6  C   UNL     1      -6.393   6.509  67.478  1.00  0.00    -0.043 C  
BRANCH   6   7
HETATM    7  C   UNL     1      -7.563   5.718  66.902  1.00  0.00    -0.099 C  
BRANCH   7   8
HETATM    8  C   UNL     1      -8.230   4.903  68.002  1.00  0.00    -0.096 C  
BRANCH   8   9
HETATM    9  C   UNL     1      -8.973   5.792  68.994  1.00  0.00    -0.117 C  
BRANCH   9  10
HETATM   10  C   UNL     1     -10.383   5.282  69.292  1.00  0.00    -0.286 C  
BRANCH  10  11
HETATM   11  C   UNL     1     -11.407   6.371  69.633  1.00  0.00    -0.479 C  
BRANCH  11  12
HETATM   12  C   UNL     1     -10.820   7.497  70.492  1.00  0.00    -0.240 C  
BRANCH  12  13
HETATM   13  N   UNL     1     -11.777   8.001  71.590  1.00  0.00    -0.272 N  
HETATM   14  C   UNL     1     -11.972   9.508  71.483  1.00  0.00    -0.399 C  
HETATM   15  C   UNL     1     -13.130   7.307  71.486  1.00  0.00    -0.384 C  
BRANCH  13  16
HETATM   16  C   UNL     1     -11.121   7.643  72.967  1.00  0.00    -0.381 C  
BRANCH  16  17
HETATM   17  C   UNL     1     -10.431   6.302  73.018  1.00  0.00    -0.249 A  
HETATM   18  C   UNL     1      -9.048   6.201  72.794  1.00  0.00    -0.128 A  
HETATM   19  C   UNL     1      -8.449   4.953  72.633  1.00  0.00    -0.119 A  
HETATM   20  C   UNL     1      -9.217   3.794  72.722  1.00  0.00    -0.135 A  
HETATM   21  C   UNL     1     -10.574   3.878  73.019  1.00  0.00    -0.254 A  
HETATM   22  C   UNL     1     -11.178   5.125  73.183  1.00  0.00    -0.398 A  
ENDBRANCH  16  17
ENDBRANCH  13  16
ENDBRANCH  12  13
ENDBRANCH  11  12
ENDBRANCH  10  11
ENDBRANCH   9  10
ENDBRANCH   8   9
ENDBRANCH   7   8
ENDBRANCH   6   7
ENDBRANCH   5   6
ENDBRANCH   4   5
ENDBRANCH   3   4
ENDBRANCH   2   3
TORSDOF 13
ENDMDL
MODEL      254
REMARK 921   NORMALIZED FREE ENERGY PREDICTED BY IDOCK:   -3.17 KCAL/MOL
REMARK 922        TOTAL FREE ENERGY PREDICTED BY IDOCK:   -7.05 KCAL/MOL
REMARK 923 INTER-LIGAND FREE ENERGY PREDICTED BY IDOCK:   -5.73 KCAL/MOL
REMARK 924 INTRA-LIGAND FREE ENERGY PREDICTED BY IDOCK:   -1.32 KCAL/MOL
REMARK 927      BINDING AFFINITY PREDICTED BY RF-SCORE:    0.00 PKD
ROOT
HETATM    1  C   UNL     1      -9.800  15.049  65.426  1.00  0.00    -0.312 C  
HETATM    2  C   UNL     1     -10.633  16.319  65.476  1.00  0.00    -0.369 C  
ENDROOT
BRANCH   2   3
HETATM    3  C   UNL     1     -10.176  17.230  66.612  1.00  0.00    -0.319 C  
BRANCH   3   4
HETATM    4  C   UNL     1      -8.733  17.683  66.408  1.00  0.00    -0.263 C  
BRANCH   4   5
HETATM    5  C   UNL     1      -7.885  17.339  67.629  1.00  0.00    -0.192 C  
BRANCH   5   6
HETATM    6  C   UNL     1      -6.771  16.370  67.255  1.00  0.00    -0.221 C  
BRANCH   6   7
HETATM    7  C   UNL     1      -5.969  15.952  68.483  1.00  0.00    -0.102 C  
BRANCH   7   8
HETATM    8  C   UNL     1      -5.204  14.668  68.189  1.00  0.00    -0.119 C  
BRANCH   8   9
HETATM    9  C   UNL     1      -6.136  13.543  67.750  1.00  0.00    -0.148 C  
BRANCH   9  10
HETATM   10  C   UNL     1      -7.228  13.253  68.783  1.00  0.00    -0.088 C  
BRANCH  10  11
HETATM   11  C   UNL     1      -8.566  12.787  68.197  1.00  0.00    -0.185 C  
BRANCH  11  12
HETATM   12  C   UNL     1      -8.402  11.959  66.916  1.00  0.00    -0.169 C  
BRANCH  12  13
HETATM   13  N   UNL     1      -8.785  10.476  67.085  1.00  0.00    -0.130 N  
HETATM   14  C   UNL     1      -8.055   9.612  66.064  1.00  0.00    -0.112 C  
HETATM   15  C   UNL     1      -8.450   9.989  68.490  1.00  0.00    -0.115 C  
BRANCH  13  16
HETATM   16  C   UNL     1     -10.333  10.376  66.863  1.00  0.00    -0.240 C  
BRANCH  16  17
HETATM   17  C   UNL     1     -10.894  11.321  65.829  1.00  0.00    -0.257 A  
HETATM   18  C   UNL     1     -11.819  12.312  66.196  1.00  0.00    -0.398 A  
HETATM   19  C   UNL     1     -12.492  13.044  65.219  1.00  0.00    -0.555 A  
HETATM   20  C   UNL     1     -12.228  12.814  63.870  1.00  0.00    -0.543 A  
HETATM   21  C   UNL     1     -11.258  11.888  63.497  1.00  0.00    -0.501 A  
HETATM   22  C   UNL     1     -10.580  11.155  64.472  1.00  0.00    -0.397 A  
ENDBRANCH  16  17
ENDBRANCH  13  16
ENDBRANCH  12  13
ENDBRANCH  11  12
ENDBRANCH  10  11
ENDBRANCH   9  10
ENDBRANCH   8   9
ENDBRANCH   7   8
ENDBRANCH   6   7
ENDBRANCH   5   6
ENDBRANCH   4   5
ENDBRANCH   3   4
ENDBRANCH   2   3
TORSDOF 13
ENDMDL
MODEL      255
REMARK 921   NORMALIZED FREE ENERGY PREDICTED BY IDOCK:   -3.17 KCAL/MOL
REMARK 922        TOTAL FREE ENERGY PREDICTED BY IDOCK:   -7.05 KCAL/MOL
REMARK 923 INTER-LIGAND FREE ENERGY PREDICTED BY IDOCK:   -5.25 KCAL/MOL
REMARK 924 INTRA-LIGAND FREE ENERGY PREDICTED BY IDOCK:   -1.80 KCAL/MOL
REMARK 927      BINDING AFFINITY PREDICTED BY RF-SCORE:    0.00 PKD
ROOT
HETATM    1  C   UNL     1      -5.526   7.647  72.784  1.00  0.00    -0.036 C  
HETATM    2  C   UNL     1      -6.606   6.578  72.811  1.00  0.00    -0.064 C  
ENDROOT
BRANCH   2   3
HETATM    3  C   UNL     1      -7.508   6.744  74.031  1.00  0.00    -0.095 C  
BRANCH   3   4
HETATM    4  C   UNL     1      -8.239   8.083  73.998  1.00  0.00    -0.316 C  
BRANCH   4   5
HETATM    5  C   UNL     1      -9.258   8.110  72.862  1.00  0.00    -0.343 C  
BRANCH   5   6
HETATM    6  C   UNL     1     -10.536   7.390  73.269  1.00  0.00    -0.442 C  
BRANCH   6   7
HETATM    7  C   UNL     1     -10.966   6.387  72.204  1.00  0.00    -0.288 C  
BRANCH   7   8
HETATM    8  C   UNL     1      -9.868   6.238  71.159  1.00  0.00    -0.203 C  
BRANCH   8   9
HETATM    9  C   UNL     1     -10.297   5.327  70.013  1.00  0.00    -0.365 C  
BRANCH   9  10
HETATM   10  C   UNL     1     -10.221   6.024  68.654  1.00  0.00    -0.233 C  
BRANCH  10  11
HETATM   11  C   UNL     1      -9.025   6.967  68.476  1.00  0.00    -0.122 C  
BRANCH  11  12
HETATM   12  C   UNL     1      -8.959   7.591  67.077  1.00  0.00    -0.130 C  
BRANCH  12  13
HETATM   13  N   UNL     1      -9.211   9.112  67.065  1.00  0.00    -0.132 N  
HETATM   14  C   UNL     1      -8.399   9.800  68.156  1.00  0.00    -0.110 C  
HETATM   15  C   UNL     1      -8.849   9.709  65.711  1.00  0.00    -0.157 C  
BRANCH  13  16
HETATM   16  C   UNL     1     -10.742   9.321  67.326  1.00  0.00    -0.174 C  
BRANCH  16  17
HETATM   17  C   UNL     1     -11.078  10.113  68.565  1.00  0.00    -0.266 A  
HETATM   18  C   UNL     1     -11.149   9.481  69.818  1.00  0.00    -0.216 A  
HETATM   19  C   UNL     1     -11.660  10.161  70.922  1.00  0.00    -0.459 A  
HETATM   20  C   UNL     1     -12.079  11.484  70.794  1.00  0.00    -0.410 A  
HETATM   21  C   UNL     1     -11.943  12.144  69.576  1.00  0.00    -0.338 A  
HETATM   22  C   UNL     1     -11.430  11.468  68.469  1.00  0.00    -0.354 A  
ENDBRANCH  16  17
ENDBRANCH  13  16
ENDBRANCH  12  13
ENDBRANCH  11  12
ENDBRANCH  10  11
ENDBRANCH   9  10
ENDBRANCH   8   9
ENDBRANCH   7   8
ENDBRANCH   6   7
ENDBRANCH   5   6
ENDBRANCH   4   5
ENDBRANCH   3   4
ENDBRANCH   2   3
TORSDOF 13
ENDMDL
MODEL      256
REMARK 921   NORMALIZED FREE ENERGY PREDICTED BY IDOCK:   -3.17 KCAL/MOL
REMARK 922        TOTAL FREE ENERGY PREDICTED BY IDOCK:   -7.05 KCAL/MOL
REMARK 923 INTER-LIGAND FREE ENERGY PREDICTED BY IDOCK:   -6.16 KCAL/MOL
REMARK 924 INTRA-LIGAND FREE ENERGY PREDICTED BY IDOCK:   -0.89 KCAL/MOL
REMARK 927      BINDING AFFINITY PREDICTED BY RF-SCORE:    0.00 PKD
ROOT
HETATM    1  C   UNL     1      -7.379  11.064  66.927  1.00  0.00    -0.133 C  
HETATM    2  C   UNL     1      -7.177   9.610  67.319  1.00  0.00    -0.087 C  
ENDROOT
BRANCH   2   3
HETATM    3  C   UNL     1      -8.033   9.245  68.530  1.00  0.00    -0.101 C  
BRANCH   3   4
HETATM    4  C   UNL     1      -8.978  10.385  68.898  1.00  0.00    -0.170 C  
BRANCH   4   5
HETATM    5  C   UNL     1     -10.247   9.840  69.549  1.00  0.00    -0.238 C  
BRANCH   5   6
HETATM    6  C   UNL     1     -11.455  10.679  69.156  1.00  0.00    -0.349 C  
BRANCH   6   7
HETATM    7  C   UNL     1     -11.332  11.186  67.722  1.00  0.00    -0.364 C  
BRANCH   7   8
HETATM    8  C   UNL     1     -11.726  12.656  67.657  1.00  0.00    -0.420 C  
BRANCH   8   9
HETATM    9  C   UNL     1     -12.153  13.188  69.021  1.00  0.00    -0.240 C  
BRANCH   9  10
HETATM   10  C   UNL     1     -11.296  14.369  69.480  1.00  0.00    -0.318 C  
BRANCH  10  11
HETATM   11  C   UNL     1     -10.103  14.695  68.573  1.00  0.00    -0.238 C  
BRANCH  11  12
HETATM   12  C   UNL     1     -10.217  16.070  67.904  1.00  0.00    -0.258 C  
BRANCH  12  13
HETATM   13  N   UNL     1      -8.873  16.813  67.785  1.00  0.00    -0.206 N  
HETATM   14  C   UNL     1      -7.861  16.257  68.779  1.00  0.00    -0.216 C  
HETATM   15  C   UNL     1      -8.312  16.693  66.372  1.00  0.00    -0.318 C  
BRANCH  13  16
HETATM   16  C   UNL     1      -9.157  18.322  68.097  1.00  0.00    -0.298 C  
BRANCH  16  17
HETATM   17  C   UNL     1      -7.958  19.233  68.000  1.00  0.00    -0.339 A  
HETATM   18  C   UNL     1      -7.091  19.390  69.094  1.00  0.00    -0.384 A  
HETATM   19  C   UNL     1      -6.111  20.382  69.079  1.00  0.00    -0.376 A  
HETATM   20  C   UNL     1      -5.969  21.205  67.965  1.00  0.00    -0.393 A  
HETATM   21  C   UNL     1      -6.771  21.008  66.845  1.00  0.00    -0.388 A  
HETATM   22  C   UNL     1      -7.752  20.016  66.854  1.00  0.00    -0.327 A  
ENDBRANCH  16  17
ENDBRANCH  13  16
ENDBRANCH  12  13
ENDBRANCH  11  12
ENDBRANCH  10  11
ENDBRANCH   9  10
ENDBRANCH   8   9
ENDBRANCH   7   8
ENDBRANCH   6   7
ENDBRANCH   5   6
ENDBRANCH   4   5
ENDBRANCH   3   4
ENDBRANCH   2   3
TORSDOF 13
ENDMDL
MODEL      257
REMARK 921   NORMALIZED FREE ENERGY PREDICTED BY IDOCK:   -3.17 KCAL/MOL
REMARK 922        TOTAL FREE ENERGY PREDICTED BY IDOCK:   -7.04 KCAL/MOL
REMARK 923 INTER-LIGAND FREE ENERGY PREDICTED BY IDOCK:   -5.10 KCAL/MOL
REMARK 924 INTRA-LIGAND FREE ENERGY PREDICTED BY IDOCK:   -1.95 KCAL/MOL
REMARK 927      BINDING AFFINITY PREDICTED BY RF-SCORE:    0.00 PKD
ROOT
HETATM    1  C   UNL     1      -9.898   9.782  67.858  1.00  0.00    -0.176 C  
HETATM    2  C   UNL     1     -10.629   8.576  67.291  1.00  0.00    -0.315 C  
ENDROOT
BRANCH   2   3
HETATM    3  C   UNL     1      -9.963   7.275  67.732  1.00  0.00    -0.205 C  
BRANCH   3   4
HETATM    4  C   UNL     1      -8.615   7.544  68.394  1.00  0.00    -0.124 C  
BRANCH   4   5
HETATM    5  C   UNL     1      -7.670   6.364  68.186  1.00  0.00    -0.104 C  
BRANCH   5   6
HETATM    6  C   UNL     1      -8.362   5.251  67.410  1.00  0.00    -0.106 C  
BRANCH   6   7
HETATM    7  C   UNL     1      -8.247   3.916  68.140  1.00  0.00    -0.092 C  
BRANCH   7   8
HETATM    8  C   UNL     1      -9.524   3.643  68.924  1.00  0.00    -0.218 C  
BRANCH   8   9
HETATM    9  C   UNL     1      -9.227   3.183  70.347  1.00  0.00    -0.215 C  
BRANCH   9  10
HETATM   10  C   UNL     1      -7.834   3.605  70.818  1.00  0.00    -0.050 C  
BRANCH  10  11
HETATM   11  C   UNL     1      -7.798   4.873  71.678  1.00  0.00    -0.106 C  
BRANCH  11  12
HETATM   12  C   UNL     1      -9.044   5.036  72.558  1.00  0.00    -0.132 C  
BRANCH  12  13
HETATM   13  N   UNL     1      -9.578   6.481  72.612  1.00  0.00    -0.151 N  
HETATM   14  C   UNL     1     -10.275   6.747  73.940  1.00  0.00    -0.367 C  
HETATM   15  C   UNL     1      -8.445   7.482  72.425  1.00  0.00    -0.108 C  
BRANCH  13  16
HETATM   16  C   UNL     1     -10.598   6.634  71.432  1.00  0.00    -0.224 C  
BRANCH  16  17
HETATM   17  C   UNL     1     -11.505   7.836  71.522  1.00  0.00    -0.298 A  
HETATM   18  C   UNL     1     -12.856   7.686  71.876  1.00  0.00    -0.308 A  
HETATM   19  C   UNL     1     -13.739   8.758  71.757  1.00  0.00    -0.461 A  
HETATM   20  C   UNL     1     -13.278   9.995  71.312  1.00  0.00    -0.469 A  
HETATM   21  C   UNL     1     -11.926  10.176  71.032  1.00  0.00    -0.474 A  
HETATM   22  C   UNL     1     -11.039   9.107  71.152  1.00  0.00    -0.393 A  
ENDBRANCH  16  17
ENDBRANCH  13  16
ENDBRANCH  12  13
ENDBRANCH  11  12
ENDBRANCH  10  11
ENDBRANCH   9  10
ENDBRANCH   8   9
ENDBRANCH   7   8
ENDBRANCH   6   7
ENDBRANCH   5   6
ENDBRANCH   4   5
ENDBRANCH   3   4
ENDBRANCH   2   3
TORSDOF 13
ENDMDL
MODEL      258
REMARK 921   NORMALIZED FREE ENERGY PREDICTED BY IDOCK:   -3.16 KCAL/MOL
REMARK 922        TOTAL FREE ENERGY PREDICTED BY IDOCK:   -7.03 KCAL/MOL
REMARK 923 INTER-LIGAND FREE ENERGY PREDICTED BY IDOCK:   -5.05 KCAL/MOL
REMARK 924 INTRA-LIGAND FREE ENERGY PREDICTED BY IDOCK:   -1.97 KCAL/MOL
REMARK 927      BINDING AFFINITY PREDICTED BY RF-SCORE:    0.00 PKD
ROOT
HETATM    1  C   UNL     1     -10.536  19.713  65.974  1.00  0.00    -0.584 C  
HETATM    2  C   UNL     1      -9.238  19.187  66.562  1.00  0.00    -0.374 C  
ENDROOT
BRANCH   2   3
HETATM    3  C   UNL     1      -9.192  17.662  66.512  1.00  0.00    -0.286 C  
BRANCH   3   4
HETATM    4  C   UNL     1      -7.770  17.162  66.272  1.00  0.00    -0.350 C  
BRANCH   4   5
HETATM    5  C   UNL     1      -7.427  16.035  67.241  1.00  0.00    -0.236 C  
BRANCH   5   6
HETATM    6  C   UNL     1      -7.984  16.329  68.628  1.00  0.00    -0.215 C  
BRANCH   6   7
HETATM    7  C   UNL     1      -8.635  15.090  69.234  1.00  0.00    -0.167 C  
BRANCH   7   8
HETATM    8  C   UNL     1      -9.973  14.824  68.557  1.00  0.00    -0.228 C  
BRANCH   8   9
HETATM    9  C   UNL     1     -10.212  13.333  68.342  1.00  0.00    -0.249 C  
BRANCH   9  10
HETATM   10  C   UNL     1     -11.159  13.057  67.173  1.00  0.00    -0.304 C  
BRANCH  10  11
HETATM   11  C   UNL     1     -11.183  11.603  66.688  1.00  0.00    -0.362 C  
BRANCH  11  12
HETATM   12  C   UNL     1     -10.473  10.640  67.648  1.00  0.00    -0.227 C  
BRANCH  12  13
HETATM   13  N   UNL     1      -9.838   9.424  66.947  1.00  0.00    -0.186 N  
HETATM   14  C   UNL     1     -10.646   8.162  67.222  1.00  0.00    -0.273 C  
HETATM   15  C   UNL     1      -9.753   9.652  65.442  1.00  0.00    -0.295 C  
BRANCH  13  16
HETATM   16  C   UNL     1      -8.390   9.268  67.525  1.00  0.00    -0.119 C  
BRANCH  16  17
HETATM   17  C   UNL     1      -7.695  10.563  67.868  1.00  0.00    -0.092 A  
HETATM   18  C   UNL     1      -7.169  11.381  66.855  1.00  0.00    -0.144 A  
HETATM   19  C   UNL     1      -6.350  12.463  67.176  1.00  0.00    -0.093 A  
HETATM   20  C   UNL     1      -6.072  12.754  68.510  1.00  0.00    -0.067 A  
HETATM   21  C   UNL     1      -6.650  11.997  69.525  1.00  0.00    -0.079 A  
HETATM   22  C   UNL     1      -7.471  10.915  69.208  1.00  0.00    -0.124 A  
ENDBRANCH  16  17
ENDBRANCH  13  16
ENDBRANCH  12  13
ENDBRANCH  11  12
ENDBRANCH  10  11
ENDBRANCH   9  10
ENDBRANCH   8   9
ENDBRANCH   7   8
ENDBRANCH   6   7
ENDBRANCH   5   6
ENDBRANCH   4   5
ENDBRANCH   3   4
ENDBRANCH   2   3
TORSDOF 13
ENDMDL
MODEL      259
REMARK 921   NORMALIZED FREE ENERGY PREDICTED BY IDOCK:   -3.15 KCAL/MOL
REMARK 922        TOTAL FREE ENERGY PREDICTED BY IDOCK:   -7.02 KCAL/MOL
REMARK 923 INTER-LIGAND FREE ENERGY PREDICTED BY IDOCK:   -6.12 KCAL/MOL
REMARK 924 INTRA-LIGAND FREE ENERGY PREDICTED BY IDOCK:   -0.90 KCAL/MOL
REMARK 927      BINDING AFFINITY PREDICTED BY RF-SCORE:    0.00 PKD
ROOT
HETATM    1  C   UNL     1     -12.233  14.957  72.372  1.00  0.00    -0.411 C  
HETATM    2  C   UNL     1     -11.855  15.801  71.166  1.00  0.00    -0.471 C  
ENDROOT
BRANCH   2   3
HETATM    3  C   UNL     1     -11.582  14.923  69.947  1.00  0.00    -0.328 C  
BRANCH   3   4
HETATM    4  C   UNL     1     -11.762  15.709  68.652  1.00  0.00    -0.364 C  
BRANCH   4   5
HETATM    5  C   UNL     1     -10.560  15.510  67.733  1.00  0.00    -0.281 C  
BRANCH   5   6
HETATM    6  C   UNL     1      -9.749  14.295  68.162  1.00  0.00    -0.226 C  
BRANCH   6   7
HETATM    7  C   UNL     1      -9.660  13.267  67.038  1.00  0.00    -0.243 C  
BRANCH   7   8
HETATM    8  C   UNL     1     -10.966  12.489  66.943  1.00  0.00    -0.296 C  
BRANCH   8   9
HETATM    9  C   UNL     1     -10.723  10.989  66.814  1.00  0.00    -0.319 C  
BRANCH   9  10
HETATM   10  C   UNL     1     -10.997  10.240  68.119  1.00  0.00    -0.328 C  
BRANCH  10  11
HETATM   11  C   UNL     1     -11.708  11.062  69.201  1.00  0.00    -0.403 C  
BRANCH  11  12
HETATM   12  C   UNL     1     -11.544  10.471  70.607  1.00  0.00    -0.352 C  
BRANCH  12  13
HETATM   13  N   UNL     1     -12.873  10.317  71.372  1.00  0.00    -0.404 N  
HETATM   14  C   UNL     1     -13.340  11.662  71.915  1.00  0.00    -0.298 C  
HETATM   15  C   UNL     1     -13.952   9.735  70.467  1.00  0.00     0.738 C  
BRANCH  13  16
HETATM   16  C   UNL     1     -12.605   9.326  72.555  1.00  0.00    -0.196 C  
BRANCH  16  17
HETATM   17  C   UNL     1     -11.691   8.171  72.229  1.00  0.00    -0.439 A  
HETATM   18  C   UNL     1     -10.345   8.190  72.632  1.00  0.00    -0.398 A  
HETATM   19  C   UNL     1      -9.453   7.232  72.155  1.00  0.00    -0.157 A  
HETATM   20  C   UNL     1      -9.900   6.230  71.296  1.00  0.00    -0.197 A  
HETATM   21  C   UNL     1     -11.246   6.156  70.950  1.00  0.00    -0.365 A  
HETATM   22  C   UNL     1     -12.143   7.112  71.427  1.00  0.00    -0.381 A  
ENDBRANCH  16  17
ENDBRANCH  13  16
ENDBRANCH  12  13
ENDBRANCH  11  12
ENDBRANCH  10  11
ENDBRANCH   9  10
ENDBRANCH   8   9
ENDBRANCH   7   8
ENDBRANCH   6   7
ENDBRANCH   5   6
ENDBRANCH   4   5
ENDBRANCH   3   4
ENDBRANCH   2   3
TORSDOF 13
ENDMDL
MODEL      260
REMARK 921   NORMALIZED FREE ENERGY PREDICTED BY IDOCK:   -3.15 KCAL/MOL
REMARK 922        TOTAL FREE ENERGY PREDICTED BY IDOCK:   -7.01 KCAL/MOL
REMARK 923 INTER-LIGAND FREE ENERGY PREDICTED BY IDOCK:   -5.68 KCAL/MOL
REMARK 924 INTRA-LIGAND FREE ENERGY PREDICTED BY IDOCK:   -1.33 KCAL/MOL
REMARK 927      BINDING AFFINITY PREDICTED BY RF-SCORE:    0.00 PKD
ROOT
HETATM    1  C   UNL     1      -6.258  10.728  66.311  1.00  0.00    -0.130 C  
HETATM    2  C   UNL     1      -7.083  11.070  67.540  1.00  0.00    -0.091 C  
ENDROOT
BRANCH   2   3
HETATM    3  C   UNL     1      -8.550  11.282  67.173  1.00  0.00    -0.147 C  
BRANCH   3   4
HETATM    4  C   UNL     1      -9.267  12.114  68.232  1.00  0.00    -0.192 C  
BRANCH   4   5
HETATM    5  C   UNL     1     -10.765  12.171  67.946  1.00  0.00    -0.237 C  
BRANCH   5   6
HETATM    6  C   UNL     1     -11.467  10.942  68.509  1.00  0.00    -0.380 C  
BRANCH   6   7
HETATM    7  C   UNL     1     -11.417  10.929  70.033  1.00  0.00    -0.411 C  
BRANCH   7   8
HETATM    8  C   UNL     1     -12.824  10.771  70.596  1.00  0.00    -0.377 C  
BRANCH   8   9
HETATM    9  C   UNL     1     -12.802  10.337  72.058  1.00  0.00    -0.457 C  
BRANCH   9  10
HETATM   10  C   UNL     1     -13.612   9.063  72.301  1.00  0.00    -0.540 C  
BRANCH  10  11
HETATM   11  C   UNL     1     -13.068   7.808  71.609  1.00  0.00    -0.378 C  
BRANCH  11  12
HETATM   12  C   UNL     1     -11.792   7.267  72.266  1.00  0.00    -0.248 C  
BRANCH  12  13
HETATM   13  N   UNL     1     -10.561   7.288  71.338  1.00  0.00    -0.212 N  
HETATM   14  C   UNL     1      -9.509   8.258  71.861  1.00  0.00    -0.220 C  
HETATM   15  C   UNL     1      -9.952   5.896  71.220  1.00  0.00    -0.187 C  
BRANCH  13  16
HETATM   16  C   UNL     1     -11.062   7.750  69.927  1.00  0.00    -0.136 C  
BRANCH  16  17
HETATM   17  C   UNL     1     -10.326   7.146  68.757  1.00  0.00    -0.200 A  
HETATM   18  C   UNL     1      -9.109   7.695  68.319  1.00  0.00    -0.136 A  
HETATM   19  C   UNL     1      -8.538   7.274  67.119  1.00  0.00    -0.121 A  
HETATM   20  C   UNL     1      -9.158   6.284  66.361  1.00  0.00    -0.164 A  
HETATM   21  C   UNL     1     -10.323   5.678  66.823  1.00  0.00    -0.316 A  
HETATM   22  C   UNL     1     -10.898   6.095  68.024  1.00  0.00    -0.398 A  
ENDBRANCH  16  17
ENDBRANCH  13  16
ENDBRANCH  12  13
ENDBRANCH  11  12
ENDBRANCH  10  11
ENDBRANCH   9  10
ENDBRANCH   8   9
ENDBRANCH   7   8
ENDBRANCH   6   7
ENDBRANCH   5   6
ENDBRANCH   4   5
ENDBRANCH   3   4
ENDBRANCH   2   3
TORSDOF 13
ENDMDL
MODEL      261
REMARK 921   NORMALIZED FREE ENERGY PREDICTED BY IDOCK:   -3.14 KCAL/MOL
REMARK 922        TOTAL FREE ENERGY PREDICTED BY IDOCK:   -7.01 KCAL/MOL
REMARK 923 INTER-LIGAND FREE ENERGY PREDICTED BY IDOCK:   -5.77 KCAL/MOL
REMARK 924 INTRA-LIGAND FREE ENERGY PREDICTED BY IDOCK:   -1.24 KCAL/MOL
REMARK 927      BINDING AFFINITY PREDICTED BY RF-SCORE:    0.00 PKD
ROOT
HETATM    1  C   UNL     1      -9.570  13.582  66.623  1.00  0.00    -0.282 C  
HETATM    2  C   UNL     1     -10.407  14.568  67.420  1.00  0.00    -0.252 C  
ENDROOT
BRANCH   2   3
HETATM    3  C   UNL     1     -11.799  14.007  67.697  1.00  0.00    -0.430 C  
BRANCH   3   4
HETATM    4  C   UNL     1     -11.719  12.587  68.250  1.00  0.00    -0.390 C  
BRANCH   4   5
HETATM    5  C   UNL     1     -11.959  12.585  69.757  1.00  0.00    -0.359 C  
BRANCH   5   6
HETATM    6  C   UNL     1     -12.496  11.235  70.214  1.00  0.00    -0.330 C  
BRANCH   6   7
HETATM    7  C   UNL     1     -12.974  11.293  71.662  1.00  0.00    -0.537 C  
BRANCH   7   8
HETATM    8  C   UNL     1     -13.278   9.888  72.164  1.00  0.00    -0.511 C  
BRANCH   8   9
HETATM    9  C   UNL     1     -13.740   8.972  71.035  1.00  0.00    -0.030 C  
BRANCH   9  10
HETATM   10  C   UNL     1     -13.793   7.504  71.460  1.00  0.00    -0.487 C  
BRANCH  10  11
HETATM   11  C   UNL     1     -12.429   6.864  71.749  1.00  0.00    -0.397 C  
BRANCH  11  12
HETATM   12  C   UNL     1     -11.718   6.373  70.482  1.00  0.00    -0.317 C  
BRANCH  12  13
HETATM   13  N   UNL     1     -10.317   6.985  70.283  1.00  0.00    -0.200 N  
HETATM   14  C   UNL     1      -9.965   7.911  71.441  1.00  0.00    -0.172 C  
HETATM   15  C   UNL     1      -9.261   5.892  70.172  1.00  0.00    -0.153 C  
BRANCH  13  16
HETATM   16  C   UNL     1     -10.359   7.796  68.943  1.00  0.00    -0.213 C  
BRANCH  16  17
HETATM   17  C   UNL     1      -9.197   8.732  68.724  1.00  0.00    -0.141 A  
HETATM   18  C   UNL     1      -7.919   8.227  68.429  1.00  0.00    -0.119 A  
HETATM   19  C   UNL     1      -6.810   9.071  68.434  1.00  0.00    -0.064 A  
HETATM   20  C   UNL     1      -6.967  10.428  68.705  1.00  0.00    -0.066 A  
HETATM   21  C   UNL     1      -8.237  10.954  68.923  1.00  0.00    -0.141 A  
HETATM   22  C   UNL     1      -9.351  10.114  68.918  1.00  0.00    -0.179 A  
ENDBRANCH  16  17
ENDBRANCH  13  16
ENDBRANCH  12  13
ENDBRANCH  11  12
ENDBRANCH  10  11
ENDBRANCH   9  10
ENDBRANCH   8   9
ENDBRANCH   7   8
ENDBRANCH   6   7
ENDBRANCH   5   6
ENDBRANCH   4   5
ENDBRANCH   3   4
ENDBRANCH   2   3
TORSDOF 13
ENDMDL
MODEL      262
REMARK 921   NORMALIZED FREE ENERGY PREDICTED BY IDOCK:   -3.13 KCAL/MOL
REMARK 922        TOTAL FREE ENERGY PREDICTED BY IDOCK:   -6.98 KCAL/MOL
REMARK 923 INTER-LIGAND FREE ENERGY PREDICTED BY IDOCK:   -6.38 KCAL/MOL
REMARK 924 INTRA-LIGAND FREE ENERGY PREDICTED BY IDOCK:   -0.60 KCAL/MOL
REMARK 927      BINDING AFFINITY PREDICTED BY RF-SCORE:    0.00 PKD
ROOT
HETATM    1  C   UNL     1     -12.334  15.490  73.970  1.00  0.00    -0.791 C  
HETATM    2  C   UNL     1     -12.243  16.019  72.549  1.00  0.00    -0.612 C  
ENDROOT
BRANCH   2   3
HETATM    3  C   UNL     1     -13.392  15.492  71.694  1.00  0.00    -0.585 C  
BRANCH   3   4
HETATM    4  C   UNL     1     -12.928  14.354  70.789  1.00  0.00    -0.388 C  
BRANCH   4   5
HETATM    5  C   UNL     1     -12.089  14.895  69.635  1.00  0.00    -0.334 C  
BRANCH   5   6
HETATM    6  C   UNL     1     -10.688  14.297  69.662  1.00  0.00    -0.034 C  
BRANCH   6   7
HETATM    7  C   UNL     1     -10.462  13.371  68.472  1.00  0.00    -0.260 C  
BRANCH   7   8
HETATM    8  C   UNL     1     -11.658  12.442  68.304  1.00  0.00    -0.384 C  
BRANCH   8   9
HETATM    9  C   UNL     1     -11.419  11.088  68.964  1.00  0.00    -0.368 C  
BRANCH   9  10
HETATM   10  C   UNL     1     -12.340  10.852  70.162  1.00  0.00    -0.399 C  
BRANCH  10  11
HETATM   11  C   UNL     1     -11.774   9.921  71.241  1.00  0.00    -0.472 C  
BRANCH  11  12
HETATM   12  C   UNL     1     -10.329   9.490  70.962  1.00  0.00    -0.283 C  
BRANCH  12  13
HETATM   13  N   UNL     1     -10.042   8.019  71.321  1.00  0.00    -0.183 N  
HETATM   14  C   UNL     1     -11.290   7.167  71.134  1.00  0.00    -0.275 C  
HETATM   15  C   UNL     1      -8.915   7.463  70.458  1.00  0.00    -0.156 C  
BRANCH  13  16
HETATM   16  C   UNL     1      -9.597   7.995  72.824  1.00  0.00    -0.277 C  
BRANCH  16  17
HETATM   17  C   UNL     1      -8.569   6.947  73.170  1.00  0.00    -0.135 A  
HETATM   18  C   UNL     1      -8.966   5.683  73.637  1.00  0.00    -0.124 A  
HETATM   19  C   UNL     1      -8.024   4.794  74.153  1.00  0.00    -0.101 A  
HETATM   20  C   UNL     1      -6.676   5.145  74.181  1.00  0.00    -0.075 A  
HETATM   21  C   UNL     1      -6.261   6.364  73.650  1.00  0.00    -0.064 A  
HETATM   22  C   UNL     1      -7.200   7.256  73.132  1.00  0.00    -0.078 A  
ENDBRANCH  16  17
ENDBRANCH  13  16
ENDBRANCH  12  13
ENDBRANCH  11  12
ENDBRANCH  10  11
ENDBRANCH   9  10
ENDBRANCH   8   9
ENDBRANCH   7   8
ENDBRANCH   6   7
ENDBRANCH   5   6
ENDBRANCH   4   5
ENDBRANCH   3   4
ENDBRANCH   2   3
TORSDOF 13
ENDMDL
MODEL      263
REMARK 921   NORMALIZED FREE ENERGY PREDICTED BY IDOCK:   -3.12 KCAL/MOL
REMARK 922        TOTAL FREE ENERGY PREDICTED BY IDOCK:   -6.97 KCAL/MOL
REMARK 923 INTER-LIGAND FREE ENERGY PREDICTED BY IDOCK:   -5.99 KCAL/MOL
REMARK 924 INTRA-LIGAND FREE ENERGY PREDICTED BY IDOCK:   -0.98 KCAL/MOL
REMARK 927      BINDING AFFINITY PREDICTED BY RF-SCORE:    0.00 PKD
ROOT
HETATM    1  C   UNL     1      -7.542  11.713  68.580  1.00  0.00    -0.127 C  
HETATM    2  C   UNL     1      -8.101  10.301  68.648  1.00  0.00    -0.114 C  
ENDROOT
BRANCH   2   3
HETATM    3  C   UNL     1      -8.497   9.802  67.261  1.00  0.00    -0.125 C  
BRANCH   3   4
HETATM    4  C   UNL     1      -9.979  10.047  66.991  1.00  0.00    -0.257 C  
BRANCH   4   5
HETATM    5  C   UNL     1     -10.769  10.052  68.296  1.00  0.00    -0.280 C  
BRANCH   5   6
HETATM    6  C   UNL     1     -11.705  11.252  68.354  1.00  0.00    -0.365 C  
BRANCH   6   7
HETATM    7  C   UNL     1     -11.019  12.511  67.833  1.00  0.00    -0.262 C  
BRANCH   7   8
HETATM    8  C   UNL     1     -12.017  13.361  67.057  1.00  0.00    -0.429 C  
BRANCH   8   9
HETATM    9  C   UNL     1     -11.318  14.403  66.190  1.00  0.00    -0.350 C  
BRANCH   9  10
HETATM   10  C   UNL     1      -9.800  14.220  66.168  1.00  0.00    -0.335 C  
BRANCH  10  11
HETATM   11  C   UNL     1      -9.013  15.240  66.999  1.00  0.00    -0.254 C  
BRANCH  11  12
HETATM   12  C   UNL     1      -9.118  16.668  66.451  1.00  0.00    -0.292 C  
BRANCH  12  13
HETATM   13  N   UNL     1      -9.505  17.712  67.516  1.00  0.00    -0.254 N  
HETATM   14  C   UNL     1     -10.477  18.734  66.939  1.00  0.00    -0.414 C  
HETATM   15  C   UNL     1     -10.141  17.038  68.727  1.00  0.00    -0.307 C  
BRANCH  13  16
HETATM   16  C   UNL     1      -8.182  18.424  67.961  1.00  0.00    -0.271 C  
BRANCH  16  17
HETATM   17  C   UNL     1      -7.248  18.799  66.837  1.00  0.00    -0.223 A  
HETATM   18  C   UNL     1      -7.508  19.927  66.040  1.00  0.00    -0.338 A  
HETATM   19  C   UNL     1      -6.770  20.154  64.879  1.00  0.00    -0.275 A  
HETATM   20  C   UNL     1      -5.750  19.277  64.519  1.00  0.00    -0.310 A  
HETATM   21  C   UNL     1      -5.433  18.199  65.341  1.00  0.00    -0.188 A  
HETATM   22  C   UNL     1      -6.168  17.969  66.504  1.00  0.00    -0.219 A  
ENDBRANCH  16  17
ENDBRANCH  13  16
ENDBRANCH  12  13
ENDBRANCH  11  12
ENDBRANCH  10  11
ENDBRANCH   9  10
ENDBRANCH   8   9
ENDBRANCH   7   8
ENDBRANCH   6   7
ENDBRANCH   5   6
ENDBRANCH   4   5
ENDBRANCH   3   4
ENDBRANCH   2   3
TORSDOF 13
ENDMDL
MODEL      264
REMARK 921   NORMALIZED FREE ENERGY PREDICTED BY IDOCK:   -3.11 KCAL/MOL
REMARK 922        TOTAL FREE ENERGY PREDICTED BY IDOCK:   -6.95 KCAL/MOL
REMARK 923 INTER-LIGAND FREE ENERGY PREDICTED BY IDOCK:   -4.79 KCAL/MOL
REMARK 924 INTRA-LIGAND FREE ENERGY PREDICTED BY IDOCK:   -2.15 KCAL/MOL
REMARK 927      BINDING AFFINITY PREDICTED BY RF-SCORE:    0.00 PKD
ROOT
HETATM    1  C   UNL     1     -12.727  12.037  71.276  1.00  0.00    -0.382 C  
HETATM    2  C   UNL     1     -12.351  10.623  70.868  1.00  0.00    -0.502 C  
ENDROOT
BRANCH   2   3
HETATM    3  C   UNL     1     -12.610   9.638  72.006  1.00  0.00    -0.443 C  
BRANCH   3   4
HETATM    4  C   UNL     1     -12.704   8.207  71.485  1.00  0.00    -0.327 C  
BRANCH   4   5
HETATM    5  C   UNL     1     -11.614   7.338  72.105  1.00  0.00    -0.324 C  
BRANCH   5   6
HETATM    6  C   UNL     1     -10.983   8.038  73.302  1.00  0.00     0.013 C  
BRANCH   6   7
HETATM    7  C   UNL     1      -9.469   7.856  73.311  1.00  0.00    -0.350 C  
BRANCH   7   8
HETATM    8  C   UNL     1      -9.062   6.843  72.248  1.00  0.00    -0.143 C  
BRANCH   8   9
HETATM    9  C   UNL     1      -8.329   7.505  71.086  1.00  0.00    -0.109 C  
BRANCH   9  10
HETATM   10  C   UNL     1      -8.700   8.981  70.928  1.00  0.00    -0.280 C  
BRANCH  10  11
HETATM   11  C   UNL     1      -8.354   9.592  69.565  1.00  0.00    -0.154 C  
BRANCH  11  12
HETATM   12  C   UNL     1      -9.475   9.425  68.532  1.00  0.00    -0.145 C  
BRANCH  12  13
HETATM   13  N   UNL     1      -8.964   9.190  67.097  1.00  0.00    -0.122 N  
HETATM   14  C   UNL     1      -9.391  10.330  66.181  1.00  0.00    -0.170 C  
HETATM   15  C   UNL     1      -7.445   9.068  67.078  1.00  0.00    -0.087 C  
BRANCH  13  16
HETATM   16  C   UNL     1      -9.594   7.842  66.603  1.00  0.00    -0.226 C  
BRANCH  16  17
HETATM   17  C   UNL     1      -9.501   6.697  67.581  1.00  0.00    -0.129 A  
HETATM   18  C   UNL     1      -8.389   5.839  67.572  1.00  0.00    -0.104 A  
HETATM   19  C   UNL     1      -8.399   4.666  68.326  1.00  0.00    -0.090 A  
HETATM   20  C   UNL     1      -9.503   4.353  69.115  1.00  0.00    -0.240 A  
HETATM   21  C   UNL     1     -10.578   5.233  69.191  1.00  0.00    -0.167 A  
HETATM   22  C   UNL     1     -10.573   6.409  68.441  1.00  0.00    -0.311 A  
ENDBRANCH  16  17
ENDBRANCH  13  16
ENDBRANCH  12  13
ENDBRANCH  11  12
ENDBRANCH  10  11
ENDBRANCH   9  10
ENDBRANCH   8   9
ENDBRANCH   7   8
ENDBRANCH   6   7
ENDBRANCH   5   6
ENDBRANCH   4   5
ENDBRANCH   3   4
ENDBRANCH   2   3
TORSDOF 13
ENDMDL
MODEL      265
REMARK 921   NORMALIZED FREE ENERGY PREDICTED BY IDOCK:   -3.11 KCAL/MOL
REMARK 922        TOTAL FREE ENERGY PREDICTED BY IDOCK:   -6.94 KCAL/MOL
REMARK 923 INTER-LIGAND FREE ENERGY PREDICTED BY IDOCK:   -4.87 KCAL/MOL
REMARK 924 INTRA-LIGAND FREE ENERGY PREDICTED BY IDOCK:   -2.07 KCAL/MOL
REMARK 927      BINDING AFFINITY PREDICTED BY RF-SCORE:    0.00 PKD
ROOT
HETATM    1  C   UNL     1     -10.515  10.951  67.331  1.00  0.00    -0.263 C  
HETATM    2  C   UNL     1      -9.638  10.847  68.568  1.00  0.00    -0.187 C  
ENDROOT
BRANCH   2   3
HETATM    3  C   UNL     1     -10.386  10.168  69.712  1.00  0.00    -0.297 C  
BRANCH   3   4
HETATM    4  C   UNL     1     -11.858  10.567  69.721  1.00  0.00    -0.329 C  
BRANCH   4   5
HETATM    5  C   UNL     1     -12.585   9.913  70.893  1.00  0.00    -0.392 C  
BRANCH   5   6
HETATM    6  C   UNL     1     -11.592   9.455  71.954  1.00  0.00    -0.348 C  
BRANCH   6   7
HETATM    7  C   UNL     1     -11.842   8.005  72.353  1.00  0.00    -0.429 C  
BRANCH   7   8
HETATM    8  C   UNL     1     -12.519   7.262  71.209  1.00  0.00    -0.402 C  
BRANCH   8   9
HETATM    9  C   UNL     1     -11.531   6.391  70.438  1.00  0.00    -0.458 C  
BRANCH   9  10
HETATM   10  C   UNL     1     -10.101   6.526  70.963  1.00  0.00    -0.208 C  
BRANCH  10  11
HETATM   11  C   UNL     1      -9.033   6.743  69.884  1.00  0.00    -0.144 C  
BRANCH  11  12
HETATM   12  C   UNL     1      -9.617   6.804  68.468  1.00  0.00    -0.130 C  
BRANCH  12  13
HETATM   13  N   UNL     1      -9.187   5.627  67.570  1.00  0.00    -0.110 N  
HETATM   14  C   UNL     1      -8.896   4.389  68.409  1.00  0.00    -0.105 C  
HETATM   15  C   UNL     1     -10.271   5.303  66.549  1.00  0.00    -0.253 C  
BRANCH  13  16
HETATM   16  C   UNL     1      -7.890   6.080  66.816  1.00  0.00    -0.101 C  
BRANCH  16  17
HETATM   17  C   UNL     1      -7.856   7.535  66.418  1.00  0.00    -0.098 A  
HETATM   18  C   UNL     1      -8.636   8.001  65.347  1.00  0.00    -0.138 A  
HETATM   19  C   UNL     1      -8.450   9.289  64.848  1.00  0.00    -0.182 A  
HETATM   20  C   UNL     1      -7.505  10.132  65.428  1.00  0.00    -0.144 A  
HETATM   21  C   UNL     1      -6.780   9.708  66.538  1.00  0.00    -0.079 A  
HETATM   22  C   UNL     1      -6.964   8.421  67.042  1.00  0.00    -0.074 A  
ENDBRANCH  16  17
ENDBRANCH  13  16
ENDBRANCH  12  13
ENDBRANCH  11  12
ENDBRANCH  10  11
ENDBRANCH   9  10
ENDBRANCH   8   9
ENDBRANCH   7   8
ENDBRANCH   6   7
ENDBRANCH   5   6
ENDBRANCH   4   5
ENDBRANCH   3   4
ENDBRANCH   2   3
TORSDOF 13
ENDMDL
MODEL      266
REMARK 921   NORMALIZED FREE ENERGY PREDICTED BY IDOCK:   -3.10 KCAL/MOL
REMARK 922        TOTAL FREE ENERGY PREDICTED BY IDOCK:   -6.92 KCAL/MOL
REMARK 923 INTER-LIGAND FREE ENERGY PREDICTED BY IDOCK:   -6.29 KCAL/MOL
REMARK 924 INTRA-LIGAND FREE ENERGY PREDICTED BY IDOCK:   -0.63 KCAL/MOL
REMARK 927      BINDING AFFINITY PREDICTED BY RF-SCORE:    0.00 PKD
ROOT
HETATM    1  C   UNL     1     -10.455  13.766  64.912  1.00  0.00    -0.437 C  
HETATM    2  C   UNL     1     -11.578  13.369  65.856  1.00  0.00    -0.370 C  
ENDROOT
BRANCH   2   3
HETATM    3  C   UNL     1     -11.887  14.492  66.842  1.00  0.00    -0.399 C  
BRANCH   3   4
HETATM    4  C   UNL     1     -11.793  14.000  68.283  1.00  0.00    -0.406 C  
BRANCH   4   5
HETATM    5  C   UNL     1     -11.816  12.475  68.332  1.00  0.00    -0.353 C  
BRANCH   5   6
HETATM    6  C   UNL     1     -11.863  11.984  69.773  1.00  0.00    -0.401 C  
BRANCH   6   7
HETATM    7  C   UNL     1     -12.619  10.664  69.881  1.00  0.00    -0.168 C  
BRANCH   7   8
HETATM    8  C   UNL     1     -13.130  10.474  71.303  1.00  0.00    -0.478 C  
BRANCH   8   9
HETATM    9  C   UNL     1     -13.480   9.017  71.589  1.00  0.00    -0.442 C  
BRANCH   9  10
HETATM   10  C   UNL     1     -12.280   8.084  71.418  1.00  0.00    -0.335 C  
BRANCH  10  11
HETATM   11  C   UNL     1     -11.059   8.436  72.275  1.00  0.00    -0.438 C  
BRANCH  11  12
HETATM   12  C   UNL     1     -10.837   7.454  73.432  1.00  0.00    -0.313 C  
BRANCH  12  13
HETATM   13  N   UNL     1      -9.656   6.489  73.205  1.00  0.00    -0.150 N  
HETATM   14  C   UNL     1      -8.710   7.037  72.144  1.00  0.00    -0.125 C  
HETATM   15  C   UNL     1      -8.886   6.265  74.501  1.00  0.00    -0.147 C  
BRANCH  13  16
HETATM   16  C   UNL     1     -10.266   5.127  72.728  1.00  0.00    -0.179 C  
BRANCH  16  17
HETATM   17  C   UNL     1      -9.699   4.589  71.438  1.00  0.00    -0.248 A  
HETATM   18  C   UNL     1     -10.174   5.054  70.200  1.00  0.00    -0.329 A  
HETATM   19  C   UNL     1      -9.806   4.414  69.018  1.00  0.00    -0.182 A  
HETATM   20  C   UNL     1      -8.939   3.324  69.056  1.00  0.00    -0.187 A  
HETATM   21  C   UNL     1      -8.401   2.902  70.269  1.00  0.00    -0.080 A  
HETATM   22  C   UNL     1      -8.766   3.541  71.455  1.00  0.00    -0.125 A  
ENDBRANCH  16  17
ENDBRANCH  13  16
ENDBRANCH  12  13
ENDBRANCH  11  12
ENDBRANCH  10  11
ENDBRANCH   9  10
ENDBRANCH   8   9
ENDBRANCH   7   8
ENDBRANCH   6   7
ENDBRANCH   5   6
ENDBRANCH   4   5
ENDBRANCH   3   4
ENDBRANCH   2   3
TORSDOF 13
ENDMDL
MODEL      267
REMARK 921   NORMALIZED FREE ENERGY PREDICTED BY IDOCK:   -3.09 KCAL/MOL
REMARK 922        TOTAL FREE ENERGY PREDICTED BY IDOCK:   -6.90 KCAL/MOL
REMARK 923 INTER-LIGAND FREE ENERGY PREDICTED BY IDOCK:   -4.60 KCAL/MOL
REMARK 924 INTRA-LIGAND FREE ENERGY PREDICTED BY IDOCK:   -2.31 KCAL/MOL
REMARK 927      BINDING AFFINITY PREDICTED BY RF-SCORE:    0.00 PKD
ROOT
HETATM    1  C   UNL     1      -8.459   6.050  73.604  1.00  0.00    -0.118 C  
HETATM    2  C   UNL     1      -8.199   7.372  72.901  1.00  0.00    -0.136 C  
ENDROOT
BRANCH   2   3
HETATM    3  C   UNL     1      -9.414   8.290  72.995  1.00  0.00    -0.298 C  
BRANCH   3   4
HETATM    4  C   UNL     1     -10.691   7.491  73.235  1.00  0.00    -0.437 C  
BRANCH   4   5
HETATM    5  C   UNL     1     -11.860   8.103  72.470  1.00  0.00    -0.438 C  
BRANCH   5   6
HETATM    6  C   UNL     1     -12.490   7.077  71.537  1.00  0.00    -0.426 C  
BRANCH   6   7
HETATM    7  C   UNL     1     -11.424   6.233  70.847  1.00  0.00    -0.377 C  
BRANCH   7   8
HETATM    8  C   UNL     1     -11.154   6.781  69.451  1.00  0.00    -0.310 C  
BRANCH   8   9
HETATM    9  C   UNL     1      -9.798   7.473  69.368  1.00  0.00    -0.166 C  
BRANCH   9  10
HETATM   10  C   UNL     1      -9.915   8.997  69.438  1.00  0.00    -0.191 C  
BRANCH  10  11
HETATM   11  C   UNL     1      -9.070   9.759  68.411  1.00  0.00    -0.123 C  
BRANCH  11  12
HETATM   12  C   UNL     1      -8.127   8.848  67.617  1.00  0.00    -0.106 C  
BRANCH  12  13
HETATM   13  N   UNL     1      -8.290   8.970  66.089  1.00  0.00    -0.118 N  
HETATM   14  C   UNL     1      -9.722   9.346  65.729  1.00  0.00    -0.284 C  
HETATM   15  C   UNL     1      -7.336  10.018  65.527  1.00  0.00    -0.137 C  
BRANCH  13  16
HETATM   16  C   UNL     1      -7.934   7.572  65.479  1.00  0.00    -0.121 C  
BRANCH  16  17
HETATM   17  C   UNL     1      -8.458   6.385  66.249  1.00  0.00    -0.131 A  
HETATM   18  C   UNL     1      -7.613   5.662  67.108  1.00  0.00    -0.096 A  
HETATM   19  C   UNL     1      -8.033   4.451  67.655  1.00  0.00    -0.092 A  
HETATM   20  C   UNL     1      -9.308   3.964  67.373  1.00  0.00    -0.225 A  
HETATM   21  C   UNL     1     -10.182   4.709  66.586  1.00  0.00    -0.250 A  
HETATM   22  C   UNL     1      -9.766   5.923  66.038  1.00  0.00    -0.019 A  
ENDBRANCH  16  17
ENDBRANCH  13  16
ENDBRANCH  12  13
ENDBRANCH  11  12
ENDBRANCH  10  11
ENDBRANCH   9  10
ENDBRANCH   8   9
ENDBRANCH   7   8
ENDBRANCH   6   7
ENDBRANCH   5   6
ENDBRANCH   4   5
ENDBRANCH   3   4
ENDBRANCH   2   3
TORSDOF 13
ENDMDL
MODEL      268
REMARK 921   NORMALIZED FREE ENERGY PREDICTED BY IDOCK:   -3.07 KCAL/MOL
REMARK 922        TOTAL FREE ENERGY PREDICTED BY IDOCK:   -6.87 KCAL/MOL
REMARK 923 INTER-LIGAND FREE ENERGY PREDICTED BY IDOCK:   -6.57 KCAL/MOL
REMARK 924 INTRA-LIGAND FREE ENERGY PREDICTED BY IDOCK:   -0.30 KCAL/MOL
REMARK 927      BINDING AFFINITY PREDICTED BY RF-SCORE:    0.00 PKD
ROOT
HETATM    1  C   UNL     1     -13.101  11.860  71.586  1.00  0.00    -0.433 C  
HETATM    2  C   UNL     1     -13.782  13.011  72.308  1.00  0.00    -0.608 C  
ENDROOT
BRANCH   2   3
HETATM    3  C   UNL     1     -12.812  14.169  72.528  1.00  0.00    -0.433 C  
BRANCH   3   4
HETATM    4  C   UNL     1     -13.207  15.385  71.695  1.00  0.00    -0.563 C  
BRANCH   4   5
HETATM    5  C   UNL     1     -12.236  15.579  70.534  1.00  0.00    -0.444 C  
BRANCH   5   6
HETATM    6  C   UNL     1     -12.425  14.490  69.486  1.00  0.00    -0.162 C  
BRANCH   6   7
HETATM    7  C   UNL     1     -11.664  14.820  68.206  1.00  0.00    -0.340 C  
BRANCH   7   8
HETATM    8  C   UNL     1     -12.129  13.908  67.078  1.00  0.00    -0.451 C  
BRANCH   8   9
HETATM    9  C   UNL     1     -11.025  13.668  66.054  1.00  0.00    -0.288 C  
BRANCH   9  10
HETATM   10  C   UNL     1     -10.736  14.908  65.206  1.00  0.00    -0.409 C  
BRANCH  10  11
HETATM   11  C   UNL     1      -9.460  15.668  65.585  1.00  0.00    -0.272 C  
BRANCH  11  12
HETATM   12  C   UNL     1      -9.725  17.131  65.964  1.00  0.00    -0.189 C  
BRANCH  12  13
HETATM   13  N   UNL     1      -8.623  17.751  66.846  1.00  0.00    -0.236 N  
HETATM   14  C   UNL     1      -8.443  19.229  66.521  1.00  0.00    -0.325 C  
HETATM   15  C   UNL     1      -8.963  17.595  68.323  1.00  0.00    -0.276 C  
BRANCH  13  16
HETATM   16  C   UNL     1      -7.300  16.970  66.538  1.00  0.00    -0.285 C  
BRANCH  16  17
HETATM   17  C   UNL     1      -6.793  16.102  67.663  1.00  0.00    -0.176 A  
HETATM   18  C   UNL     1      -7.329  14.821  67.874  1.00  0.00    -0.162 A  
HETATM   19  C   UNL     1      -7.014  14.107  69.029  1.00  0.00    -0.112 A  
HETATM   20  C   UNL     1      -6.141  14.651  69.969  1.00  0.00    -0.151 A  
HETATM   21  C   UNL     1      -5.544  15.886  69.734  1.00  0.00    -0.134 A  
HETATM   22  C   UNL     1      -5.854  16.603  68.579  1.00  0.00    -0.125 A  
ENDBRANCH  16  17
ENDBRANCH  13  16
ENDBRANCH  12  13
ENDBRANCH  11  12
ENDBRANCH  10  11
ENDBRANCH   9  10
ENDBRANCH   8   9
ENDBRANCH   7   8
ENDBRANCH   6   7
ENDBRANCH   5   6
ENDBRANCH   4   5
ENDBRANCH   3   4
ENDBRANCH   2   3
TORSDOF 13
ENDMDL
MODEL      269
REMARK 921   NORMALIZED FREE ENERGY PREDICTED BY IDOCK:   -3.06 KCAL/MOL
REMARK 922        TOTAL FREE ENERGY PREDICTED BY IDOCK:   -6.86 KCAL/MOL
REMARK 923 INTER-LIGAND FREE ENERGY PREDICTED BY IDOCK:   -4.28 KCAL/MOL
REMARK 924 INTRA-LIGAND FREE ENERGY PREDICTED BY IDOCK:   -2.58 KCAL/MOL
REMARK 927      BINDING AFFINITY PREDICTED BY RF-SCORE:    0.00 PKD
ROOT
HETATM    1  C   UNL     1      -8.536   5.983  73.577  1.00  0.00    -0.119 C  
HETATM    2  C   UNL     1      -8.049   7.155  72.742  1.00  0.00    -0.119 C  
ENDROOT
BRANCH   2   3
HETATM    3  C   UNL     1      -9.061   8.298  72.761  1.00  0.00    -0.332 C  
BRANCH   3   4
HETATM    4  C   UNL     1     -10.448   7.799  73.154  1.00  0.00    -0.413 C  
BRANCH   4   5
HETATM    5  C   UNL     1     -11.506   8.345  72.199  1.00  0.00    -0.442 C  
BRANCH   5   6
HETATM    6  C   UNL     1     -12.277   7.207  71.543  1.00  0.00    -0.396 C  
BRANCH   6   7
HETATM    7  C   UNL     1     -11.359   6.033  71.221  1.00  0.00    -0.296 C  
BRANCH   7   8
HETATM    8  C   UNL     1     -11.047   6.014  69.730  1.00  0.00    -0.476 C  
BRANCH   8   9
HETATM    9  C   UNL     1      -9.875   6.927  69.385  1.00  0.00    -0.161 C  
BRANCH   9  10
HETATM   10  C   UNL     1     -10.178   7.844  68.199  1.00  0.00    -0.248 C  
BRANCH  10  11
HETATM   11  C   UNL     1      -9.166   7.771  67.050  1.00  0.00    -0.176 C  
BRANCH  11  12
HETATM   12  C   UNL     1      -7.974   6.857  67.358  1.00  0.00    -0.112 C  
BRANCH  12  13
HETATM   13  N   UNL     1      -7.673   5.836  66.244  1.00  0.00    -0.098 N  
HETATM   14  C   UNL     1      -8.946   5.470  65.491  1.00  0.00    -0.126 C  
HETATM   15  C   UNL     1      -6.648   6.394  65.263  1.00  0.00    -0.039 C  
BRANCH  13  16
HETATM   16  C   UNL     1      -7.078   4.564  66.939  1.00  0.00    -0.068 C  
BRANCH  16  17
HETATM   17  C   UNL     1      -7.789   4.131  68.197  1.00  0.00    -0.074 A  
HETATM   18  C   UNL     1      -7.263   4.450  69.460  1.00  0.00    -0.051 A  
HETATM   19  C   UNL     1      -7.799   3.876  70.612  1.00  0.00    -0.054 A  
HETATM   20  C   UNL     1      -8.880   3.003  70.518  1.00  0.00    -0.149 A  
HETATM   21  C   UNL     1      -9.458   2.739  69.279  1.00  0.00    -0.145 A  
HETATM   22  C   UNL     1      -8.926   3.312  68.124  1.00  0.00    -0.187 A  
ENDBRANCH  16  17
ENDBRANCH  13  16
ENDBRANCH  12  13
ENDBRANCH  11  12
ENDBRANCH  10  11
ENDBRANCH   9  10
ENDBRANCH   8   9
ENDBRANCH   7   8
ENDBRANCH   6   7
ENDBRANCH   5   6
ENDBRANCH   4   5
ENDBRANCH   3   4
ENDBRANCH   2   3
TORSDOF 13
ENDMDL
MODEL      270
REMARK 921   NORMALIZED FREE ENERGY PREDICTED BY IDOCK:   -3.06 KCAL/MOL
REMARK 922        TOTAL FREE ENERGY PREDICTED BY IDOCK:   -6.86 KCAL/MOL
REMARK 923 INTER-LIGAND FREE ENERGY PREDICTED BY IDOCK:   -6.37 KCAL/MOL
REMARK 924 INTRA-LIGAND FREE ENERGY PREDICTED BY IDOCK:   -0.49 KCAL/MOL
REMARK 927      BINDING AFFINITY PREDICTED BY RF-SCORE:    0.00 PKD
ROOT
HETATM    1  C   UNL     1     -12.171  15.222  74.527  1.00  0.00    -0.582 C  
HETATM    2  C   UNL     1     -13.002  15.935  73.474  1.00  0.00    -0.707 C  
ENDROOT
BRANCH   2   3
HETATM    3  C   UNL     1     -13.871  14.947  72.700  1.00  0.00    -0.516 C  
BRANCH   3   4
HETATM    4  C   UNL     1     -13.319  14.711  71.297  1.00  0.00    -0.447 C  
BRANCH   4   5
HETATM    5  C   UNL     1     -12.433  15.876  70.866  1.00  0.00    -0.352 C  
BRANCH   5   6
HETATM    6  C   UNL     1     -10.996  15.413  70.664  1.00  0.00    -0.350 C  
BRANCH   6   7
HETATM    7  C   UNL     1     -10.568  15.564  69.208  1.00  0.00    -0.236 C  
BRANCH   7   8
HETATM    8  C   UNL     1     -11.758  15.319  68.290  1.00  0.00    -0.320 C  
BRANCH   8   9
HETATM    9  C   UNL     1     -11.673  13.959  67.605  1.00  0.00    -0.403 C  
BRANCH   9  10
HETATM   10  C   UNL     1     -11.724  12.800  68.600  1.00  0.00    -0.360 C  
BRANCH  10  11
HETATM   11  C   UNL     1     -10.605  11.763  68.444  1.00  0.00    -0.239 C  
BRANCH  11  12
HETATM   12  C   UNL     1      -9.584  12.142  67.364  1.00  0.00    -0.177 C  
BRANCH  12  13
HETATM   13  N   UNL     1      -8.956  10.927  66.653  1.00  0.00    -0.160 N  
HETATM   14  C   UNL     1      -7.575  10.626  67.221  1.00  0.00    -0.100 C  
HETATM   15  C   UNL     1      -9.844   9.697  66.801  1.00  0.00    -0.211 C  
BRANCH  13  16
HETATM   16  C   UNL     1      -8.842  11.297  65.135  1.00  0.00     0.029 C  
BRANCH  16  17
HETATM   17  C   UNL     1     -10.084  11.899  64.527  1.00  0.00    -0.302 A  
HETATM   18  C   UNL     1     -10.850  11.172  63.600  1.00  0.00    -0.319 A  
HETATM   19  C   UNL     1     -11.870  11.796  62.885  1.00  0.00     0.251 A  
HETATM   20  C   UNL     1     -12.155  13.142  63.107  1.00  0.00    -0.282 A  
HETATM   21  C   UNL     1     -11.454  13.853  64.077  1.00  0.00    -0.183 A  
HETATM   22  C   UNL     1     -10.433  13.231  64.796  1.00  0.00    -0.402 A  
ENDBRANCH  16  17
ENDBRANCH  13  16
ENDBRANCH  12  13
ENDBRANCH  11  12
ENDBRANCH  10  11
ENDBRANCH   9  10
ENDBRANCH   8   9
ENDBRANCH   7   8
ENDBRANCH   6   7
ENDBRANCH   5   6
ENDBRANCH   4   5
ENDBRANCH   3   4
ENDBRANCH   2   3
TORSDOF 13
ENDMDL
MODEL      271
REMARK 921   NORMALIZED FREE ENERGY PREDICTED BY IDOCK:   -3.06 KCAL/MOL
REMARK 922        TOTAL FREE ENERGY PREDICTED BY IDOCK:   -6.85 KCAL/MOL
REMARK 923 INTER-LIGAND FREE ENERGY PREDICTED BY IDOCK:   -6.04 KCAL/MOL
REMARK 924 INTRA-LIGAND FREE ENERGY PREDICTED BY IDOCK:   -0.81 KCAL/MOL
REMARK 927      BINDING AFFINITY PREDICTED BY RF-SCORE:    0.00 PKD
ROOT
HETATM    1  C   UNL     1     -10.218   8.208  66.849  1.00  0.00    -0.387 C  
HETATM    2  C   UNL     1      -9.281   9.057  66.007  1.00  0.00    -0.284 C  
ENDROOT
BRANCH   2   3
HETATM    3  C   UNL     1     -10.057  10.095  65.201  1.00  0.00    -0.329 C  
BRANCH   3   4
HETATM    4  C   UNL     1      -9.968  11.473  65.848  1.00  0.00    -0.267 C  
BRANCH   4   5
HETATM    5  C   UNL     1     -11.260  11.803  66.589  1.00  0.00    -0.383 C  
BRANCH   5   6
HETATM    6  C   UNL     1     -11.091  13.060  67.433  1.00  0.00    -0.302 C  
BRANCH   6   7
HETATM    7  C   UNL     1     -11.991  13.022  68.664  1.00  0.00    -0.298 C  
BRANCH   7   8
HETATM    8  C   UNL     1     -12.156  11.584  69.140  1.00  0.00    -0.329 C  
BRANCH   8   9
HETATM    9  C   UNL     1     -12.380  11.510  70.647  1.00  0.00    -0.457 C  
BRANCH   9  10
HETATM   10  C   UNL     1     -12.052  10.130  71.218  1.00  0.00    -0.489 C  
BRANCH  10  11
HETATM   11  C   UNL     1     -10.900   9.397  70.520  1.00  0.00    -0.336 C  
BRANCH  11  12
HETATM   12  C   UNL     1      -9.926   8.736  71.503  1.00  0.00    -0.300 C  
BRANCH  12  13
HETATM   13  N   UNL     1     -10.149   7.220  71.669  1.00  0.00    -0.185 N  
HETATM   14  C   UNL     1     -10.587   6.893  73.091  1.00  0.00    -0.302 C  
HETATM   15  C   UNL     1     -11.202   6.719  70.687  1.00  0.00    -0.312 C  
BRANCH  13  16
HETATM   16  C   UNL     1      -8.781   6.522  71.356  1.00  0.00    -0.130 C  
BRANCH  16  17
HETATM   17  C   UNL     1      -8.885   5.228  70.587  1.00  0.00    -0.148 A  
HETATM   18  C   UNL     1      -8.622   5.195  69.207  1.00  0.00    -0.100 A  
HETATM   19  C   UNL     1      -8.918   4.056  68.461  1.00  0.00    -0.162 A  
HETATM   20  C   UNL     1      -9.451   2.931  69.087  1.00  0.00    -0.154 A  
HETATM   21  C   UNL     1      -9.644   2.925  70.466  1.00  0.00    -0.172 A  
HETATM   22  C   UNL     1      -9.348   4.063  71.217  1.00  0.00    -0.212 A  
ENDBRANCH  16  17
ENDBRANCH  13  16
ENDBRANCH  12  13
ENDBRANCH  11  12
ENDBRANCH  10  11
ENDBRANCH   9  10
ENDBRANCH   8   9
ENDBRANCH   7   8
ENDBRANCH   6   7
ENDBRANCH   5   6
ENDBRANCH   4   5
ENDBRANCH   3   4
ENDBRANCH   2   3
TORSDOF 13
ENDMDL
MODEL      272
REMARK 921   NORMALIZED FREE ENERGY PREDICTED BY IDOCK:   -3.04 KCAL/MOL
REMARK 922        TOTAL FREE ENERGY PREDICTED BY IDOCK:   -6.83 KCAL/MOL
REMARK 923 INTER-LIGAND FREE ENERGY PREDICTED BY IDOCK:   -6.45 KCAL/MOL
REMARK 924 INTRA-LIGAND FREE ENERGY PREDICTED BY IDOCK:   -0.38 KCAL/MOL
REMARK 927      BINDING AFFINITY PREDICTED BY RF-SCORE:    0.00 PKD
ROOT
HETATM    1  C   UNL     1      -8.342   4.497  73.510  1.00  0.00    -0.102 C  
HETATM    2  C   UNL     1      -9.392   5.239  72.701  1.00  0.00    -0.150 C  
ENDROOT
BRANCH   2   3
HETATM    3  C   UNL     1      -8.966   6.683  72.445  1.00  0.00    -0.138 C  
BRANCH   3   4
HETATM    4  C   UNL     1      -9.647   7.639  73.420  1.00  0.00    -0.346 C  
BRANCH   4   5
HETATM    5  C   UNL     1     -11.150   7.688  73.161  1.00  0.00    -0.373 C  
BRANCH   5   6
HETATM    6  C   UNL     1     -11.434   7.921  71.683  1.00  0.00    -0.304 C  
BRANCH   6   7
HETATM    7  C   UNL     1     -11.913   9.347  71.432  1.00  0.00    -0.446 C  
BRANCH   7   8
HETATM    8  C   UNL     1     -11.228   9.913  70.195  1.00  0.00    -0.347 C  
BRANCH   8   9
HETATM    9  C   UNL     1     -11.948  11.148  69.664  1.00  0.00    -0.429 C  
BRANCH   9  10
HETATM   10  C   UNL     1     -11.583  11.458  68.212  1.00  0.00    -0.376 C  
BRANCH  10  11
HETATM   11  C   UNL     1     -11.997  12.851  67.723  1.00  0.00    -0.336 C  
BRANCH  11  12
HETATM   12  C   UNL     1     -12.127  12.936  66.197  1.00  0.00    -0.393 C  
BRANCH  12  13
HETATM   13  N   UNL     1     -11.418  14.159  65.584  1.00  0.00    -0.318 N  
HETATM   14  C   UNL     1     -10.093  13.752  64.952  1.00  0.00    -0.267 C  
HETATM   15  C   UNL     1     -12.299  14.821  64.530  1.00  0.00    -0.366 C  
BRANCH  13  16
HETATM   16  C   UNL     1     -11.166  15.173  66.751  1.00  0.00    -0.285 C  
BRANCH  16  17
HETATM   17  C   UNL     1      -9.744  15.663  66.878  1.00  0.00    -0.240 A  
HETATM   18  C   UNL     1      -9.333  16.838  66.227  1.00  0.00    -0.310 A  
HETATM   19  C   UNL     1      -7.982  17.177  66.170  1.00  0.00    -0.297 A  
HETATM   20  C   UNL     1      -7.033  16.363  66.784  1.00  0.00    -0.212 A  
HETATM   21  C   UNL     1      -7.436  15.237  67.497  1.00  0.00    -0.216 A  
HETATM   22  C   UNL     1      -8.787  14.895  67.558  1.00  0.00    -0.195 A  
ENDBRANCH  16  17
ENDBRANCH  13  16
ENDBRANCH  12  13
ENDBRANCH  11  12
ENDBRANCH  10  11
ENDBRANCH   9  10
ENDBRANCH   8   9
ENDBRANCH   7   8
ENDBRANCH   6   7
ENDBRANCH   5   6
ENDBRANCH   4   5
ENDBRANCH   3   4
ENDBRANCH   2   3
TORSDOF 13
ENDMDL
MODEL      273
REMARK 921   NORMALIZED FREE ENERGY PREDICTED BY IDOCK:   -3.04 KCAL/MOL
REMARK 922        TOTAL FREE ENERGY PREDICTED BY IDOCK:   -6.82 KCAL/MOL
REMARK 923 INTER-LIGAND FREE ENERGY PREDICTED BY IDOCK:   -5.49 KCAL/MOL
REMARK 924 INTRA-LIGAND FREE ENERGY PREDICTED BY IDOCK:   -1.33 KCAL/MOL
REMARK 927      BINDING AFFINITY PREDICTED BY RF-SCORE:    0.00 PKD
ROOT
HETATM    1  C   UNL     1      -9.261   4.983  66.625  1.00  0.00    -0.129 C  
HETATM    2  C   UNL     1      -9.943   4.689  67.951  1.00  0.00    -0.138 C  
ENDROOT
BRANCH   2   3
HETATM    3  C   UNL     1     -10.736   5.899  68.439  1.00  0.00    -0.323 C  
BRANCH   3   4
HETATM    4  C   UNL     1     -11.022   5.803  69.934  1.00  0.00    -0.389 C  
BRANCH   4   5
HETATM    5  C   UNL     1     -11.384   7.173  70.501  1.00  0.00    -0.333 C  
BRANCH   5   6
HETATM    6  C   UNL     1     -10.867   7.319  71.926  1.00  0.00    -0.255 C  
BRANCH   6   7
HETATM    7  C   UNL     1      -9.547   8.084  71.956  1.00  0.00    -0.262 C  
BRANCH   7   8
HETATM    8  C   UNL     1      -8.381   7.103  71.950  1.00  0.00    -0.106 C  
BRANCH   8   9
HETATM    9  C   UNL     1      -7.680   7.067  70.596  1.00  0.00    -0.095 C  
BRANCH   9  10
HETATM   10  C   UNL     1      -7.717   8.420  69.884  1.00  0.00    -0.092 C  
BRANCH  10  11
HETATM   11  C   UNL     1      -8.225   8.377  68.438  1.00  0.00    -0.124 C  
BRANCH  11  12
HETATM   12  C   UNL     1      -8.232   9.755  67.764  1.00  0.00    -0.114 C  
BRANCH  12  13
HETATM   13  N   UNL     1      -9.599  10.146  67.170  1.00  0.00    -0.165 N  
HETATM   14  C   UNL     1      -9.927   9.280  65.960  1.00  0.00    -0.255 C  
HETATM   15  C   UNL     1     -10.702   9.999  68.212  1.00  0.00    -0.240 C  
BRANCH  13  16
HETATM   16  C   UNL     1      -9.496  11.649  66.739  1.00  0.00    -0.186 C  
BRANCH  16  17
HETATM   17  C   UNL     1     -10.442  12.066  65.640  1.00  0.00    -0.293 A  
HETATM   18  C   UNL     1      -9.975  12.248  64.328  1.00  0.00    -0.244 A  
HETATM   19  C   UNL     1     -10.794  12.832  63.363  1.00  0.00    -0.154 A  
HETATM   20  C   UNL     1     -12.094  13.212  63.689  1.00  0.00    -0.583 A  
HETATM   21  C   UNL     1     -12.593  12.967  64.965  1.00  0.00    -0.538 A  
HETATM   22  C   UNL     1     -11.777  12.382  65.934  1.00  0.00    -0.476 A  
ENDBRANCH  16  17
ENDBRANCH  13  16
ENDBRANCH  12  13
ENDBRANCH  11  12
ENDBRANCH  10  11
ENDBRANCH   9  10
ENDBRANCH   8   9
ENDBRANCH   7   8
ENDBRANCH   6   7
ENDBRANCH   5   6
ENDBRANCH   4   5
ENDBRANCH   3   4
ENDBRANCH   2   3
TORSDOF 13
ENDMDL
MODEL      274
REMARK 921   NORMALIZED FREE ENERGY PREDICTED BY IDOCK:   -3.04 KCAL/MOL
REMARK 922        TOTAL FREE ENERGY PREDICTED BY IDOCK:   -6.82 KCAL/MOL
REMARK 923 INTER-LIGAND FREE ENERGY PREDICTED BY IDOCK:   -5.96 KCAL/MOL
REMARK 924 INTRA-LIGAND FREE ENERGY PREDICTED BY IDOCK:   -0.85 KCAL/MOL
REMARK 927      BINDING AFFINITY PREDICTED BY RF-SCORE:    0.00 PKD
ROOT
HETATM    1  C   UNL     1     -12.168   8.239  72.081  1.00  0.00    -0.418 C  
HETATM    2  C   UNL     1     -11.533   7.456  70.944  1.00  0.00    -0.311 C  
ENDROOT
BRANCH   2   3
HETATM    3  C   UNL     1     -10.897   8.395  69.922  1.00  0.00    -0.207 C  
BRANCH   3   4
HETATM    4  C   UNL     1      -9.378   8.253  69.915  1.00  0.00    -0.159 C  
BRANCH   4   5
HETATM    5  C   UNL     1      -8.712   9.603  70.167  1.00  0.00    -0.263 C  
BRANCH   5   6
HETATM    6  C   UNL     1      -7.841  10.002  68.983  1.00  0.00    -0.101 C  
BRANCH   6   7
HETATM    7  C   UNL     1      -8.692  10.448  67.798  1.00  0.00    -0.122 C  
BRANCH   7   8
HETATM    8  C   UNL     1      -8.142  11.747  67.225  1.00  0.00    -0.164 C  
BRANCH   8   9
HETATM    9  C   UNL     1      -7.602  12.663  68.319  1.00  0.00    -0.133 C  
BRANCH   9  10
HETATM   10  C   UNL     1      -7.245  14.054  67.791  1.00  0.00    -0.175 C  
BRANCH  10  11
HETATM   11  C   UNL     1      -8.042  15.207  68.413  1.00  0.00    -0.139 C  
BRANCH  11  12
HETATM   12  C   UNL     1      -9.261  15.612  67.576  1.00  0.00    -0.201 C  
BRANCH  12  13
HETATM   13  N   UNL     1     -10.610  15.272  68.241  1.00  0.00    -0.240 N  
HETATM   14  C   UNL     1     -11.494  16.509  68.326  1.00  0.00    -0.075 C  
HETATM   15  C   UNL     1     -11.337  14.183  67.460  1.00  0.00    -0.322 C  
BRANCH  13  16
HETATM   16  C   UNL     1     -10.288  14.743  69.680  1.00  0.00    -0.065 C  
BRANCH  16  17
HETATM   17  C   UNL     1     -11.450  14.757  70.642  1.00  0.00    -0.283 A  
HETATM   18  C   UNL     1     -11.624  15.826  71.536  1.00  0.00    -0.531 A  
HETATM   19  C   UNL     1     -12.567  15.743  72.559  1.00  0.00    -0.541 A  
HETATM   20  C   UNL     1     -13.362  14.606  72.683  1.00  0.00    -0.577 A  
HETATM   21  C   UNL     1     -13.252  13.572  71.757  1.00  0.00    -0.490 A  
HETATM   22  C   UNL     1     -12.311  13.652  70.731  1.00  0.00    -0.446 A  
ENDBRANCH  16  17
ENDBRANCH  13  16
ENDBRANCH  12  13
ENDBRANCH  11  12
ENDBRANCH  10  11
ENDBRANCH   9  10
ENDBRANCH   8   9
ENDBRANCH   7   8
ENDBRANCH   6   7
ENDBRANCH   5   6
ENDBRANCH   4   5
ENDBRANCH   3   4
ENDBRANCH   2   3
TORSDOF 13
ENDMDL
MODEL      275
REMARK 921   NORMALIZED FREE ENERGY PREDICTED BY IDOCK:   -3.04 KCAL/MOL
REMARK 922        TOTAL FREE ENERGY PREDICTED BY IDOCK:   -6.82 KCAL/MOL
REMARK 923 INTER-LIGAND FREE ENERGY PREDICTED BY IDOCK:   -6.12 KCAL/MOL
REMARK 924 INTRA-LIGAND FREE ENERGY PREDICTED BY IDOCK:   -0.69 KCAL/MOL
REMARK 927      BINDING AFFINITY PREDICTED BY RF-SCORE:    0.00 PKD
ROOT
HETATM    1  C   UNL     1     -10.202  12.626  64.742  1.00  0.00    -0.307 C  
HETATM    2  C   UNL     1     -10.243  11.252  64.095  1.00  0.00    -0.391 C  
ENDROOT
BRANCH   2   3
HETATM    3  C   UNL     1      -9.981  10.154  65.124  1.00  0.00    -0.379 C  
BRANCH   3   4
HETATM    4  C   UNL     1      -8.486   9.983  65.376  1.00  0.00    -0.158 C  
BRANCH   4   5
HETATM    5  C   UNL     1      -8.110  10.517  66.756  1.00  0.00    -0.123 C  
BRANCH   5   6
HETATM    6  C   UNL     1      -8.463   9.506  67.838  1.00  0.00    -0.119 C  
BRANCH   6   7
HETATM    7  C   UNL     1      -9.972   9.419  68.040  1.00  0.00    -0.209 C  
BRANCH   7   8
HETATM    8  C   UNL     1     -10.369  10.155  69.313  1.00  0.00    -0.242 C  
BRANCH   8   9
HETATM    9  C   UNL     1     -11.770  10.749  69.210  1.00  0.00    -0.374 C  
BRANCH   9  10
HETATM   10  C   UNL     1     -11.863  11.842  68.145  1.00  0.00    -0.324 C  
BRANCH  10  11
HETATM   11  C   UNL     1     -10.777  12.921  68.228  1.00  0.00    -0.261 C  
BRANCH  11  12
HETATM   12  C   UNL     1     -11.067  13.981  69.298  1.00  0.00    -0.232 C  
BRANCH  12  13
HETATM   13  N   UNL     1     -10.385  15.336  69.028  1.00  0.00    -0.232 N  
HETATM   14  C   UNL     1     -11.067  16.448  69.814  1.00  0.00    -0.305 C  
HETATM   15  C   UNL     1      -8.909  15.282  69.405  1.00  0.00    -0.220 C  
BRANCH  13  16
HETATM   16  C   UNL     1     -10.512  15.612  67.490  1.00  0.00    -0.285 C  
BRANCH  16  17
HETATM   17  C   UNL     1      -9.724  16.794  66.985  1.00  0.00    -0.254 A  
HETATM   18  C   UNL     1      -8.463  16.611  66.393  1.00  0.00    -0.348 A  
HETATM   19  C   UNL     1      -7.647  17.708  66.119  1.00  0.00    -0.315 A  
HETATM   20  C   UNL     1      -8.093  18.997  66.404  1.00  0.00    -0.308 A  
HETATM   21  C   UNL     1      -9.371  19.195  66.919  1.00  0.00    -0.363 A  
HETATM   22  C   UNL     1     -10.191  18.101  67.194  1.00  0.00    -0.376 A  
ENDBRANCH  16  17
ENDBRANCH  13  16
ENDBRANCH  12  13
ENDBRANCH  11  12
ENDBRANCH  10  11
ENDBRANCH   9  10
ENDBRANCH   8   9
ENDBRANCH   7   8
ENDBRANCH   6   7
ENDBRANCH   5   6
ENDBRANCH   4   5
ENDBRANCH   3   4
ENDBRANCH   2   3
TORSDOF 13
ENDMDL
MODEL      276
REMARK 921   NORMALIZED FREE ENERGY PREDICTED BY IDOCK:   -3.03 KCAL/MOL
REMARK 922        TOTAL FREE ENERGY PREDICTED BY IDOCK:   -6.81 KCAL/MOL
REMARK 923 INTER-LIGAND FREE ENERGY PREDICTED BY IDOCK:   -5.16 KCAL/MOL
REMARK 924 INTRA-LIGAND FREE ENERGY PREDICTED BY IDOCK:   -1.65 KCAL/MOL
REMARK 927      BINDING AFFINITY PREDICTED BY RF-SCORE:    0.00 PKD
ROOT
HETATM    1  C   UNL     1     -12.155   7.008  70.626  1.00  0.00    -0.332 C  
HETATM    2  C   UNL     1     -11.588   7.320  72.001  1.00  0.00    -0.311 C  
ENDROOT
BRANCH   2   3
HETATM    3  C   UNL     1     -10.967   8.714  72.034  1.00  0.00    -0.432 C  
BRANCH   3   4
HETATM    4  C   UNL     1      -9.445   8.637  72.096  1.00  0.00    -0.373 C  
BRANCH   4   5
HETATM    5  C   UNL     1      -8.984   8.246  73.498  1.00  0.00    -0.237 C  
BRANCH   5   6
HETATM    6  C   UNL     1      -8.391   6.843  73.497  1.00  0.00    -0.134 C  
BRANCH   6   7
HETATM    7  C   UNL     1      -7.188   6.754  72.563  1.00  0.00    -0.075 C  
BRANCH   7   8
HETATM    8  C   UNL     1      -7.259   5.469  71.749  1.00  0.00    -0.089 C  
BRANCH   8   9
HETATM    9  C   UNL     1      -8.547   5.385  70.935  1.00  0.00    -0.129 C  
BRANCH   9  10
HETATM   10  C   UNL     1      -8.348   5.819  69.482  1.00  0.00    -0.112 C  
BRANCH  10  11
HETATM   11  C   UNL     1      -8.958   7.179  69.124  1.00  0.00    -0.138 C  
BRANCH  11  12
HETATM   12  C   UNL     1      -9.278   7.317  67.630  1.00  0.00    -0.126 C  
BRANCH  12  13
HETATM   13  N   UNL     1      -9.178   8.763  67.107  1.00  0.00    -0.134 N  
HETATM   14  C   UNL     1      -8.457   9.651  68.114  1.00  0.00    -0.118 C  
HETATM   15  C   UNL     1      -8.437   8.806  65.775  1.00  0.00    -0.148 C  
BRANCH  13  16
HETATM   16  C   UNL     1     -10.644   9.274  66.896  1.00  0.00    -0.169 C  
BRANCH  16  17
HETATM   17  C   UNL     1     -10.974  10.575  67.585  1.00  0.00    -0.375 A  
HETATM   18  C   UNL     1     -11.408  10.585  68.921  1.00  0.00    -0.313 A  
HETATM   19  C   UNL     1     -11.911  11.754  69.490  1.00  0.00    -0.402 A  
HETATM   20  C   UNL     1     -11.959  12.928  68.743  1.00  0.00    -0.290 A  
HETATM   21  C   UNL     1     -11.460  12.949  67.443  1.00  0.00    -0.388 A  
HETATM   22  C   UNL     1     -10.955  11.782  66.870  1.00  0.00    -0.333 A  
ENDBRANCH  16  17
ENDBRANCH  13  16
ENDBRANCH  12  13
ENDBRANCH  11  12
ENDBRANCH  10  11
ENDBRANCH   9  10
ENDBRANCH   8   9
ENDBRANCH   7   8
ENDBRANCH   6   7
ENDBRANCH   5   6
ENDBRANCH   4   5
ENDBRANCH   3   4
ENDBRANCH   2   3
TORSDOF 13
ENDMDL
MODEL      277
REMARK 921   NORMALIZED FREE ENERGY PREDICTED BY IDOCK:   -3.01 KCAL/MOL
REMARK 922        TOTAL FREE ENERGY PREDICTED BY IDOCK:   -6.78 KCAL/MOL
REMARK 923 INTER-LIGAND FREE ENERGY PREDICTED BY IDOCK:   -5.88 KCAL/MOL
REMARK 924 INTRA-LIGAND FREE ENERGY PREDICTED BY IDOCK:   -0.90 KCAL/MOL
REMARK 927      BINDING AFFINITY PREDICTED BY RF-SCORE:    0.00 PKD
ROOT
HETATM    1  C   UNL     1     -10.736   8.161  70.512  1.00  0.00    -0.233 C  
HETATM    2  C   UNL     1      -9.619   8.966  71.154  1.00  0.00    -0.342 C  
ENDROOT
BRANCH   2   3
HETATM    3  C   UNL     1      -8.277   8.665  70.493  1.00  0.00    -0.127 C  
BRANCH   3   4
HETATM    4  C   UNL     1      -7.511   9.949  70.192  1.00  0.00    -0.178 C  
BRANCH   4   5
HETATM    5  C   UNL     1      -8.136  10.684  69.010  1.00  0.00    -0.148 C  
BRANCH   5   6
HETATM    6  C   UNL     1      -8.312   9.744  67.825  1.00  0.00    -0.114 C  
BRANCH   6   7
HETATM    7  C   UNL     1      -9.652   9.974  67.133  1.00  0.00    -0.202 C  
BRANCH   7   8
HETATM    8  C   UNL     1     -10.393  11.120  67.809  1.00  0.00    -0.215 C  
BRANCH   8   9
HETATM    9  C   UNL     1     -11.532  11.646  66.941  1.00  0.00    -0.320 C  
BRANCH   9  10
HETATM   10  C   UNL     1     -11.243  13.040  66.382  1.00  0.00    -0.332 C  
BRANCH  10  11
HETATM   11  C   UNL     1      -9.756  13.385  66.239  1.00  0.00    -0.280 C  
BRANCH  11  12
HETATM   12  C   UNL     1      -9.467  14.880  66.424  1.00  0.00    -0.300 C  
BRANCH  12  13
HETATM   13  N   UNL     1      -8.356  15.172  67.451  1.00  0.00    -0.172 N  
HETATM   14  C   UNL     1      -8.945  15.355  68.844  1.00  0.00    -0.208 C  
HETATM   15  C   UNL     1      -7.335  14.040  67.478  1.00  0.00    -0.170 C  
BRANCH  13  16
HETATM   16  C   UNL     1      -7.646  16.492  66.992  1.00  0.00    -0.205 C  
BRANCH  16  17
HETATM   17  C   UNL     1      -8.469  17.747  67.145  1.00  0.00    -0.239 A  
HETATM   18  C   UNL     1      -9.701  17.879  66.483  1.00  0.00    -0.331 A  
HETATM   19  C   UNL     1     -10.358  19.108  66.453  1.00  0.00    -0.536 A  
HETATM   20  C   UNL     1      -9.807  20.208  67.107  1.00  0.00    -0.586 A  
HETATM   21  C   UNL     1      -8.625  20.071  67.830  1.00  0.00    -0.347 A  
HETATM   22  C   UNL     1      -7.966  18.842  67.863  1.00  0.00    -0.297 A  
ENDBRANCH  16  17
ENDBRANCH  13  16
ENDBRANCH  12  13
ENDBRANCH  11  12
ENDBRANCH  10  11
ENDBRANCH   9  10
ENDBRANCH   8   9
ENDBRANCH   7   8
ENDBRANCH   6   7
ENDBRANCH   5   6
ENDBRANCH   4   5
ENDBRANCH   3   4
ENDBRANCH   2   3
TORSDOF 13
ENDMDL
MODEL      278
REMARK 921   NORMALIZED FREE ENERGY PREDICTED BY IDOCK:   -3.01 KCAL/MOL
REMARK 922        TOTAL FREE ENERGY PREDICTED BY IDOCK:   -6.77 KCAL/MOL
REMARK 923 INTER-LIGAND FREE ENERGY PREDICTED BY IDOCK:   -5.47 KCAL/MOL
REMARK 924 INTRA-LIGAND FREE ENERGY PREDICTED BY IDOCK:   -1.30 KCAL/MOL
REMARK 927      BINDING AFFINITY PREDICTED BY RF-SCORE:    0.00 PKD
ROOT
HETATM    1  C   UNL     1     -11.842   8.249  72.232  1.00  0.00    -0.451 C  
HETATM    2  C   UNL     1     -12.368   6.899  71.774  1.00  0.00    -0.401 C  
ENDROOT
BRANCH   2   3
HETATM    3  C   UNL     1     -11.582   5.759  72.416  1.00  0.00    -0.320 C  
BRANCH   3   4
HETATM    4  C   UNL     1     -10.133   5.751  71.936  1.00  0.00    -0.228 C  
BRANCH   4   5
HETATM    5  C   UNL     1      -9.933   4.698  70.851  1.00  0.00    -0.273 C  
BRANCH   5   6
HETATM    6  C   UNL     1      -9.371   5.331  69.584  1.00  0.00    -0.174 C  
BRANCH   6   7
HETATM    7  C   UNL     1     -10.403   5.324  68.461  1.00  0.00    -0.182 C  
BRANCH   7   8
HETATM    8  C   UNL     1     -11.026   6.706  68.322  1.00  0.00    -0.321 C  
BRANCH   8   9
HETATM    9  C   UNL     1      -9.966   7.800  68.242  1.00  0.00    -0.201 C  
BRANCH   9  10
HETATM   10  C   UNL     1     -10.223   8.935  69.233  1.00  0.00    -0.214 C  
BRANCH  10  11
HETATM   11  C   UNL     1     -10.725  10.241  68.605  1.00  0.00    -0.255 C  
BRANCH  11  12
HETATM   12  C   UNL     1      -9.621  11.295  68.452  1.00  0.00    -0.195 C  
BRANCH  12  13
HETATM   13  N   UNL     1      -9.027  11.367  67.031  1.00  0.00    -0.162 N  
HETATM   14  C   UNL     1      -7.713  10.599  66.958  1.00  0.00    -0.117 C  
HETATM   15  C   UNL     1     -10.004  10.797  66.009  1.00  0.00    -0.242 C  
BRANCH  13  16
HETATM   16  C   UNL     1      -8.781  12.882  66.716  1.00  0.00    -0.106 C  
BRANCH  16  17
HETATM   17  C   UNL     1      -9.655  13.845  67.481  1.00  0.00    -0.229 A  
HETATM   18  C   UNL     1      -9.155  14.529  68.601  1.00  0.00    -0.187 A  
HETATM   19  C   UNL     1     -10.014  15.252  69.427  1.00  0.00    -0.257 A  
HETATM   20  C   UNL     1     -11.372  15.324  69.127  1.00  0.00    -0.307 A  
HETATM   21  C   UNL     1     -11.867  14.715  67.978  1.00  0.00    -0.343 A  
HETATM   22  C   UNL     1     -11.011  13.991  67.148  1.00  0.00    -0.303 A  
ENDBRANCH  16  17
ENDBRANCH  13  16
ENDBRANCH  12  13
ENDBRANCH  11  12
ENDBRANCH  10  11
ENDBRANCH   9  10
ENDBRANCH   8   9
ENDBRANCH   7   8
ENDBRANCH   6   7
ENDBRANCH   5   6
ENDBRANCH   4   5
ENDBRANCH   3   4
ENDBRANCH   2   3
TORSDOF 13
ENDMDL
MODEL      279
REMARK 921   NORMALIZED FREE ENERGY PREDICTED BY IDOCK:   -3.00 KCAL/MOL
REMARK 922        TOTAL FREE ENERGY PREDICTED BY IDOCK:   -6.76 KCAL/MOL
REMARK 923 INTER-LIGAND FREE ENERGY PREDICTED BY IDOCK:   -5.47 KCAL/MOL
REMARK 924 INTRA-LIGAND FREE ENERGY PREDICTED BY IDOCK:   -1.28 KCAL/MOL
REMARK 927      BINDING AFFINITY PREDICTED BY RF-SCORE:    0.00 PKD
ROOT
HETATM    1  C   UNL     1      -7.891  18.819  68.586  1.00  0.00    -0.361 C  
HETATM    2  C   UNL     1      -8.436  17.905  67.502  1.00  0.00    -0.232 C  
ENDROOT
BRANCH   2   3
HETATM    3  C   UNL     1      -9.231  16.751  68.107  1.00  0.00    -0.224 C  
BRANCH   3   4
HETATM    4  C   UNL     1     -10.728  17.039  68.079  1.00  0.00    -0.365 C  
BRANCH   4   5
HETATM    5  C   UNL     1     -11.526  15.739  68.097  1.00  0.00    -0.302 C  
BRANCH   5   6
HETATM    6  C   UNL     1     -11.161  14.901  69.316  1.00  0.00    -0.300 C  
BRANCH   6   7
HETATM    7  C   UNL     1     -11.955  13.599  69.346  1.00  0.00    -0.394 C  
BRANCH   7   8
HETATM    8  C   UNL     1     -11.834  12.887  68.005  1.00  0.00    -0.390 C  
BRANCH   8   9
HETATM    9  C   UNL     1     -11.402  11.433  68.173  1.00  0.00    -0.374 C  
BRANCH   9  10
HETATM   10  C   UNL     1     -10.261  11.277  69.180  1.00  0.00    -0.123 C  
BRANCH  10  11
HETATM   11  C   UNL     1     -10.386  10.070  70.117  1.00  0.00    -0.321 C  
BRANCH  11  12
HETATM   12  C   UNL     1     -11.095   8.877  69.466  1.00  0.00    -0.001 C  
BRANCH  12  13
HETATM   13  N   UNL     1     -10.308   7.556  69.572  1.00  0.00    -0.211 N  
HETATM   14  C   UNL     1      -9.086   7.728  70.465  1.00  0.00    -0.154 C  
HETATM   15  C   UNL     1     -11.191   6.446  70.131  1.00  0.00    -0.390 C  
BRANCH  13  16
HETATM   16  C   UNL     1      -9.861   7.173  68.120  1.00  0.00    -0.143 C  
BRANCH  16  17
HETATM   17  C   UNL     1      -9.288   8.308  67.307  1.00  0.00    -0.181 A  
HETATM   18  C   UNL     1     -10.030   8.883  66.261  1.00  0.00    -0.337 A  
HETATM   19  C   UNL     1      -9.428   9.780  65.381  1.00  0.00    -0.333 A  
HETATM   20  C   UNL     1      -8.091  10.134  65.552  1.00  0.00    -0.147 A  
HETATM   21  C   UNL     1      -7.368   9.631  66.630  1.00  0.00    -0.090 A  
HETATM   22  C   UNL     1      -7.967   8.733  67.514  1.00  0.00    -0.102 A  
ENDBRANCH  16  17
ENDBRANCH  13  16
ENDBRANCH  12  13
ENDBRANCH  11  12
ENDBRANCH  10  11
ENDBRANCH   9  10
ENDBRANCH   8   9
ENDBRANCH   7   8
ENDBRANCH   6   7
ENDBRANCH   5   6
ENDBRANCH   4   5
ENDBRANCH   3   4
ENDBRANCH   2   3
TORSDOF 13
ENDMDL
MODEL      280
REMARK 921   NORMALIZED FREE ENERGY PREDICTED BY IDOCK:   -2.99 KCAL/MOL
REMARK 922        TOTAL FREE ENERGY PREDICTED BY IDOCK:   -6.74 KCAL/MOL
REMARK 923 INTER-LIGAND FREE ENERGY PREDICTED BY IDOCK:   -5.41 KCAL/MOL
REMARK 924 INTRA-LIGAND FREE ENERGY PREDICTED BY IDOCK:   -1.33 KCAL/MOL
REMARK 927      BINDING AFFINITY PREDICTED BY RF-SCORE:    0.00 PKD
ROOT
HETATM    1  C   UNL     1      -6.721  14.811  67.690  1.00  0.00    -0.198 C  
HETATM    2  C   UNL     1      -7.330  16.029  67.015  1.00  0.00    -0.258 C  
ENDROOT
BRANCH   2   3
HETATM    3  C   UNL     1      -8.772  16.242  67.468  1.00  0.00    -0.192 C  
BRANCH   3   4
HETATM    4  C   UNL     1      -9.701  16.432  66.273  1.00  0.00    -0.332 C  
BRANCH   4   5
HETATM    5  C   UNL     1      -9.858  15.124  65.502  1.00  0.00    -0.356 C  
BRANCH   5   6
HETATM    6  C   UNL     1     -11.280  14.977  64.976  1.00  0.00    -0.413 C  
BRANCH   6   7
HETATM    7  C   UNL     1     -12.152  14.198  65.955  1.00  0.00    -0.449 C  
BRANCH   7   8
HETATM    8  C   UNL     1     -11.601  12.790  66.132  1.00  0.00    -0.431 C  
BRANCH   8   9
HETATM    9  C   UNL     1     -11.254  12.497  67.589  1.00  0.00    -0.332 C  
BRANCH   9  10
HETATM   10  C   UNL     1      -9.746  12.389  67.819  1.00  0.00    -0.201 C  
BRANCH  10  11
HETATM   11  C   UNL     1      -9.314  11.260  68.762  1.00  0.00    -0.136 C  
BRANCH  11  12
HETATM   12  C   UNL     1      -8.530  10.151  68.049  1.00  0.00    -0.118 C  
BRANCH  12  13
HETATM   13  N   UNL     1      -8.925   8.730  68.493  1.00  0.00    -0.138 N  
HETATM   14  C   UNL     1      -7.687   7.864  68.691  1.00  0.00    -0.113 C  
HETATM   15  C   UNL     1      -9.725   8.772  69.790  1.00  0.00    -0.177 C  
BRANCH  13  16
HETATM   16  C   UNL     1      -9.822   8.130  67.357  1.00  0.00    -0.184 C  
BRANCH  16  17
HETATM   17  C   UNL     1      -9.467   8.574  65.959  1.00  0.00    -0.256 A  
HETATM   18  C   UNL     1      -8.502   7.878  65.213  1.00  0.00    -0.119 A  
HETATM   19  C   UNL     1      -8.023   8.404  64.014  1.00  0.00    -0.151 A  
HETATM   20  C   UNL     1      -8.523   9.613  63.535  1.00  0.00    -0.188 A  
HETATM   21  C   UNL     1      -9.535  10.273  64.227  1.00  0.00    -0.365 A  
HETATM   22  C   UNL     1     -10.018   9.749  65.426  1.00  0.00    -0.302 A  
ENDBRANCH  16  17
ENDBRANCH  13  16
ENDBRANCH  12  13
ENDBRANCH  11  12
ENDBRANCH  10  11
ENDBRANCH   9  10
ENDBRANCH   8   9
ENDBRANCH   7   8
ENDBRANCH   6   7
ENDBRANCH   5   6
ENDBRANCH   4   5
ENDBRANCH   3   4
ENDBRANCH   2   3
TORSDOF 13
ENDMDL
MODEL      281
REMARK 921   NORMALIZED FREE ENERGY PREDICTED BY IDOCK:   -2.99 KCAL/MOL
REMARK 922        TOTAL FREE ENERGY PREDICTED BY IDOCK:   -6.73 KCAL/MOL
REMARK 923 INTER-LIGAND FREE ENERGY PREDICTED BY IDOCK:   -5.37 KCAL/MOL
REMARK 924 INTRA-LIGAND FREE ENERGY PREDICTED BY IDOCK:   -1.36 KCAL/MOL
REMARK 927      BINDING AFFINITY PREDICTED BY RF-SCORE:    0.00 PKD
ROOT
HETATM    1  C   UNL     1     -10.433  14.347  64.729  1.00  0.00    -0.394 C  
HETATM    2  C   UNL     1     -11.262  13.128  64.361  1.00  0.00    -0.403 C  
ENDROOT
BRANCH   2   3
HETATM    3  C   UNL     1     -12.290  12.817  65.445  1.00  0.00    -0.528 C  
BRANCH   3   4
HETATM    4  C   UNL     1     -12.146  13.769  66.629  1.00  0.00    -0.471 C  
BRANCH   4   5
HETATM    5  C   UNL     1     -11.976  12.986  67.929  1.00  0.00    -0.338 C  
BRANCH   5   6
HETATM    6  C   UNL     1     -10.803  13.528  68.734  1.00  0.00    -0.279 C  
BRANCH   6   7
HETATM    7  C   UNL     1      -9.474  13.186  68.067  1.00  0.00    -0.220 C  
BRANCH   7   8
HETATM    8  C   UNL     1      -9.222  11.687  68.153  1.00  0.00    -0.184 C  
BRANCH   8   9
HETATM    9  C   UNL     1      -9.084  11.057  66.771  1.00  0.00    -0.172 C  
BRANCH   9  10
HETATM   10  C   UNL     1     -10.000   9.845  66.588  1.00  0.00    -0.277 C  
BRANCH  10  11
HETATM   11  C   UNL     1     -10.711   9.373  67.862  1.00  0.00    -0.269 C  
BRANCH  11  12
HETATM   12  C   UNL     1     -10.069   8.124  68.478  1.00  0.00    -0.200 C  
BRANCH  12  13
HETATM   13  N   UNL     1     -10.499   7.864  69.935  1.00  0.00    -0.225 N  
HETATM   14  C   UNL     1     -11.005   9.146  70.585  1.00  0.00    -0.263 C  
HETATM   15  C   UNL     1     -11.591   6.802  69.994  1.00  0.00    -0.310 C  
BRANCH  13  16
HETATM   16  C   UNL     1      -9.233   7.341  70.697  1.00  0.00    -0.157 C  
BRANCH  16  17
HETATM   17  C   UNL     1      -8.717   6.000  70.237  1.00  0.00    -0.143 A  
HETATM   18  C   UNL     1      -8.058   5.875  69.003  1.00  0.00    -0.103 A  
HETATM   19  C   UNL     1      -7.769   4.614  68.483  1.00  0.00    -0.076 A  
HETATM   20  C   UNL     1      -8.108   3.469  69.202  1.00  0.00    -0.067 A  
HETATM   21  C   UNL     1      -8.692   3.583  70.460  1.00  0.00    -0.127 A  
HETATM   22  C   UNL     1      -8.982   4.843  70.985  1.00  0.00    -0.168 A  
ENDBRANCH  16  17
ENDBRANCH  13  16
ENDBRANCH  12  13
ENDBRANCH  11  12
ENDBRANCH  10  11
ENDBRANCH   9  10
ENDBRANCH   8   9
ENDBRANCH   7   8
ENDBRANCH   6   7
ENDBRANCH   5   6
ENDBRANCH   4   5
ENDBRANCH   3   4
ENDBRANCH   2   3
TORSDOF 13
ENDMDL
MODEL      282
REMARK 921   NORMALIZED FREE ENERGY PREDICTED BY IDOCK:   -2.99 KCAL/MOL
REMARK 922        TOTAL FREE ENERGY PREDICTED BY IDOCK:   -6.73 KCAL/MOL
REMARK 923 INTER-LIGAND FREE ENERGY PREDICTED BY IDOCK:   -5.98 KCAL/MOL
REMARK 924 INTRA-LIGAND FREE ENERGY PREDICTED BY IDOCK:   -0.75 KCAL/MOL
REMARK 927      BINDING AFFINITY PREDICTED BY RF-SCORE:    0.00 PKD
ROOT
HETATM    1  C   UNL     1     -13.277  14.082  71.564  1.00  0.00    -0.431 C  
HETATM    2  C   UNL     1     -12.689  15.358  70.985  1.00  0.00    -0.510 C  
ENDROOT
BRANCH   2   3
HETATM    3  C   UNL     1     -12.041  15.096  69.628  1.00  0.00    -0.336 C  
BRANCH   3   4
HETATM    4  C   UNL     1     -11.112  13.888  69.687  1.00  0.00    -0.126 C  
BRANCH   4   5
HETATM    5  C   UNL     1     -11.514  12.850  68.643  1.00  0.00    -0.346 C  
BRANCH   5   6
HETATM    6  C   UNL     1     -11.681  13.498  67.276  1.00  0.00    -0.423 C  
BRANCH   6   7
HETATM    7  C   UNL     1     -10.667  12.948  66.278  1.00  0.00    -0.292 C  
BRANCH   7   8
HETATM    8  C   UNL     1     -11.141  11.601  65.747  1.00  0.00    -0.313 C  
BRANCH   8   9
HETATM    9  C   UNL     1      -9.997  10.804  65.128  1.00  0.00    -0.351 C  
BRANCH   9  10
HETATM   10  C   UNL     1      -9.494   9.693  66.051  1.00  0.00    -0.284 C  
BRANCH  10  11
HETATM   11  C   UNL     1     -10.496   9.234  67.117  1.00  0.00    -0.319 C  
BRANCH  11  12
HETATM   12  C   UNL     1     -10.577   7.708  67.245  1.00  0.00    -0.318 C  
BRANCH  12  13
HETATM   13  N   UNL     1     -10.344   7.195  68.680  1.00  0.00    -0.183 N  
HETATM   14  C   UNL     1     -11.141   5.920  68.931  1.00  0.00    -0.184 C  
HETATM   15  C   UNL     1      -8.864   6.921  68.922  1.00  0.00    -0.129 C  
BRANCH  13  16
HETATM   16  C   UNL     1     -10.823   8.326  69.652  1.00  0.00    -0.150 C  
BRANCH  16  17
HETATM   17  C   UNL     1     -10.101   8.380  70.976  1.00  0.00    -0.242 A  
HETATM   18  C   UNL     1      -8.857   9.025  71.085  1.00  0.00    -0.282 A  
HETATM   19  C   UNL     1      -8.096   8.896  72.245  1.00  0.00     0.169 A  
HETATM   20  C   UNL     1      -8.580   8.149  73.317  1.00  0.00    -0.308 A  
HETATM   21  C   UNL     1      -9.844   7.569  73.250  1.00  0.00    -0.343 A  
HETATM   22  C   UNL     1     -10.610   7.697  72.091  1.00  0.00    -0.281 A  
ENDBRANCH  16  17
ENDBRANCH  13  16
ENDBRANCH  12  13
ENDBRANCH  11  12
ENDBRANCH  10  11
ENDBRANCH   9  10
ENDBRANCH   8   9
ENDBRANCH   7   8
ENDBRANCH   6   7
ENDBRANCH   5   6
ENDBRANCH   4   5
ENDBRANCH   3   4
ENDBRANCH   2   3
TORSDOF 13
ENDMDL
MODEL      283
REMARK 921   NORMALIZED FREE ENERGY PREDICTED BY IDOCK:   -2.98 KCAL/MOL
REMARK 922        TOTAL FREE ENERGY PREDICTED BY IDOCK:   -6.71 KCAL/MOL
REMARK 923 INTER-LIGAND FREE ENERGY PREDICTED BY IDOCK:   -5.51 KCAL/MOL
REMARK 924 INTRA-LIGAND FREE ENERGY PREDICTED BY IDOCK:   -1.20 KCAL/MOL
REMARK 927      BINDING AFFINITY PREDICTED BY RF-SCORE:    0.00 PKD
ROOT
HETATM    1  C   UNL     1     -11.823  15.420  64.242  1.00  0.00    -0.207 C  
HETATM    2  C   UNL     1     -11.316  14.895  65.575  1.00  0.00    -0.339 C  
ENDROOT
BRANCH   2   3
HETATM    3  C   UNL     1     -12.324  13.939  66.206  1.00  0.00    -0.489 C  
BRANCH   3   4
HETATM    4  C   UNL     1     -11.633  12.694  66.754  1.00  0.00    -0.438 C  
BRANCH   4   5
HETATM    5  C   UNL     1     -11.106  11.827  65.614  1.00  0.00    -0.340 C  
BRANCH   5   6
HETATM    6  C   UNL     1      -9.635  11.495  65.826  1.00  0.00    -0.259 C  
BRANCH   6   7
HETATM    7  C   UNL     1      -9.469  10.303  66.764  1.00  0.00    -0.198 C  
BRANCH   7   8
HETATM    8  C   UNL     1     -10.587   9.296  66.524  1.00  0.00    -0.117 C  
BRANCH   8   9
HETATM    9  C   UNL     1     -10.165   7.881  66.906  1.00  0.00    -0.380 C  
BRANCH   9  10
HETATM   10  C   UNL     1      -8.850   7.467  66.245  1.00  0.00    -0.182 C  
BRANCH  10  11
HETATM   11  C   UNL     1      -7.699   7.181  67.217  1.00  0.00    -0.109 C  
BRANCH  11  12
HETATM   12  C   UNL     1      -7.967   7.704  68.633  1.00  0.00    -0.122 C  
BRANCH  12  13
HETATM   13  N   UNL     1      -6.876   8.658  69.157  1.00  0.00    -0.054 N  
HETATM   14  C   UNL     1      -5.836   7.893  69.966  1.00  0.00    -0.023 C  
HETATM   15  C   UNL     1      -6.189   9.378  68.002  1.00  0.00    -0.057 C  
BRANCH  13  16
HETATM   16  C   UNL     1      -7.592   9.715  70.067  1.00  0.00    -0.147 C  
BRANCH  16  17
HETATM   17  C   UNL     1      -8.866   9.239  70.718  1.00  0.00    -0.282 A  
HETATM   18  C   UNL     1     -10.102   9.813  70.375  1.00  0.00    -0.313 A  
HETATM   19  C   UNL     1     -11.244   9.526  71.119  1.00  0.00    -0.446 A  
HETATM   20  C   UNL     1     -11.172   8.643  72.194  1.00  0.00    -0.438 A  
HETATM   21  C   UNL     1      -9.970   8.009  72.497  1.00  0.00    -0.338 A  
HETATM   22  C   UNL     1      -8.824   8.292  71.753  1.00  0.00    -0.230 A  
ENDBRANCH  16  17
ENDBRANCH  13  16
ENDBRANCH  12  13
ENDBRANCH  11  12
ENDBRANCH  10  11
ENDBRANCH   9  10
ENDBRANCH   8   9
ENDBRANCH   7   8
ENDBRANCH   6   7
ENDBRANCH   5   6
ENDBRANCH   4   5
ENDBRANCH   3   4
ENDBRANCH   2   3
TORSDOF 13
ENDMDL
MODEL      284
REMARK 921   NORMALIZED FREE ENERGY PREDICTED BY IDOCK:   -2.95 KCAL/MOL
REMARK 922        TOTAL FREE ENERGY PREDICTED BY IDOCK:   -6.67 KCAL/MOL
REMARK 923 INTER-LIGAND FREE ENERGY PREDICTED BY IDOCK:   -5.29 KCAL/MOL
REMARK 924 INTRA-LIGAND FREE ENERGY PREDICTED BY IDOCK:   -1.38 KCAL/MOL
REMARK 927      BINDING AFFINITY PREDICTED BY RF-SCORE:    0.00 PKD
ROOT
HETATM    1  C   UNL     1     -10.522  14.369  64.839  1.00  0.00    -0.448 C  
HETATM    2  C   UNL     1     -12.033  14.418  64.688  1.00  0.00    -0.475 C  
ENDROOT
BRANCH   2   3
HETATM    3  C   UNL     1     -12.710  13.441  65.645  1.00  0.00    -0.432 C  
BRANCH   3   4
HETATM    4  C   UNL     1     -11.817  13.136  66.844  1.00  0.00    -0.444 C  
BRANCH   4   5
HETATM    5  C   UNL     1     -11.506  11.644  66.916  1.00  0.00    -0.320 C  
BRANCH   5   6
HETATM    6  C   UNL     1     -10.012  11.415  67.102  1.00  0.00    -0.217 C  
BRANCH   6   7
HETATM    7  C   UNL     1      -9.448  10.530  65.994  1.00  0.00    -0.227 C  
BRANCH   7   8
HETATM    8  C   UNL     1      -9.205   9.124  66.528  1.00  0.00    -0.221 C  
BRANCH   8   9
HETATM    9  C   UNL     1      -9.344   9.064  68.046  1.00  0.00    -0.153 C  
BRANCH   9  10
HETATM   10  C   UNL     1      -8.177   8.331  68.710  1.00  0.00    -0.117 C  
BRANCH  10  11
HETATM   11  C   UNL     1      -7.400   7.383  67.788  1.00  0.00    -0.092 C  
BRANCH  11  12
HETATM   12  C   UNL     1      -7.309   5.954  68.338  1.00  0.00    -0.084 C  
BRANCH  12  13
HETATM   13  N   UNL     1      -7.733   4.873  67.324  1.00  0.00    -0.091 N  
HETATM   14  C   UNL     1      -8.193   5.511  66.019  1.00  0.00    -0.114 C  
HETATM   15  C   UNL     1      -6.580   3.918  67.041  1.00  0.00    -0.046 C  
BRANCH  13  16
HETATM   16  C   UNL     1      -8.914   4.075  67.975  1.00  0.00    -0.121 C  
BRANCH  16  17
HETATM   17  C   UNL     1      -9.849   4.897  68.826  1.00  0.00    -0.231 A  
HETATM   18  C   UNL     1     -10.780   5.764  68.231  1.00  0.00    -0.285 A  
HETATM   19  C   UNL     1     -11.495   6.672  69.010  1.00  0.00    -0.153 A  
HETATM   20  C   UNL     1     -11.310   6.705  70.390  1.00  0.00    -0.421 A  
HETATM   21  C   UNL     1     -10.447   5.798  71.000  1.00  0.00    -0.307 A  
HETATM   22  C   UNL     1      -9.731   4.886  70.224  1.00  0.00    -0.287 A  
ENDBRANCH  16  17
ENDBRANCH  13  16
ENDBRANCH  12  13
ENDBRANCH  11  12
ENDBRANCH  10  11
ENDBRANCH   9  10
ENDBRANCH   8   9
ENDBRANCH   7   8
ENDBRANCH   6   7
ENDBRANCH   5   6
ENDBRANCH   4   5
ENDBRANCH   3   4
ENDBRANCH   2   3
TORSDOF 13
ENDMDL
MODEL      285
REMARK 921   NORMALIZED FREE ENERGY PREDICTED BY IDOCK:   -2.95 KCAL/MOL
REMARK 922        TOTAL FREE ENERGY PREDICTED BY IDOCK:   -6.66 KCAL/MOL
REMARK 923 INTER-LIGAND FREE ENERGY PREDICTED BY IDOCK:   -5.89 KCAL/MOL
REMARK 924 INTRA-LIGAND FREE ENERGY PREDICTED BY IDOCK:   -0.77 KCAL/MOL
REMARK 927      BINDING AFFINITY PREDICTED BY RF-SCORE:    0.00 PKD
ROOT
HETATM    1  C   UNL     1     -14.020  13.637  72.152  1.00  0.00    -0.609 C  
HETATM    2  C   UNL     1     -14.051  15.152  72.042  1.00  0.00    -0.659 C  
ENDROOT
BRANCH   2   3
HETATM    3  C   UNL     1     -12.641  15.718  71.886  1.00  0.00    -0.522 C  
BRANCH   3   4
HETATM    4  C   UNL     1     -11.679  14.660  71.355  1.00  0.00    -0.298 C  
BRANCH   4   5
HETATM    5  C   UNL     1     -11.140  15.064  69.985  1.00  0.00    -0.290 C  
BRANCH   5   6
HETATM    6  C   UNL     1     -10.932  16.570  69.912  1.00  0.00    -0.273 C  
BRANCH   6   7
HETATM    7  C   UNL     1     -10.327  16.978  68.573  1.00  0.00    -0.359 C  
BRANCH   7   8
HETATM    8  C   UNL     1      -8.836  16.670  68.563  1.00  0.00    -0.235 C  
BRANCH   8   9
HETATM    9  C   UNL     1      -8.422  15.915  67.304  1.00  0.00    -0.207 C  
BRANCH   9  10
HETATM   10  C   UNL     1      -9.612  15.265  66.597  1.00  0.00    -0.276 C  
BRANCH  10  11
HETATM   11  C   UNL     1      -9.533  13.739  66.467  1.00  0.00    -0.282 C  
BRANCH  11  12
HETATM   12  C   UNL     1     -10.470  13.006  67.435  1.00  0.00    -0.234 C  
BRANCH  12  13
HETATM   13  N   UNL     1     -10.317  11.472  67.401  1.00  0.00    -0.202 N  
HETATM   14  C   UNL     1      -9.145  11.030  68.268  1.00  0.00    -0.158 C  
HETATM   15  C   UNL     1     -11.592  10.792  67.888  1.00  0.00    -0.128 C  
BRANCH  13  16
HETATM   16  C   UNL     1     -10.060  11.072  65.908  1.00  0.00    -0.249 C  
BRANCH  16  17
HETATM   17  C   UNL     1      -9.077   9.945  65.708  1.00  0.00    -0.208 A  
HETATM   18  C   UNL     1      -9.441   8.620  66.000  1.00  0.00    -0.278 A  
HETATM   19  C   UNL     1      -8.479   7.612  66.016  1.00  0.00    -0.149 A  
HETATM   20  C   UNL     1      -7.152   7.910  65.714  1.00  0.00    -0.060 A  
HETATM   21  C   UNL     1      -6.793   9.205  65.349  1.00  0.00    -0.073 A  
HETATM   22  C   UNL     1      -7.753  10.216  65.330  1.00  0.00    -0.144 A  
ENDBRANCH  16  17
ENDBRANCH  13  16
ENDBRANCH  12  13
ENDBRANCH  11  12
ENDBRANCH  10  11
ENDBRANCH   9  10
ENDBRANCH   8   9
ENDBRANCH   7   8
ENDBRANCH   6   7
ENDBRANCH   5   6
ENDBRANCH   4   5
ENDBRANCH   3   4
ENDBRANCH   2   3
TORSDOF 13
ENDMDL
MODEL      286
REMARK 921   NORMALIZED FREE ENERGY PREDICTED BY IDOCK:   -2.95 KCAL/MOL
REMARK 922        TOTAL FREE ENERGY PREDICTED BY IDOCK:   -6.66 KCAL/MOL
REMARK 923 INTER-LIGAND FREE ENERGY PREDICTED BY IDOCK:   -4.46 KCAL/MOL
REMARK 924 INTRA-LIGAND FREE ENERGY PREDICTED BY IDOCK:   -2.20 KCAL/MOL
REMARK 927      BINDING AFFINITY PREDICTED BY RF-SCORE:    0.00 PKD
ROOT
HETATM    1  C   UNL     1      -7.876  11.700  68.421  1.00  0.00    -0.137 C  
HETATM    2  C   UNL     1      -9.370  11.441  68.519  1.00  0.00    -0.180 C  
ENDROOT
BRANCH   2   3
HETATM    3  C   UNL     1      -9.674  10.385  69.579  1.00  0.00    -0.196 C  
BRANCH   3   4
HETATM    4  C   UNL     1     -11.109   9.883  69.459  1.00  0.00    -0.255 C  
BRANCH   4   5
HETATM    5  C   UNL     1     -11.469   8.996  70.647  1.00  0.00    -0.291 C  
BRANCH   5   6
HETATM    6  C   UNL     1     -10.419   9.114  71.744  1.00  0.00    -0.361 C  
BRANCH   6   7
HETATM    7  C   UNL     1      -9.925   7.740  72.184  1.00  0.00    -0.249 C  
BRANCH   7   8
HETATM    8  C   UNL     1      -8.577   7.444  71.540  1.00  0.00    -0.120 C  
BRANCH   8   9
HETATM    9  C   UNL     1      -8.426   5.966  71.196  1.00  0.00    -0.124 C  
BRANCH   9  10
HETATM   10  C   UNL     1      -9.776   5.270  71.010  1.00  0.00    -0.242 C  
BRANCH  10  11
HETATM   11  C   UNL     1     -10.218   5.094  69.553  1.00  0.00    -0.318 C  
BRANCH  11  12
HETATM   12  C   UNL     1      -9.044   5.094  68.566  1.00  0.00    -0.112 C  
BRANCH  12  13
HETATM   13  N   UNL     1      -9.280   5.976  67.325  1.00  0.00    -0.114 N  
HETATM   14  C   UNL     1      -8.440   5.487  66.151  1.00  0.00    -0.122 C  
HETATM   15  C   UNL     1     -10.752   5.970  66.930  1.00  0.00    -0.334 C  
BRANCH  13  16
HETATM   16  C   UNL     1      -8.858   7.434  67.714  1.00  0.00    -0.128 C  
BRANCH  16  17
HETATM   17  C   UNL     1      -8.779   8.406  66.564  1.00  0.00    -0.151 A  
HETATM   18  C   UNL     1      -7.533   8.797  66.044  1.00  0.00    -0.089 A  
HETATM   19  C   UNL     1      -7.449   9.845  65.129  1.00  0.00    -0.133 A  
HETATM   20  C   UNL     1      -8.606  10.494  64.703  1.00  0.00    -0.167 A  
HETATM   21  C   UNL     1      -9.852  10.065  65.153  1.00  0.00    -0.388 A  
HETATM   22  C   UNL     1      -9.941   9.016  66.067  1.00  0.00    -0.246 A  
ENDBRANCH  16  17
ENDBRANCH  13  16
ENDBRANCH  12  13
ENDBRANCH  11  12
ENDBRANCH  10  11
ENDBRANCH   9  10
ENDBRANCH   8   9
ENDBRANCH   7   8
ENDBRANCH   6   7
ENDBRANCH   5   6
ENDBRANCH   4   5
ENDBRANCH   3   4
ENDBRANCH   2   3
TORSDOF 13
ENDMDL
MODEL      287
REMARK 921   NORMALIZED FREE ENERGY PREDICTED BY IDOCK:   -2.94 KCAL/MOL
REMARK 922        TOTAL FREE ENERGY PREDICTED BY IDOCK:   -6.65 KCAL/MOL
REMARK 923 INTER-LIGAND FREE ENERGY PREDICTED BY IDOCK:   -5.84 KCAL/MOL
REMARK 924 INTRA-LIGAND FREE ENERGY PREDICTED BY IDOCK:   -0.81 KCAL/MOL
REMARK 927      BINDING AFFINITY PREDICTED BY RF-SCORE:    0.00 PKD
ROOT
HETATM    1  C   UNL     1      -6.725   7.963  73.594  1.00  0.00    -0.112 C  
HETATM    2  C   UNL     1      -7.381   8.288  72.262  1.00  0.00    -0.131 C  
ENDROOT
BRANCH   2   3
HETATM    3  C   UNL     1      -6.663   7.585  71.113  1.00  0.00    -0.046 C  
BRANCH   3   4
HETATM    4  C   UNL     1      -7.440   7.731  69.808  1.00  0.00    -0.089 C  
BRANCH   4   5
HETATM    5  C   UNL     1      -7.518   9.197  69.391  1.00  0.00    -0.077 C  
BRANCH   5   6
HETATM    6  C   UNL     1      -7.412   9.333  67.878  1.00  0.00    -0.084 C  
BRANCH   6   7
HETATM    7  C   UNL     1      -8.137   8.192  67.171  1.00  0.00    -0.116 C  
BRANCH   7   8
HETATM    8  C   UNL     1      -9.142   8.755  66.175  1.00  0.00    -0.251 C  
BRANCH   8   9
HETATM    9  C   UNL     1     -10.289   9.476  66.875  1.00  0.00    -0.307 C  
BRANCH   9  10
HETATM   10  C   UNL     1     -10.428  10.930  66.422  1.00  0.00    -0.307 C  
BRANCH  10  11
HETATM   11  C   UNL     1     -10.963  11.892  67.489  1.00  0.00    -0.299 C  
BRANCH  11  12
HETATM   12  C   UNL     1      -9.991  13.035  67.807  1.00  0.00    -0.227 C  
BRANCH  12  13
HETATM   13  N   UNL     1     -10.685  14.391  68.039  1.00  0.00    -0.239 N  
HETATM   14  C   UNL     1      -9.991  15.493  67.247  1.00  0.00    -0.238 C  
HETATM   15  C   UNL     1     -12.152  14.323  67.632  1.00  0.00    -0.297 C  
BRANCH  13  16
HETATM   16  C   UNL     1     -10.591  14.695  69.573  1.00  0.00    -0.149 C  
BRANCH  16  17
HETATM   17  C   UNL     1     -11.869  14.480  70.347  1.00  0.00    -0.378 A  
HETATM   18  C   UNL     1     -12.644  15.575  70.764  1.00  0.00    -0.505 A  
HETATM   19  C   UNL     1     -13.703  15.392  71.651  1.00  0.00    -0.606 A  
HETATM   20  C   UNL     1     -14.016  14.114  72.109  1.00  0.00    -0.626 A  
HETATM   21  C   UNL     1     -13.303  13.012  71.643  1.00  0.00    -0.379 A  
HETATM   22  C   UNL     1     -12.244  13.190  70.754  1.00  0.00    -0.375 A  
ENDBRANCH  16  17
ENDBRANCH  13  16
ENDBRANCH  12  13
ENDBRANCH  11  12
ENDBRANCH  10  11
ENDBRANCH   9  10
ENDBRANCH   8   9
ENDBRANCH   7   8
ENDBRANCH   6   7
ENDBRANCH   5   6
ENDBRANCH   4   5
ENDBRANCH   3   4
ENDBRANCH   2   3
TORSDOF 13
ENDMDL
MODEL      288
REMARK 921   NORMALIZED FREE ENERGY PREDICTED BY IDOCK:   -2.94 KCAL/MOL
REMARK 922        TOTAL FREE ENERGY PREDICTED BY IDOCK:   -6.64 KCAL/MOL
REMARK 923 INTER-LIGAND FREE ENERGY PREDICTED BY IDOCK:   -5.56 KCAL/MOL
REMARK 924 INTRA-LIGAND FREE ENERGY PREDICTED BY IDOCK:   -1.08 KCAL/MOL
REMARK 927      BINDING AFFINITY PREDICTED BY RF-SCORE:    0.00 PKD
ROOT
HETATM    1  C   UNL     1      -8.971   6.002  67.562  1.00  0.00    -0.111 C  
HETATM    2  C   UNL     1      -9.477   7.418  67.345  1.00  0.00    -0.170 C  
ENDROOT
BRANCH   2   3
HETATM    3  C   UNL     1      -8.982   7.978  66.014  1.00  0.00    -0.205 C  
BRANCH   3   4
HETATM    4  C   UNL     1      -7.545   8.479  66.128  1.00  0.00    -0.089 C  
BRANCH   4   5
HETATM    5  C   UNL     1      -6.808   8.300  64.804  1.00  0.00    -0.067 C  
BRANCH   5   6
HETATM    6  C   UNL     1      -7.788   7.985  63.681  1.00  0.00    -0.142 C  
BRANCH   6   7
HETATM    7  C   UNL     1      -7.761   9.067  62.606  1.00  0.00    -0.116 C  
BRANCH   7   8
HETATM    8  C   UNL     1      -9.083   9.824  62.600  1.00  0.00    -0.297 C  
BRANCH   8   9
HETATM    9  C   UNL     1      -9.089  10.959  63.619  1.00  0.00    -0.196 C  
BRANCH   9  10
HETATM   10  C   UNL     1     -10.384  11.006  64.432  1.00  0.00    -0.424 C  
BRANCH  10  11
HETATM   11  C   UNL     1     -10.521  12.216  65.363  1.00  0.00    -0.305 C  
BRANCH  11  12
HETATM   12  C   UNL     1     -11.497  11.974  66.521  1.00  0.00    -0.349 C  
BRANCH  12  13
HETATM   13  N   UNL     1     -11.135  12.742  67.806  1.00  0.00    -0.241 N  
HETATM   14  C   UNL     1     -11.444  11.903  69.040  1.00  0.00    -0.297 C  
HETATM   15  C   UNL     1      -9.659  13.122  67.810  1.00  0.00    -0.208 C  
BRANCH  13  16
HETATM   16  C   UNL     1     -12.001  14.048  67.817  1.00  0.00    -0.357 C  
BRANCH  16  17
HETATM   17  C   UNL     1     -11.222  15.334  67.688  1.00  0.00    -0.320 A  
HETATM   18  C   UNL     1     -11.043  16.175  68.798  1.00  0.00    -0.354 A  
HETATM   19  C   UNL     1     -10.510  17.453  68.636  1.00  0.00    -0.355 A  
HETATM   20  C   UNL     1     -10.125  17.892  67.372  1.00  0.00    -0.341 A  
HETATM   21  C   UNL     1     -10.226  17.039  66.276  1.00  0.00    -0.336 A  
HETATM   22  C   UNL     1     -10.757  15.759  66.434  1.00  0.00    -0.277 A  
ENDBRANCH  16  17
ENDBRANCH  13  16
ENDBRANCH  12  13
ENDBRANCH  11  12
ENDBRANCH  10  11
ENDBRANCH   9  10
ENDBRANCH   8   9
ENDBRANCH   7   8
ENDBRANCH   6   7
ENDBRANCH   5   6
ENDBRANCH   4   5
ENDBRANCH   3   4
ENDBRANCH   2   3
TORSDOF 13
ENDMDL
MODEL      289
REMARK 921   NORMALIZED FREE ENERGY PREDICTED BY IDOCK:   -2.93 KCAL/MOL
REMARK 922        TOTAL FREE ENERGY PREDICTED BY IDOCK:   -6.64 KCAL/MOL
REMARK 923 INTER-LIGAND FREE ENERGY PREDICTED BY IDOCK:   -6.35 KCAL/MOL
REMARK 924 INTRA-LIGAND FREE ENERGY PREDICTED BY IDOCK:   -0.28 KCAL/MOL
REMARK 927      BINDING AFFINITY PREDICTED BY RF-SCORE:    0.00 PKD
ROOT
HETATM    1  C   UNL     1      -8.280   5.814  73.483  1.00  0.00    -0.112 C  
HETATM    2  C   UNL     1      -8.198   7.313  73.722  1.00  0.00    -0.164 C  
ENDROOT
BRANCH   2   3
HETATM    3  C   UNL     1      -9.542   7.984  73.448  1.00  0.00    -0.277 C  
BRANCH   3   4
HETATM    4  C   UNL     1     -10.601   6.958  73.058  1.00  0.00    -0.307 C  
BRANCH   4   5
HETATM    5  C   UNL     1     -11.495   7.503  71.949  1.00  0.00    -0.307 C  
BRANCH   5   6
HETATM    6  C   UNL     1     -10.906   7.189  70.580  1.00  0.00    -0.269 C  
BRANCH   6   7
HETATM    7  C   UNL     1      -9.697   8.072  70.285  1.00  0.00    -0.175 C  
BRANCH   7   8
HETATM    8  C   UNL     1     -10.036   9.059  69.175  1.00  0.00    -0.187 C  
BRANCH   8   9
HETATM    9  C   UNL     1     -10.634  10.348  69.728  1.00  0.00    -0.302 C  
BRANCH   9  10
HETATM   10  C   UNL     1     -12.008  10.657  69.131  1.00  0.00    -0.230 C  
BRANCH  10  11
HETATM   11  C   UNL     1     -12.398  12.140  69.137  1.00  0.00     0.091 C  
BRANCH  11  12
HETATM   12  C   UNL     1     -11.236  13.063  69.523  1.00  0.00    -0.077 C  
BRANCH  12  13
HETATM   13  N   UNL     1     -11.130  14.324  68.643  1.00  0.00    -0.242 N  
HETATM   14  C   UNL     1      -9.787  15.013  68.850  1.00  0.00    -0.233 C  
HETATM   15  C   UNL     1     -11.295  13.970  67.170  1.00  0.00    -0.331 C  
BRANCH  13  16
HETATM   16  C   UNL     1     -12.295  15.280  69.074  1.00  0.00    -0.013 C  
BRANCH  16  17
HETATM   17  C   UNL     1     -12.551  15.347  70.559  1.00  0.00    -0.471 A  
HETATM   18  C   UNL     1     -11.770  16.175  71.383  1.00  0.00    -0.506 A  
HETATM   19  C   UNL     1     -11.865  16.081  72.770  1.00  0.00    -0.584 A  
HETATM   20  C   UNL     1     -12.759  15.182  73.348  1.00  0.00    -0.661 A  
HETATM   21  C   UNL     1     -13.593  14.411  72.543  1.00  0.00    -0.598 A  
HETATM   22  C   UNL     1     -13.502  14.503  71.154  1.00  0.00    -0.396 A  
ENDBRANCH  16  17
ENDBRANCH  13  16
ENDBRANCH  12  13
ENDBRANCH  11  12
ENDBRANCH  10  11
ENDBRANCH   9  10
ENDBRANCH   8   9
ENDBRANCH   7   8
ENDBRANCH   6   7
ENDBRANCH   5   6
ENDBRANCH   4   5
ENDBRANCH   3   4
ENDBRANCH   2   3
TORSDOF 13
ENDMDL
MODEL      290
REMARK 921   NORMALIZED FREE ENERGY PREDICTED BY IDOCK:   -2.91 KCAL/MOL
REMARK 922        TOTAL FREE ENERGY PREDICTED BY IDOCK:   -6.60 KCAL/MOL
REMARK 923 INTER-LIGAND FREE ENERGY PREDICTED BY IDOCK:   -5.52 KCAL/MOL
REMARK 924 INTRA-LIGAND FREE ENERGY PREDICTED BY IDOCK:   -1.08 KCAL/MOL
REMARK 927      BINDING AFFINITY PREDICTED BY RF-SCORE:    0.00 PKD
ROOT
HETATM    1  C   UNL     1      -9.917   4.766  69.174  1.00  0.00    -0.233 C  
HETATM    2  C   UNL     1      -9.848   5.250  67.736  1.00  0.00    -0.187 C  
ENDROOT
BRANCH   2   3
HETATM    3  C   UNL     1     -10.936   6.283  67.453  1.00  0.00    -0.447 C  
BRANCH   3   4
HETATM    4  C   UNL     1     -10.482   7.684  67.850  1.00  0.00    -0.270 C  
BRANCH   4   5
HETATM    5  C   UNL     1     -10.377   8.582  66.620  1.00  0.00    -0.303 C  
BRANCH   5   6
HETATM    6  C   UNL     1      -9.003   8.454  65.976  1.00  0.00    -0.228 C  
BRANCH   6   7
HETATM    7  C   UNL     1      -7.895   8.777  66.973  1.00  0.00    -0.095 C  
BRANCH   7   8
HETATM    8  C   UNL     1      -7.328  10.161  66.687  1.00  0.00    -0.106 C  
BRANCH   8   9
HETATM    9  C   UNL     1      -7.756  11.177  67.742  1.00  0.00    -0.112 C  
BRANCH   9  10
HETATM   10  C   UNL     1      -8.342  12.447  67.124  1.00  0.00    -0.181 C  
BRANCH  10  11
HETATM   11  C   UNL     1      -9.700  12.266  66.436  1.00  0.00    -0.243 C  
BRANCH  11  12
HETATM   12  C   UNL     1     -10.066  13.436  65.515  1.00  0.00    -0.266 C  
BRANCH  12  13
HETATM   13  N   UNL     1     -11.571  13.769  65.506  1.00  0.00    -0.318 N  
HETATM   14  C   UNL     1     -11.897  14.755  64.391  1.00  0.00    -0.380 C  
HETATM   15  C   UNL     1     -12.402  12.504  65.322  1.00  0.00    -0.403 C  
BRANCH  13  16
HETATM   16  C   UNL     1     -11.906  14.405  66.898  1.00  0.00    -0.410 C  
BRANCH  16  17
HETATM   17  C   UNL     1     -10.990  15.524  67.328  1.00  0.00    -0.303 A  
HETATM   18  C   UNL     1     -10.186  15.389  68.472  1.00  0.00    -0.219 A  
HETATM   19  C   UNL     1      -9.502  16.489  68.986  1.00  0.00    -0.249 A  
HETATM   20  C   UNL     1      -9.591  17.725  68.350  1.00  0.00    -0.323 A  
HETATM   21  C   UNL     1     -10.323  17.853  67.173  1.00  0.00    -0.371 A  
HETATM   22  C   UNL     1     -11.007  16.754  66.653  1.00  0.00     0.133 A  
ENDBRANCH  16  17
ENDBRANCH  13  16
ENDBRANCH  12  13
ENDBRANCH  11  12
ENDBRANCH  10  11
ENDBRANCH   9  10
ENDBRANCH   8   9
ENDBRANCH   7   8
ENDBRANCH   6   7
ENDBRANCH   5   6
ENDBRANCH   4   5
ENDBRANCH   3   4
ENDBRANCH   2   3
TORSDOF 13
ENDMDL
MODEL      291
REMARK 921   NORMALIZED FREE ENERGY PREDICTED BY IDOCK:   -2.91 KCAL/MOL
REMARK 922        TOTAL FREE ENERGY PREDICTED BY IDOCK:   -6.59 KCAL/MOL
REMARK 923 INTER-LIGAND FREE ENERGY PREDICTED BY IDOCK:   -6.35 KCAL/MOL
REMARK 924 INTRA-LIGAND FREE ENERGY PREDICTED BY IDOCK:   -0.24 KCAL/MOL
REMARK 927      BINDING AFFINITY PREDICTED BY RF-SCORE:    0.00 PKD
ROOT
HETATM    1  C   UNL     1      -9.915  19.810  68.990  1.00  0.00    -0.443 C  
HETATM    2  C   UNL     1     -10.397  19.723  67.552  1.00  0.00    -0.578 C  
ENDROOT
BRANCH   2   3
HETATM    3  C   UNL     1      -9.458  18.862  66.711  1.00  0.00    -0.352 C  
BRANCH   3   4
HETATM    4  C   UNL     1      -9.255  17.489  67.345  1.00  0.00    -0.238 C  
BRANCH   4   5
HETATM    5  C   UNL     1     -10.495  16.620  67.151  1.00  0.00    -0.300 C  
BRANCH   5   6
HETATM    6  C   UNL     1     -10.722  16.329  65.674  1.00  0.00    -0.297 C  
BRANCH   6   7
HETATM    7  C   UNL     1     -10.344  14.891  65.331  1.00  0.00    -0.413 C  
BRANCH   7   8
HETATM    8  C   UNL     1     -11.416  13.938  65.842  1.00  0.00    -0.328 C  
BRANCH   8   9
HETATM    9  C   UNL     1     -10.815  12.636  66.361  1.00  0.00    -0.295 C  
BRANCH   9  10
HETATM   10  C   UNL     1     -10.952  12.494  67.878  1.00  0.00    -0.262 C  
BRANCH  10  11
HETATM   11  C   UNL     1     -10.052  11.428  68.513  1.00  0.00    -0.211 C  
BRANCH  11  12
HETATM   12  C   UNL     1     -10.714  10.046  68.577  1.00  0.00    -0.231 C  
BRANCH  12  13
HETATM   13  N   UNL     1      -9.716   8.876  68.483  1.00  0.00    -0.158 N  
HETATM   14  C   UNL     1      -9.008   8.880  67.134  1.00  0.00    -0.127 C  
HETATM   15  C   UNL     1      -8.679   8.960  69.598  1.00  0.00    -0.140 C  
BRANCH  13  16
HETATM   16  C   UNL     1     -10.543   7.556  68.650  1.00  0.00    -0.142 C  
BRANCH  16  17
HETATM   17  C   UNL     1     -10.844   7.165  70.076  1.00  0.00    -0.276 A  
HETATM   18  C   UNL     1     -11.438   8.082  70.958  1.00  0.00    -0.300 A  
HETATM   19  C   UNL     1     -11.524   7.797  72.319  1.00  0.00    -0.384 A  
HETATM   20  C   UNL     1     -11.044   6.584  72.809  1.00  0.00    -0.279 A  
HETATM   21  C   UNL     1     -10.523   5.635  71.934  1.00  0.00    -0.279 A  
HETATM   22  C   UNL     1     -10.437   5.916  70.570  1.00  0.00    -0.319 A  
ENDBRANCH  16  17
ENDBRANCH  13  16
ENDBRANCH  12  13
ENDBRANCH  11  12
ENDBRANCH  10  11
ENDBRANCH   9  10
ENDBRANCH   8   9
ENDBRANCH   7   8
ENDBRANCH   6   7
ENDBRANCH   5   6
ENDBRANCH   4   5
ENDBRANCH   3   4
ENDBRANCH   2   3
TORSDOF 13
ENDMDL
MODEL      292
REMARK 921   NORMALIZED FREE ENERGY PREDICTED BY IDOCK:   -2.91 KCAL/MOL
REMARK 922        TOTAL FREE ENERGY PREDICTED BY IDOCK:   -6.59 KCAL/MOL
REMARK 923 INTER-LIGAND FREE ENERGY PREDICTED BY IDOCK:   -5.26 KCAL/MOL
REMARK 924 INTRA-LIGAND FREE ENERGY PREDICTED BY IDOCK:   -1.33 KCAL/MOL
REMARK 927      BINDING AFFINITY PREDICTED BY RF-SCORE:    0.00 PKD
ROOT
HETATM    1  C   UNL     1      -9.914  10.476  64.621  1.00  0.00    -0.415 C  
HETATM    2  C   UNL     1      -8.462  10.051  64.765  1.00  0.00    -0.180 C  
ENDROOT
BRANCH   2   3
HETATM    3  C   UNL     1      -8.358   8.656  65.376  1.00  0.00    -0.165 C  
BRANCH   3   4
HETATM    4  C   UNL     1      -9.273   8.517  66.588  1.00  0.00    -0.223 C  
BRANCH   4   5
HETATM    5  C   UNL     1      -8.640   7.607  67.637  1.00  0.00    -0.116 C  
BRANCH   5   6
HETATM    6  C   UNL     1      -7.692   8.395  68.531  1.00  0.00    -0.104 C  
BRANCH   6   7
HETATM    7  C   UNL     1      -8.461   9.307  69.481  1.00  0.00    -0.144 C  
BRANCH   7   8
HETATM    8  C   UNL     1      -7.872  10.711  69.440  1.00  0.00    -0.126 C  
BRANCH   8   9
HETATM    9  C   UNL     1      -7.081  10.956  68.159  1.00  0.00    -0.077 C  
BRANCH   9  10
HETATM   10  C   UNL     1      -7.449  12.282  67.491  1.00  0.00    -0.149 C  
BRANCH  10  11
HETATM   11  C   UNL     1      -8.829  12.836  67.867  1.00  0.00    -0.186 C  
BRANCH  11  12
HETATM   12  C   UNL     1      -8.809  14.339  68.167  1.00  0.00    -0.183 C  
BRANCH  12  13
HETATM   13  N   UNL     1     -10.196  15.006  68.078  1.00  0.00    -0.226 N  
HETATM   14  C   UNL     1     -10.551  15.315  66.629  1.00  0.00    -0.304 C  
HETATM   15  C   UNL     1     -11.267  14.105  68.680  1.00  0.00    -0.266 C  
BRANCH  13  16
HETATM   16  C   UNL     1     -10.117  16.334  68.905  1.00  0.00    -0.251 C  
BRANCH  16  17
HETATM   17  C   UNL     1      -9.652  17.544  68.132  1.00  0.00    -0.294 A  
HETATM   18  C   UNL     1      -8.292  17.715  67.824  1.00  0.00    -0.226 A  
HETATM   19  C   UNL     1      -7.836  18.923  67.299  1.00  0.00    -0.250 A  
HETATM   20  C   UNL     1      -8.733  19.958  67.049  1.00  0.00    -0.402 A  
HETATM   21  C   UNL     1     -10.094  19.773  67.278  1.00  0.00    -0.549 A  
HETATM   22  C   UNL     1     -10.556  18.566  67.802  1.00  0.00    -0.422 A  
ENDBRANCH  16  17
ENDBRANCH  13  16
ENDBRANCH  12  13
ENDBRANCH  11  12
ENDBRANCH  10  11
ENDBRANCH   9  10
ENDBRANCH   8   9
ENDBRANCH   7   8
ENDBRANCH   6   7
ENDBRANCH   5   6
ENDBRANCH   4   5
ENDBRANCH   3   4
ENDBRANCH   2   3
TORSDOF 13
ENDMDL
MODEL      293
REMARK 921   NORMALIZED FREE ENERGY PREDICTED BY IDOCK:   -2.90 KCAL/MOL
REMARK 922        TOTAL FREE ENERGY PREDICTED BY IDOCK:   -6.58 KCAL/MOL
REMARK 923 INTER-LIGAND FREE ENERGY PREDICTED BY IDOCK:   -6.05 KCAL/MOL
REMARK 924 INTRA-LIGAND FREE ENERGY PREDICTED BY IDOCK:   -0.54 KCAL/MOL
REMARK 927      BINDING AFFINITY PREDICTED BY RF-SCORE:    0.00 PKD
ROOT
HETATM    1  C   UNL     1     -14.146  13.670  72.346  1.00  0.00    -0.586 C  
HETATM    2  C   UNL     1     -14.237  15.048  71.712  1.00  0.00    -0.649 C  
ENDROOT
BRANCH   2   3
HETATM    3  C   UNL     1     -13.005  15.341  70.860  1.00  0.00    -0.522 C  
BRANCH   3   4
HETATM    4  C   UNL     1     -12.005  14.190  70.925  1.00  0.00    -0.371 C  
BRANCH   4   5
HETATM    5  C   UNL     1     -12.005  13.404  69.617  1.00  0.00    -0.386 C  
BRANCH   5   6
HETATM    6  C   UNL     1     -12.021  14.348  68.422  1.00  0.00    -0.328 C  
BRANCH   6   7
HETATM    7  C   UNL     1     -11.522  13.650  67.161  1.00  0.00    -0.367 C  
BRANCH   7   8
HETATM    8  C   UNL     1     -10.007  13.500  67.217  1.00  0.00    -0.236 C  
BRANCH   8   9
HETATM    9  C   UNL     1      -9.562  12.096  66.821  1.00  0.00    -0.216 C  
BRANCH   9  10
HETATM   10  C   UNL     1     -10.532  11.018  67.309  1.00  0.00    -0.270 C  
BRANCH  10  11
HETATM   11  C   UNL     1      -9.867   9.770  67.902  1.00  0.00    -0.176 C  
BRANCH  11  12
HETATM   12  C   UNL     1      -9.685   9.855  69.423  1.00  0.00    -0.214 C  
BRANCH  12  13
HETATM   13  N   UNL     1      -8.905   8.667  70.019  1.00  0.00    -0.138 N  
HETATM   14  C   UNL     1      -8.201   7.880  68.920  1.00  0.00    -0.126 C  
HETATM   15  C   UNL     1      -7.875   9.152  71.033  1.00  0.00    -0.116 C  
BRANCH  13  16
HETATM   16  C   UNL     1      -9.951   7.754  70.746  1.00  0.00    -0.181 C  
BRANCH  16  17
HETATM   17  C   UNL     1      -9.668   6.274  70.673  1.00  0.00    -0.199 A  
HETATM   18  C   UNL     1      -8.921   5.639  71.679  1.00  0.00    -0.143 A  
HETATM   19  C   UNL     1      -8.484   4.326  71.509  1.00  0.00    -0.106 A  
HETATM   20  C   UNL     1      -8.810   3.627  70.349  1.00  0.00    -0.144 A  
HETATM   21  C   UNL     1      -9.615   4.220  69.380  1.00  0.00    -0.267 A  
HETATM   22  C   UNL     1     -10.056   5.532  69.546  1.00  0.00    -0.305 A  
ENDBRANCH  16  17
ENDBRANCH  13  16
ENDBRANCH  12  13
ENDBRANCH  11  12
ENDBRANCH  10  11
ENDBRANCH   9  10
ENDBRANCH   8   9
ENDBRANCH   7   8
ENDBRANCH   6   7
ENDBRANCH   5   6
ENDBRANCH   4   5
ENDBRANCH   3   4
ENDBRANCH   2   3
TORSDOF 13
ENDMDL
MODEL      294
REMARK 921   NORMALIZED FREE ENERGY PREDICTED BY IDOCK:   -2.89 KCAL/MOL
REMARK 922        TOTAL FREE ENERGY PREDICTED BY IDOCK:   -6.56 KCAL/MOL
REMARK 923 INTER-LIGAND FREE ENERGY PREDICTED BY IDOCK:   -5.42 KCAL/MOL
REMARK 924 INTRA-LIGAND FREE ENERGY PREDICTED BY IDOCK:   -1.14 KCAL/MOL
REMARK 927      BINDING AFFINITY PREDICTED BY RF-SCORE:    0.00 PKD
ROOT
HETATM    1  C   UNL     1     -12.190  13.468  70.373  1.00  0.00    -0.426 C  
HETATM    2  C   UNL     1     -11.662  14.263  69.192  1.00  0.00    -0.360 C  
ENDROOT
BRANCH   2   3
HETATM    3  C   UNL     1     -12.147  13.671  67.871  1.00  0.00    -0.318 C  
BRANCH   3   4
HETATM    4  C   UNL     1     -11.907  12.165  67.822  1.00  0.00    -0.327 C  
BRANCH   4   5
HETATM    5  C   UNL     1     -11.316  11.759  66.475  1.00  0.00    -0.370 C  
BRANCH   5   6
HETATM    6  C   UNL     1     -10.255  12.757  66.031  1.00  0.00    -0.290 C  
BRANCH   6   7
HETATM    7  C   UNL     1      -8.912  12.465  66.695  1.00  0.00    -0.184 C  
BRANCH   7   8
HETATM    8  C   UNL     1      -8.588  10.982  66.576  1.00  0.00    -0.165 C  
BRANCH   8   9
HETATM    9  C   UNL     1      -7.923  10.446  67.839  1.00  0.00    -0.102 C  
BRANCH   9  10
HETATM   10  C   UNL     1      -8.912  10.281  68.994  1.00  0.00    -0.175 C  
BRANCH  10  11
HETATM   11  C   UNL     1      -9.718   8.977  68.975  1.00  0.00    -0.167 C  
BRANCH  11  12
HETATM   12  C   UNL     1     -10.900   8.990  69.952  1.00  0.00    -0.218 C  
BRANCH  12  13
HETATM   13  N   UNL     1     -10.835   7.877  71.016  1.00  0.00    -0.232 N  
HETATM   14  C   UNL     1     -11.140   8.438  72.400  1.00  0.00    -0.361 C  
HETATM   15  C   UNL     1     -11.824   6.763  70.694  1.00  0.00    -0.387 C  
BRANCH  13  16
HETATM   16  C   UNL     1      -9.380   7.297  70.982  1.00  0.00    -0.158 C  
BRANCH  16  17
HETATM   17  C   UNL     1      -9.291   5.797  70.856  1.00  0.00    -0.185 A  
HETATM   18  C   UNL     1      -9.085   5.196  69.603  1.00  0.00    -0.153 A  
HETATM   19  C   UNL     1      -9.212   3.816  69.454  1.00  0.00    -0.226 A  
HETATM   20  C   UNL     1      -9.517   3.021  70.556  1.00  0.00    -0.221 A  
HETATM   21  C   UNL     1      -9.648   3.596  71.817  1.00  0.00    -0.221 A  
HETATM   22  C   UNL     1      -9.520   4.976  71.971  1.00  0.00    -0.180 A  
ENDBRANCH  16  17
ENDBRANCH  13  16
ENDBRANCH  12  13
ENDBRANCH  11  12
ENDBRANCH  10  11
ENDBRANCH   9  10
ENDBRANCH   8   9
ENDBRANCH   7   8
ENDBRANCH   6   7
ENDBRANCH   5   6
ENDBRANCH   4   5
ENDBRANCH   3   4
ENDBRANCH   2   3
TORSDOF 13
ENDMDL
MODEL      295
REMARK 921   NORMALIZED FREE ENERGY PREDICTED BY IDOCK:   -2.89 KCAL/MOL
REMARK 922        TOTAL FREE ENERGY PREDICTED BY IDOCK:   -6.56 KCAL/MOL
REMARK 923 INTER-LIGAND FREE ENERGY PREDICTED BY IDOCK:   -5.86 KCAL/MOL
REMARK 924 INTRA-LIGAND FREE ENERGY PREDICTED BY IDOCK:   -0.70 KCAL/MOL
REMARK 927      BINDING AFFINITY PREDICTED BY RF-SCORE:    0.00 PKD
ROOT
HETATM    1  C   UNL     1     -10.558  14.103  65.018  1.00  0.00    -0.436 C  
HETATM    2  C   UNL     1     -11.526  13.547  66.049  1.00  0.00    -0.345 C  
ENDROOT
BRANCH   2   3
HETATM    3  C   UNL     1     -11.848  14.589  67.116  1.00  0.00    -0.412 C  
BRANCH   3   4
HETATM    4  C   UNL     1     -11.583  14.044  68.516  1.00  0.00    -0.357 C  
BRANCH   4   5
HETATM    5  C   UNL     1     -11.727  12.525  68.537  1.00  0.00    -0.369 C  
BRANCH   5   6
HETATM    6  C   UNL     1     -11.789  12.009  69.968  1.00  0.00    -0.392 C  
BRANCH   6   7
HETATM    7  C   UNL     1     -12.529  10.677  70.043  1.00  0.00    -0.294 C  
BRANCH   7   8
HETATM    8  C   UNL     1     -13.247  10.557  71.380  1.00  0.00    -0.441 C  
BRANCH   8   9
HETATM    9  C   UNL     1     -12.899   9.255  72.094  1.00  0.00    -0.485 C  
BRANCH   9  10
HETATM   10  C   UNL     1     -11.712   8.536  71.450  1.00  0.00    -0.346 C  
BRANCH  10  11
HETATM   11  C   UNL     1     -11.886   7.022  71.284  1.00  0.00    -0.371 C  
BRANCH  11  12
HETATM   12  C   UNL     1     -11.380   6.506  69.932  1.00  0.00    -0.406 C  
BRANCH  12  13
HETATM   13  N   UNL     1     -10.002   5.819  70.008  1.00  0.00    -0.178 N  
HETATM   14  C   UNL     1      -9.757   5.259  71.404  1.00  0.00    -0.164 C  
HETATM   15  C   UNL     1      -9.904   4.692  68.987  1.00  0.00    -0.154 C  
BRANCH  13  16
HETATM   16  C   UNL     1      -8.929   6.910  69.674  1.00  0.00    -0.144 C  
BRANCH  16  17
HETATM   17  C   UNL     1      -7.929   7.183  70.770  1.00  0.00    -0.100 A  
HETATM   18  C   UNL     1      -6.790   6.374  70.914  1.00  0.00    -0.063 A  
HETATM   19  C   UNL     1      -5.981   6.491  72.044  1.00  0.00    -0.038 A  
HETATM   20  C   UNL     1      -6.284   7.433  73.024  1.00  0.00    -0.059 A  
HETATM   21  C   UNL     1      -7.367   8.292  72.855  1.00  0.00    -0.146 A  
HETATM   22  C   UNL     1      -8.178   8.180  71.726  1.00  0.00    -0.165 A  
ENDBRANCH  16  17
ENDBRANCH  13  16
ENDBRANCH  12  13
ENDBRANCH  11  12
ENDBRANCH  10  11
ENDBRANCH   9  10
ENDBRANCH   8   9
ENDBRANCH   7   8
ENDBRANCH   6   7
ENDBRANCH   5   6
ENDBRANCH   4   5
ENDBRANCH   3   4
ENDBRANCH   2   3
TORSDOF 13
ENDMDL
MODEL      296
REMARK 921   NORMALIZED FREE ENERGY PREDICTED BY IDOCK:   -2.88 KCAL/MOL
REMARK 922        TOTAL FREE ENERGY PREDICTED BY IDOCK:   -6.54 KCAL/MOL
REMARK 923 INTER-LIGAND FREE ENERGY PREDICTED BY IDOCK:   -6.78 KCAL/MOL
REMARK 924 INTRA-LIGAND FREE ENERGY PREDICTED BY IDOCK:    0.24 KCAL/MOL
REMARK 927      BINDING AFFINITY PREDICTED BY RF-SCORE:    0.00 PKD
ROOT
HETATM    1  C   UNL     1     -12.395  10.449  70.644  1.00  0.00    -0.438 C  
HETATM    2  C   UNL     1     -13.499   9.716  71.388  1.00  0.00    -0.403 C  
ENDROOT
BRANCH   2   3
HETATM    3  C   UNL     1     -12.995   8.387  71.943  1.00  0.00    -0.381 C  
BRANCH   3   4
HETATM    4  C   UNL     1     -11.473   8.376  72.051  1.00  0.00    -0.418 C  
BRANCH   4   5
HETATM    5  C   UNL     1     -10.913   7.028  71.606  1.00  0.00    -0.258 C  
BRANCH   5   6
HETATM    6  C   UNL     1     -11.455   6.646  70.236  1.00  0.00    -0.449 C  
BRANCH   6   7
HETATM    7  C   UNL     1     -10.330   6.535  69.211  1.00  0.00    -0.237 C  
BRANCH   7   8
HETATM    8  C   UNL     1     -10.915   6.288  67.826  1.00  0.00    -0.427 C  
BRANCH   8   9
HETATM    9  C   UNL     1     -10.537   7.395  66.847  1.00  0.00    -0.375 C  
BRANCH   9  10
HETATM   10  C   UNL     1     -10.503   8.773  67.510  1.00  0.00    -0.340 C  
BRANCH  10  11
HETATM   11  C   UNL     1     -10.219   9.942  66.559  1.00  0.00    -0.292 C  
BRANCH  11  12
HETATM   12  C   UNL     1     -11.175  11.124  66.762  1.00  0.00    -0.143 C  
BRANCH  12  13
HETATM   13  N   UNL     1     -10.506  12.500  66.570  1.00  0.00    -0.236 N  
HETATM   14  C   UNL     1      -9.430  12.429  65.493  1.00  0.00     0.020 C  
HETATM   15  C   UNL     1     -11.539  13.552  66.183  1.00  0.00    -0.343 C  
BRANCH  13  16
HETATM   16  C   UNL     1      -9.864  12.891  67.944  1.00  0.00    -0.227 C  
BRANCH  16  17
HETATM   17  C   UNL     1     -10.783  13.612  68.898  1.00  0.00    -0.237 A  
HETATM   18  C   UNL     1     -11.610  12.891  69.775  1.00  0.00    -0.288 A  
HETATM   19  C   UNL     1     -12.604  13.543  70.503  1.00  0.00    -0.311 A  
HETATM   20  C   UNL     1     -12.764  14.922  70.385  1.00  0.00    -0.370 A  
HETATM   21  C   UNL     1     -11.901  15.658  69.578  1.00  0.00    -0.387 A  
HETATM   22  C   UNL     1     -10.904  15.009  68.849  1.00  0.00    -0.243 A  
ENDBRANCH  16  17
ENDBRANCH  13  16
ENDBRANCH  12  13
ENDBRANCH  11  12
ENDBRANCH  10  11
ENDBRANCH   9  10
ENDBRANCH   8   9
ENDBRANCH   7   8
ENDBRANCH   6   7
ENDBRANCH   5   6
ENDBRANCH   4   5
ENDBRANCH   3   4
ENDBRANCH   2   3
TORSDOF 13
ENDMDL
MODEL      297
REMARK 921   NORMALIZED FREE ENERGY PREDICTED BY IDOCK:   -2.88 KCAL/MOL
REMARK 922        TOTAL FREE ENERGY PREDICTED BY IDOCK:   -6.54 KCAL/MOL
REMARK 923 INTER-LIGAND FREE ENERGY PREDICTED BY IDOCK:   -5.60 KCAL/MOL
REMARK 924 INTRA-LIGAND FREE ENERGY PREDICTED BY IDOCK:   -0.94 KCAL/MOL
REMARK 927      BINDING AFFINITY PREDICTED BY RF-SCORE:    0.00 PKD
ROOT
HETATM    1  C   UNL     1      -7.766  11.205  68.958  1.00  0.00    -0.114 C  
HETATM    2  C   UNL     1      -8.626  10.205  68.203  1.00  0.00    -0.118 C  
ENDROOT
BRANCH   2   3
HETATM    3  C   UNL     1      -8.761  10.599  66.734  1.00  0.00    -0.133 C  
BRANCH   3   4
HETATM    4  C   UNL     1     -10.131  11.209  66.452  1.00  0.00    -0.269 C  
BRANCH   4   5
HETATM    5  C   UNL     1     -11.130  10.808  67.533  1.00  0.00    -0.374 C  
BRANCH   5   6
HETATM    6  C   UNL     1     -11.711  12.041  68.213  1.00  0.00    -0.396 C  
BRANCH   6   7
HETATM    7  C   UNL     1     -10.930  13.296  67.838  1.00  0.00    -0.270 C  
BRANCH   7   8
HETATM    8  C   UNL     1     -11.875  14.340  67.258  1.00  0.00    -0.444 C  
BRANCH   8   9
HETATM    9  C   UNL     1     -11.118  15.446  66.531  1.00  0.00    -0.227 C  
BRANCH   9  10
HETATM   10  C   UNL     1      -9.622  15.150  66.415  1.00  0.00    -0.309 C  
BRANCH  10  11
HETATM   11  C   UNL     1      -8.704  16.184  67.080  1.00  0.00    -0.228 C  
BRANCH  11  12
HETATM   12  C   UNL     1      -8.587  17.485  66.275  1.00  0.00    -0.199 C  
BRANCH  12  13
HETATM   13  N   UNL     1      -9.314  18.680  66.923  1.00  0.00    -0.294 N  
HETATM   14  C   UNL     1     -10.529  19.082  66.096  1.00  0.00    -0.467 C  
HETATM   15  C   UNL     1      -9.758  18.338  68.340  1.00  0.00    -0.357 C  
BRANCH  13  16
HETATM   16  C   UNL     1      -8.288  19.863  66.978  1.00  0.00    -0.319 C  
BRANCH  16  17
HETATM   17  C   UNL     1      -7.221  19.735  68.037  1.00  0.00    -0.321 A  
HETATM   18  C   UNL     1      -6.092  18.928  67.819  1.00  0.00    -0.204 A  
HETATM   19  C   UNL     1      -5.216  18.644  68.865  1.00  0.00    -0.189 A  
HETATM   20  C   UNL     1      -5.442  19.184  70.129  1.00  0.00    -0.242 A  
HETATM   21  C   UNL     1      -6.514  20.047  70.338  1.00  0.00    -0.264 A  
HETATM   22  C   UNL     1      -7.392  20.335  69.293  1.00  0.00     0.136 A  
ENDBRANCH  16  17
ENDBRANCH  13  16
ENDBRANCH  12  13
ENDBRANCH  11  12
ENDBRANCH  10  11
ENDBRANCH   9  10
ENDBRANCH   8   9
ENDBRANCH   7   8
ENDBRANCH   6   7
ENDBRANCH   5   6
ENDBRANCH   4   5
ENDBRANCH   3   4
ENDBRANCH   2   3
TORSDOF 13
ENDMDL
MODEL      298
REMARK 921   NORMALIZED FREE ENERGY PREDICTED BY IDOCK:   -2.88 KCAL/MOL
REMARK 922        TOTAL FREE ENERGY PREDICTED BY IDOCK:   -6.54 KCAL/MOL
REMARK 923 INTER-LIGAND FREE ENERGY PREDICTED BY IDOCK:   -6.04 KCAL/MOL
REMARK 924 INTRA-LIGAND FREE ENERGY PREDICTED BY IDOCK:   -0.51 KCAL/MOL
REMARK 927      BINDING AFFINITY PREDICTED BY RF-SCORE:    0.00 PKD
ROOT
HETATM    1  C   UNL     1     -12.258  12.647  63.543  1.00  0.00    -0.638 C  
HETATM    2  C   UNL     1     -11.000  11.797  63.605  1.00  0.00    -0.513 C  
ENDROOT
BRANCH   2   3
HETATM    3  C   UNL     1     -10.447  11.740  65.027  1.00  0.00    -0.332 C  
BRANCH   3   4
HETATM    4  C   UNL     1     -10.000  10.326  65.387  1.00  0.00    -0.371 C  
BRANCH   4   5
HETATM    5  C   UNL     1     -10.462   9.959  66.794  1.00  0.00    -0.261 C  
BRANCH   5   6
HETATM    6  C   UNL     1      -9.274   9.591  67.672  1.00  0.00    -0.138 C  
BRANCH   6   7
HETATM    7  C   UNL     1      -9.598   8.399  68.567  1.00  0.00    -0.155 C  
BRANCH   7   8
HETATM    8  C   UNL     1      -9.221   7.103  67.860  1.00  0.00    -0.129 C  
BRANCH   8   9
HETATM    9  C   UNL     1      -8.671   6.067  68.835  1.00  0.00    -0.122 C  
BRANCH   9  10
HETATM   10  C   UNL     1      -9.393   4.723  68.726  1.00  0.00    -0.187 C  
BRANCH  10  11
HETATM   11  C   UNL     1      -9.706   4.046  70.066  1.00  0.00    -0.264 C  
BRANCH  11  12
HETATM   12  C   UNL     1     -10.270   5.017  71.110  1.00  0.00    -0.211 C  
BRANCH  12  13
HETATM   13  N   UNL     1      -9.874   4.667  72.558  1.00  0.00    -0.153 N  
HETATM   14  C   UNL     1     -10.715   3.508  73.080  1.00  0.00    -0.172 C  
HETATM   15  C   UNL     1      -8.398   4.296  72.639  1.00  0.00    -0.101 C  
BRANCH  13  16
HETATM   16  C   UNL     1     -10.131   5.947  73.424  1.00  0.00    -0.198 C  
BRANCH  16  17
HETATM   17  C   UNL     1     -10.870   7.058  72.720  1.00  0.00    -0.321 A  
HETATM   18  C   UNL     1     -12.143   6.832  72.171  1.00  0.00    -0.289 A  
HETATM   19  C   UNL     1     -12.734   7.787  71.345  1.00  0.00    -0.333 A  
HETATM   20  C   UNL     1     -12.074   8.985  71.082  1.00  0.00    -0.345 A  
HETATM   21  C   UNL     1     -10.847   9.253  71.682  1.00  0.00    -0.418 A  
HETATM   22  C   UNL     1     -10.253   8.301  72.511  1.00  0.00    -0.386 A  
ENDBRANCH  16  17
ENDBRANCH  13  16
ENDBRANCH  12  13
ENDBRANCH  11  12
ENDBRANCH  10  11
ENDBRANCH   9  10
ENDBRANCH   8   9
ENDBRANCH   7   8
ENDBRANCH   6   7
ENDBRANCH   5   6
ENDBRANCH   4   5
ENDBRANCH   3   4
ENDBRANCH   2   3
TORSDOF 13
ENDMDL
MODEL      299
REMARK 921   NORMALIZED FREE ENERGY PREDICTED BY IDOCK:   -2.87 KCAL/MOL
REMARK 922        TOTAL FREE ENERGY PREDICTED BY IDOCK:   -6.53 KCAL/MOL
REMARK 923 INTER-LIGAND FREE ENERGY PREDICTED BY IDOCK:   -5.32 KCAL/MOL
REMARK 924 INTRA-LIGAND FREE ENERGY PREDICTED BY IDOCK:   -1.21 KCAL/MOL
REMARK 927      BINDING AFFINITY PREDICTED BY RF-SCORE:    0.00 PKD
ROOT
HETATM    1  C   UNL     1     -10.095   8.984  66.187  1.00  0.00    -0.242 C  
HETATM    2  C   UNL     1      -9.806   7.559  66.629  1.00  0.00    -0.274 C  
ENDROOT
BRANCH   2   3
HETATM    3  C   UNL     1      -8.572   7.006  65.921  1.00  0.00    -0.152 C  
BRANCH   3   4
HETATM    4  C   UNL     1      -8.724   5.515  65.633  1.00  0.00    -0.153 C  
BRANCH   4   5
HETATM    5  C   UNL     1      -7.471   4.756  66.056  1.00  0.00    -0.078 C  
BRANCH   5   6
HETATM    6  C   UNL     1      -7.841   3.467  66.779  1.00  0.00    -0.080 C  
BRANCH   6   7
HETATM    7  C   UNL     1      -9.307   3.473  67.200  1.00  0.00    -0.229 C  
BRANCH   7   8
HETATM    8  C   UNL     1      -9.409   3.416  68.718  1.00  0.00    -0.234 C  
BRANCH   8   9
HETATM    9  C   UNL     1      -9.137   4.776  69.354  1.00  0.00    -0.152 C  
BRANCH   9  10
HETATM   10  C   UNL     1     -10.283   5.238  70.256  1.00  0.00    -0.345 C  
BRANCH  10  11
HETATM   11  C   UNL     1     -11.255   6.232  69.610  1.00  0.00    -0.506 C  
BRANCH  11  12
HETATM   12  C   UNL     1     -10.995   7.683  70.030  1.00  0.00    -0.228 C  
BRANCH  12  13
HETATM   13  N   UNL     1     -11.851   8.144  71.227  1.00  0.00    -0.285 N  
HETATM   14  C   UNL     1     -13.102   7.283  71.356  1.00  0.00    -0.361 C  
HETATM   15  C   UNL     1     -11.051   8.071  72.522  1.00  0.00    -0.375 C  
BRANCH  13  16
HETATM   16  C   UNL     1     -12.252   9.634  70.954  1.00  0.00    -0.285 C  
BRANCH  16  17
HETATM   17  C   UNL     1     -11.414  10.343  69.919  1.00  0.00    -0.368 A  
HETATM   18  C   UNL     1     -10.012  10.340  70.011  1.00  0.00    -0.123 A  
HETATM   19  C   UNL     1      -9.250  11.163  69.184  1.00  0.00     0.038 A  
HETATM   20  C   UNL     1      -9.876  11.973  68.239  1.00  0.00    -0.204 A  
HETATM   21  C   UNL     1     -11.259  11.927  68.086  1.00  0.00    -0.316 A  
HETATM   22  C   UNL     1     -12.025  11.104  68.911  1.00  0.00    -0.367 A  
ENDBRANCH  16  17
ENDBRANCH  13  16
ENDBRANCH  12  13
ENDBRANCH  11  12
ENDBRANCH  10  11
ENDBRANCH   9  10
ENDBRANCH   8   9
ENDBRANCH   7   8
ENDBRANCH   6   7
ENDBRANCH   5   6
ENDBRANCH   4   5
ENDBRANCH   3   4
ENDBRANCH   2   3
TORSDOF 13
ENDMDL
MODEL      300
REMARK 921   NORMALIZED FREE ENERGY PREDICTED BY IDOCK:   -2.87 KCAL/MOL
REMARK 922        TOTAL FREE ENERGY PREDICTED BY IDOCK:   -6.53 KCAL/MOL
REMARK 923 INTER-LIGAND FREE ENERGY PREDICTED BY IDOCK:   -5.97 KCAL/MOL
REMARK 924 INTRA-LIGAND FREE ENERGY PREDICTED BY IDOCK:   -0.56 KCAL/MOL
REMARK 927      BINDING AFFINITY PREDICTED BY RF-SCORE:    0.00 PKD
ROOT
HETATM    1  C   UNL     1     -13.268  15.837  73.238  1.00  0.00    -0.687 C  
HETATM    2  C   UNL     1     -14.209  15.380  72.137  1.00  0.00    -0.660 C  
ENDROOT
BRANCH   2   3
HETATM    3  C   UNL     1     -13.444  15.093  70.847  1.00  0.00    -0.432 C  
BRANCH   3   4
HETATM    4  C   UNL     1     -12.101  15.816  70.832  1.00  0.00    -0.459 C  
BRANCH   4   5
HETATM    5  C   UNL     1     -11.459  15.726  69.450  1.00  0.00    -0.357 C  
BRANCH   5   6
HETATM    6  C   UNL     1     -11.980  14.512  68.692  1.00  0.00    -0.320 C  
BRANCH   6   7
HETATM    7  C   UNL     1     -11.284  14.365  67.343  1.00  0.00    -0.337 C  
BRANCH   7   8
HETATM    8  C   UNL     1     -12.210  13.664  66.357  1.00  0.00    -0.472 C  
BRANCH   8   9
HETATM    9  C   UNL     1     -11.537  12.460  65.707  1.00  0.00    -0.449 C  
BRANCH   9  10
HETATM   10  C   UNL     1     -10.034  12.667  65.512  1.00  0.00    -0.237 C  
BRANCH  10  11
HETATM   11  C   UNL     1      -9.172  11.422  65.756  1.00  0.00    -0.223 C  
BRANCH  11  12
HETATM   12  C   UNL     1      -9.999  10.185  66.127  1.00  0.00    -0.246 C  
BRANCH  12  13
HETATM   13  N   UNL     1      -9.244   9.180  67.018  1.00  0.00    -0.132 N  
HETATM   14  C   UNL     1      -7.817   9.651  67.269  1.00  0.00    -0.095 C  
HETATM   15  C   UNL     1      -9.958   8.998  68.352  1.00  0.00    -0.180 C  
BRANCH  13  16
HETATM   16  C   UNL     1      -9.229   7.812  66.253  1.00  0.00    -0.166 C  
BRANCH  16  17
HETATM   17  C   UNL     1      -8.125   7.660  65.235  1.00  0.00    -0.133 A  
HETATM   18  C   UNL     1      -6.997   6.872  65.518  1.00  0.00    -0.060 A  
HETATM   19  C   UNL     1      -5.889   6.899  64.672  1.00  0.00    -0.036 A  
HETATM   20  C   UNL     1      -5.907   7.688  63.524  1.00  0.00    -0.053 A  
HETATM   21  C   UNL     1      -7.049   8.413  63.194  1.00  0.00    -0.091 A  
HETATM   22  C   UNL     1      -8.160   8.388  64.036  1.00  0.00    -0.142 A  
ENDBRANCH  16  17
ENDBRANCH  13  16
ENDBRANCH  12  13
ENDBRANCH  11  12
ENDBRANCH  10  11
ENDBRANCH   9  10
ENDBRANCH   8   9
ENDBRANCH   7   8
ENDBRANCH   6   7
ENDBRANCH   5   6
ENDBRANCH   4   5
ENDBRANCH   3   4
ENDBRANCH   2   3
TORSDOF 13
ENDMDL
MODEL      301
REMARK 921   NORMALIZED FREE ENERGY PREDICTED BY IDOCK:   -2.87 KCAL/MOL
REMARK 922        TOTAL FREE ENERGY PREDICTED BY IDOCK:   -6.52 KCAL/MOL
REMARK 923 INTER-LIGAND FREE ENERGY PREDICTED BY IDOCK:   -6.07 KCAL/MOL
REMARK 924 INTRA-LIGAND FREE ENERGY PREDICTED BY IDOCK:   -0.45 KCAL/MOL
REMARK 927      BINDING AFFINITY PREDICTED BY RF-SCORE:    0.00 PKD
ROOT
HETATM    1  C   UNL     1     -12.054  14.610  69.848  1.00  0.00    -0.385 C  
HETATM    2  C   UNL     1     -11.644  15.377  68.602  1.00  0.00    -0.373 C  
ENDROOT
BRANCH   2   3
HETATM    3  C   UNL     1     -10.825  14.496  67.662  1.00  0.00    -0.275 C  
BRANCH   3   4
HETATM    4  C   UNL     1     -11.671  14.003  66.493  1.00  0.00    -0.412 C  
BRANCH   4   5
HETATM    5  C   UNL     1     -11.679  12.478  66.441  1.00  0.00    -0.458 C  
BRANCH   5   6
HETATM    6  C   UNL     1     -10.666  11.901  67.422  1.00  0.00    -0.271 C  
BRANCH   6   7
HETATM    7  C   UNL     1     -11.190  10.624  68.069  1.00  0.00    -0.373 C  
BRANCH   7   8
HETATM    8  C   UNL     1     -12.100  10.972  69.240  1.00  0.00    -0.363 C  
BRANCH   8   9
HETATM    9  C   UNL     1     -11.461  10.614  70.578  1.00  0.00    -0.407 C  
BRANCH   9  10
HETATM   10  C   UNL     1     -12.373   9.746  71.446  1.00  0.00    -0.480 C  
BRANCH  10  11
HETATM   11  C   UNL     1     -11.785   8.387  71.845  1.00  0.00    -0.398 C  
BRANCH  11  12
HETATM   12  C   UNL     1     -11.967   7.315  70.764  1.00  0.00    -0.272 C  
BRANCH  12  13
HETATM   13  N   UNL     1     -10.702   6.473  70.509  1.00  0.00    -0.240 N  
HETATM   14  C   UNL     1      -9.448   7.325  70.663  1.00  0.00    -0.164 C  
HETATM   15  C   UNL     1     -10.635   5.295  71.474  1.00  0.00    -0.184 C  
BRANCH  13  16
HETATM   16  C   UNL     1     -10.804   5.930  69.043  1.00  0.00    -0.313 C  
BRANCH  16  17
HETATM   17  C   UNL     1      -9.527   5.351  68.484  1.00  0.00    -0.156 A  
HETATM   18  C   UNL     1      -9.444   3.987  68.159  1.00  0.00    -0.215 A  
HETATM   19  C   UNL     1      -8.214   3.412  67.844  1.00  0.00    -0.086 A  
HETATM   20  C   UNL     1      -7.062   4.196  67.823  1.00  0.00    -0.060 A  
HETATM   21  C   UNL     1      -7.144   5.563  68.069  1.00  0.00    -0.067 A  
HETATM   22  C   UNL     1      -8.373   6.144  68.383  1.00  0.00    -0.114 A  
ENDBRANCH  16  17
ENDBRANCH  13  16
ENDBRANCH  12  13
ENDBRANCH  11  12
ENDBRANCH  10  11
ENDBRANCH   9  10
ENDBRANCH   8   9
ENDBRANCH   7   8
ENDBRANCH   6   7
ENDBRANCH   5   6
ENDBRANCH   4   5
ENDBRANCH   3   4
ENDBRANCH   2   3
TORSDOF 13
ENDMDL
MODEL      302
REMARK 921   NORMALIZED FREE ENERGY PREDICTED BY IDOCK:   -2.87 KCAL/MOL
REMARK 922        TOTAL FREE ENERGY PREDICTED BY IDOCK:   -6.52 KCAL/MOL
REMARK 923 INTER-LIGAND FREE ENERGY PREDICTED BY IDOCK:   -5.96 KCAL/MOL
REMARK 924 INTRA-LIGAND FREE ENERGY PREDICTED BY IDOCK:   -0.56 KCAL/MOL
REMARK 927      BINDING AFFINITY PREDICTED BY RF-SCORE:    0.00 PKD
ROOT
HETATM    1  C   UNL     1     -11.464   7.564  72.325  1.00  0.00    -0.348 C  
HETATM    2  C   UNL     1     -11.603   6.055  72.433  1.00  0.00    -0.349 C  
ENDROOT
BRANCH   2   3
HETATM    3  C   UNL     1     -10.313   5.422  72.950  1.00  0.00    -0.231 C  
BRANCH   3   4
HETATM    4  C   UNL     1      -9.284   5.280  71.832  1.00  0.00    -0.156 C  
BRANCH   4   5
HETATM    5  C   UNL     1      -9.598   4.064  70.965  1.00  0.00    -0.249 C  
BRANCH   5   6
HETATM    6  C   UNL     1      -8.649   3.991  69.777  1.00  0.00    -0.098 C  
BRANCH   6   7
HETATM    7  C   UNL     1      -9.374   3.518  68.521  1.00  0.00    -0.229 C  
BRANCH   7   8
HETATM    8  C   UNL     1     -10.006   4.708  67.809  1.00  0.00    -0.150 C  
BRANCH   8   9
HETATM    9  C   UNL     1      -9.178   5.977  67.984  1.00  0.00    -0.115 C  
BRANCH   9  10
HETATM   10  C   UNL     1      -9.933   7.065  68.750  1.00  0.00    -0.160 C  
BRANCH  10  11
HETATM   11  C   UNL     1     -10.864   7.931  67.894  1.00  0.00    -0.063 C  
BRANCH  11  12
HETATM   12  C   UNL     1     -10.114   8.988  67.075  1.00  0.00    -0.250 C  
BRANCH  12  13
HETATM   13  N   UNL     1      -9.975  10.345  67.793  1.00  0.00    -0.171 N  
HETATM   14  C   UNL     1     -11.296  10.749  68.437  1.00  0.00    -0.302 C  
HETATM   15  C   UNL     1      -8.891  10.281  68.862  1.00  0.00    -0.157 C  
BRANCH  13  16
HETATM   16  C   UNL     1      -9.565  11.397  66.707  1.00  0.00    -0.188 C  
BRANCH  16  17
HETATM   17  C   UNL     1     -10.627  11.705  65.681  1.00  0.00    -0.324 A  
HETATM   18  C   UNL     1     -10.525  11.201  64.374  1.00  0.00    -0.418 A  
HETATM   19  C   UNL     1     -11.386  11.652  63.375  1.00  0.00    -0.380 A  
HETATM   20  C   UNL     1     -12.374  12.587  63.676  1.00  0.00    -0.618 A  
HETATM   21  C   UNL     1     -12.534  13.036  64.984  1.00  0.00    -0.534 A  
HETATM   22  C   UNL     1     -11.676  12.586  65.987  1.00  0.00    -0.472 A  
ENDBRANCH  16  17
ENDBRANCH  13  16
ENDBRANCH  12  13
ENDBRANCH  11  12
ENDBRANCH  10  11
ENDBRANCH   9  10
ENDBRANCH   8   9
ENDBRANCH   7   8
ENDBRANCH   6   7
ENDBRANCH   5   6
ENDBRANCH   4   5
ENDBRANCH   3   4
ENDBRANCH   2   3
TORSDOF 13
ENDMDL
MODEL      303
REMARK 921   NORMALIZED FREE ENERGY PREDICTED BY IDOCK:   -2.87 KCAL/MOL
REMARK 922        TOTAL FREE ENERGY PREDICTED BY IDOCK:   -6.52 KCAL/MOL
REMARK 923 INTER-LIGAND FREE ENERGY PREDICTED BY IDOCK:   -6.51 KCAL/MOL
REMARK 924 INTRA-LIGAND FREE ENERGY PREDICTED BY IDOCK:   -0.00 KCAL/MOL
REMARK 927      BINDING AFFINITY PREDICTED BY RF-SCORE:    0.00 PKD
ROOT
HETATM    1  C   UNL     1     -12.317  15.452  74.227  1.00  0.00    -0.807 C  
HETATM    2  C   UNL     1     -11.825  15.555  72.793  1.00  0.00    -0.575 C  
ENDROOT
BRANCH   2   3
HETATM    3  C   UNL     1     -12.443  14.464  71.923  1.00  0.00    -0.387 C  
BRANCH   3   4
HETATM    4  C   UNL     1     -13.083  15.055  70.671  1.00  0.00    -0.365 C  
BRANCH   4   5
HETATM    5  C   UNL     1     -12.012  15.503  69.680  1.00  0.00    -0.380 C  
BRANCH   5   6
HETATM    6  C   UNL     1     -11.428  14.306  68.941  1.00  0.00    -0.318 C  
BRANCH   6   7
HETATM    7  C   UNL     1     -11.696  14.400  67.443  1.00  0.00    -0.424 C  
BRANCH   7   8
HETATM    8  C   UNL     1     -11.990  13.014  66.882  1.00  0.00    -0.415 C  
BRANCH   8   9
HETATM    9  C   UNL     1     -12.476  13.081  65.438  1.00  0.00    -0.531 C  
BRANCH   9  10
HETATM   10  C   UNL     1     -11.613  12.243  64.493  1.00  0.00    -0.418 C  
BRANCH  10  11
HETATM   11  C   UNL     1     -10.226  11.877  65.035  1.00  0.00    -0.316 C  
BRANCH  11  12
HETATM   12  C   UNL     1      -9.872  10.400  64.825  1.00  0.00    -0.340 C  
BRANCH  12  13
HETATM   13  N   UNL     1      -8.781   9.883  65.784  1.00  0.00    -0.136 N  
HETATM   14  C   UNL     1      -7.605   9.310  65.003  1.00  0.00    -0.107 C  
HETATM   15  C   UNL     1      -8.287  11.003  66.693  1.00  0.00    -0.155 C  
BRANCH  13  16
HETATM   16  C   UNL     1      -9.438   8.763  66.661  1.00  0.00    -0.203 C  
BRANCH  16  17
HETATM   17  C   UNL     1      -8.720   8.457  67.952  1.00  0.00    -0.138 A  
HETATM   18  C   UNL     1      -8.609   9.434  68.956  1.00  0.00    -0.135 A  
HETATM   19  C   UNL     1      -7.773   9.226  70.052  1.00  0.00    -0.104 A  
HETATM   20  C   UNL     1      -7.064   8.033  70.171  1.00  0.00    -0.049 A  
HETATM   21  C   UNL     1      -7.226   7.027  69.223  1.00  0.00    -0.086 A  
HETATM   22  C   UNL     1      -8.062   7.230  68.125  1.00  0.00    -0.124 A  
ENDBRANCH  16  17
ENDBRANCH  13  16
ENDBRANCH  12  13
ENDBRANCH  11  12
ENDBRANCH  10  11
ENDBRANCH   9  10
ENDBRANCH   8   9
ENDBRANCH   7   8
ENDBRANCH   6   7
ENDBRANCH   5   6
ENDBRANCH   4   5
ENDBRANCH   3   4
ENDBRANCH   2   3
TORSDOF 13
ENDMDL
MODEL      304
REMARK 921   NORMALIZED FREE ENERGY PREDICTED BY IDOCK:   -2.86 KCAL/MOL
REMARK 922        TOTAL FREE ENERGY PREDICTED BY IDOCK:   -6.50 KCAL/MOL
REMARK 923 INTER-LIGAND FREE ENERGY PREDICTED BY IDOCK:   -5.10 KCAL/MOL
REMARK 924 INTRA-LIGAND FREE ENERGY PREDICTED BY IDOCK:   -1.41 KCAL/MOL
REMARK 927      BINDING AFFINITY PREDICTED BY RF-SCORE:    0.00 PKD
ROOT
HETATM    1  C   UNL     1      -8.974  15.674  68.612  1.00  0.00    -0.202 C  
HETATM    2  C   UNL     1     -10.163  14.729  68.664  1.00  0.00    -0.236 C  
ENDROOT
BRANCH   2   3
HETATM    3  C   UNL     1     -10.369  14.034  67.321  1.00  0.00    -0.264 C  
BRANCH   3   4
HETATM    4  C   UNL     1     -10.125  12.533  67.435  1.00  0.00    -0.211 C  
BRANCH   4   5
HETATM    5  C   UNL     1     -11.414  11.758  67.179  1.00  0.00    -0.366 C  
BRANCH   5   6
HETATM    6  C   UNL     1     -11.650  10.727  68.275  1.00  0.00    -0.297 C  
BRANCH   6   7
HETATM    7  C   UNL     1     -10.858  11.070  69.533  1.00  0.00    -0.267 C  
BRANCH   7   8
HETATM    8  C   UNL     1     -10.099   9.842  70.018  1.00  0.00    -0.301 C  
BRANCH   8   9
HETATM    9  C   UNL     1      -8.598   9.976  69.786  1.00  0.00    -0.192 C  
BRANCH   9  10
HETATM   10  C   UNL     1      -8.183   9.535  68.381  1.00  0.00    -0.113 C  
BRANCH  10  11
HETATM   11  C   UNL     1      -7.989   8.024  68.208  1.00  0.00    -0.128 C  
BRANCH  11  12
HETATM   12  C   UNL     1      -9.080   7.375  67.348  1.00  0.00    -0.122 C  
BRANCH  12  13
HETATM   13  N   UNL     1      -8.792   5.904  66.990  1.00  0.00    -0.113 N  
HETATM   14  C   UNL     1      -8.719   5.722  65.479  1.00  0.00    -0.138 C  
HETATM   15  C   UNL     1      -7.483   5.442  67.619  1.00  0.00    -0.084 C  
BRANCH  13  16
HETATM   16  C   UNL     1      -9.971   5.053  67.576  1.00  0.00    -0.167 C  
BRANCH  16  17
HETATM   17  C   UNL     1     -10.336   5.365  69.006  1.00  0.00    -0.282 A  
HETATM   18  C   UNL     1     -11.379   6.260  69.298  1.00  0.00    -0.411 A  
HETATM   19  C   UNL     1     -11.580   6.708  70.602  1.00  0.00    -0.439 A  
HETATM   20  C   UNL     1     -10.761   6.246  71.631  1.00  0.00    -0.284 A  
HETATM   21  C   UNL     1      -9.774   5.301  71.367  1.00  0.00    -0.219 A  
HETATM   22  C   UNL     1      -9.571   4.849  70.063  1.00  0.00    -0.261 A  
ENDBRANCH  16  17
ENDBRANCH  13  16
ENDBRANCH  12  13
ENDBRANCH  11  12
ENDBRANCH  10  11
ENDBRANCH   9  10
ENDBRANCH   8   9
ENDBRANCH   7   8
ENDBRANCH   6   7
ENDBRANCH   5   6
ENDBRANCH   4   5
ENDBRANCH   3   4
ENDBRANCH   2   3
TORSDOF 13
ENDMDL
MODEL      305
REMARK 921   NORMALIZED FREE ENERGY PREDICTED BY IDOCK:   -2.85 KCAL/MOL
REMARK 922        TOTAL FREE ENERGY PREDICTED BY IDOCK:   -6.49 KCAL/MOL
REMARK 923 INTER-LIGAND FREE ENERGY PREDICTED BY IDOCK:   -6.09 KCAL/MOL
REMARK 924 INTRA-LIGAND FREE ENERGY PREDICTED BY IDOCK:   -0.40 KCAL/MOL
REMARK 927      BINDING AFFINITY PREDICTED BY RF-SCORE:    0.00 PKD
ROOT
HETATM    1  C   UNL     1     -11.514   6.686  70.953  1.00  0.00    -0.401 C  
HETATM    2  C   UNL     1     -10.543   6.563  69.791  1.00  0.00    -0.284 C  
ENDROOT
BRANCH   2   3
HETATM    3  C   UNL     1      -9.451   7.626  69.875  1.00  0.00    -0.160 C  
BRANCH   3   4
HETATM    4  C   UNL     1      -9.238   8.304  68.524  1.00  0.00    -0.136 C  
BRANCH   4   5
HETATM    5  C   UNL     1     -10.517   8.994  68.062  1.00  0.00    -0.270 C  
BRANCH   5   6
HETATM    6  C   UNL     1     -10.196  10.299  67.346  1.00  0.00    -0.265 C  
BRANCH   6   7
HETATM    7  C   UNL     1      -8.795  10.266  66.743  1.00  0.00    -0.143 C  
BRANCH   7   8
HETATM    8  C   UNL     1      -8.311  11.686  66.480  1.00  0.00    -0.122 C  
BRANCH   8   9
HETATM    9  C   UNL     1      -8.114  12.465  67.776  1.00  0.00    -0.162 C  
BRANCH   9  10
HETATM   10  C   UNL     1      -7.540  13.863  67.535  1.00  0.00    -0.190 C  
BRANCH  10  11
HETATM   11  C   UNL     1      -8.090  14.956  68.458  1.00  0.00    -0.147 C  
BRANCH  11  12
HETATM   12  C   UNL     1      -9.567  14.750  68.817  1.00  0.00    -0.215 C  
BRANCH  12  13
HETATM   13  N   UNL     1     -10.528  15.663  68.031  1.00  0.00    -0.257 N  
HETATM   14  C   UNL     1      -9.958  15.987  66.655  1.00  0.00    -0.267 C  
HETATM   15  C   UNL     1     -11.891  15.001  67.870  1.00  0.00    -0.218 C  
BRANCH  13  16
HETATM   16  C   UNL     1     -10.692  16.979  68.866  1.00  0.00    -0.300 C  
BRANCH  16  17
HETATM   17  C   UNL     1     -10.142  18.224  68.213  1.00  0.00    -0.406 A  
HETATM   18  C   UNL     1     -10.867  18.881  67.205  1.00  0.00    -0.448 A  
HETATM   19  C   UNL     1     -10.273  19.899  66.461  1.00  0.00    -0.611 A  
HETATM   20  C   UNL     1      -8.964  20.290  66.733  1.00  0.00    -0.394 A  
HETATM   21  C   UNL     1      -8.263  19.698  67.780  1.00  0.00    -0.337 A  
HETATM   22  C   UNL     1      -8.853  18.680  68.529  1.00  0.00    -0.361 A  
ENDBRANCH  16  17
ENDBRANCH  13  16
ENDBRANCH  12  13
ENDBRANCH  11  12
ENDBRANCH  10  11
ENDBRANCH   9  10
ENDBRANCH   8   9
ENDBRANCH   7   8
ENDBRANCH   6   7
ENDBRANCH   5   6
ENDBRANCH   4   5
ENDBRANCH   3   4
ENDBRANCH   2   3
TORSDOF 13
ENDMDL
MODEL      306
REMARK 921   NORMALIZED FREE ENERGY PREDICTED BY IDOCK:   -2.85 KCAL/MOL
REMARK 922        TOTAL FREE ENERGY PREDICTED BY IDOCK:   -6.49 KCAL/MOL
REMARK 923 INTER-LIGAND FREE ENERGY PREDICTED BY IDOCK:   -5.40 KCAL/MOL
REMARK 924 INTRA-LIGAND FREE ENERGY PREDICTED BY IDOCK:   -1.09 KCAL/MOL
REMARK 927      BINDING AFFINITY PREDICTED BY RF-SCORE:    0.00 PKD
ROOT
HETATM    1  C   UNL     1     -10.373   5.489  73.714  1.00  0.00    -0.271 C  
HETATM    2  C   UNL     1     -11.338   5.987  72.651  1.00  0.00    -0.320 C  
ENDROOT
BRANCH   2   3
HETATM    3  C   UNL     1     -10.586   6.583  71.464  1.00  0.00    -0.265 C  
BRANCH   3   4
HETATM    4  C   UNL     1     -10.938   5.856  70.169  1.00  0.00    -0.412 C  
BRANCH   4   5
HETATM    5  C   UNL     1     -10.027   4.648  69.967  1.00  0.00    -0.302 C  
BRANCH   5   6
HETATM    6  C   UNL     1      -9.666   4.487  68.496  1.00  0.00    -0.198 C  
BRANCH   6   7
HETATM    7  C   UNL     1     -10.438   5.475  67.628  1.00  0.00    -0.256 C  
BRANCH   7   8
HETATM    8  C   UNL     1      -9.891   5.454  66.207  1.00  0.00    -0.186 C  
BRANCH   8   9
HETATM    9  C   UNL     1      -8.454   5.963  66.146  1.00  0.00    -0.132 C  
BRANCH   9  10
HETATM   10  C   UNL     1      -8.126   6.623  64.806  1.00  0.00    -0.099 C  
BRANCH  10  11
HETATM   11  C   UNL     1      -8.013   8.152  64.848  1.00  0.00    -0.145 C  
BRANCH  11  12
HETATM   12  C   UNL     1      -7.944   8.709  66.275  1.00  0.00    -0.102 C  
BRANCH  12  13
HETATM   13  N   UNL     1      -9.024   9.765  66.580  1.00  0.00    -0.141 N  
HETATM   14  C   UNL     1      -9.103  10.792  65.458  1.00  0.00    -0.199 C  
HETATM   15  C   UNL     1     -10.386   9.107  66.761  1.00  0.00    -0.238 C  
BRANCH  13  16
HETATM   16  C   UNL     1      -8.610  10.466  67.919  1.00  0.00    -0.118 C  
BRANCH  16  17
HETATM   17  C   UNL     1      -9.754  10.818  68.838  1.00  0.00    -0.207 A  
HETATM   18  C   UNL     1     -10.122   9.955  69.883  1.00  0.00    -0.297 A  
HETATM   19  C   UNL     1     -11.300  10.172  70.596  1.00  0.00    -0.433 A  
HETATM   20  C   UNL     1     -12.107  11.266  70.291  1.00  0.00    -0.459 A  
HETATM   21  C   UNL     1     -11.714  12.171  69.309  1.00  0.00    -0.386 A  
HETATM   22  C   UNL     1     -10.535  11.958  68.595  1.00  0.00    -0.231 A  
ENDBRANCH  16  17
ENDBRANCH  13  16
ENDBRANCH  12  13
ENDBRANCH  11  12
ENDBRANCH  10  11
ENDBRANCH   9  10
ENDBRANCH   8   9
ENDBRANCH   7   8
ENDBRANCH   6   7
ENDBRANCH   5   6
ENDBRANCH   4   5
ENDBRANCH   3   4
ENDBRANCH   2   3
TORSDOF 13
ENDMDL
MODEL      307
REMARK 921   NORMALIZED FREE ENERGY PREDICTED BY IDOCK:   -2.83 KCAL/MOL
REMARK 922        TOTAL FREE ENERGY PREDICTED BY IDOCK:   -6.45 KCAL/MOL
REMARK 923 INTER-LIGAND FREE ENERGY PREDICTED BY IDOCK:   -5.74 KCAL/MOL
REMARK 924 INTRA-LIGAND FREE ENERGY PREDICTED BY IDOCK:   -0.71 KCAL/MOL
REMARK 927      BINDING AFFINITY PREDICTED BY RF-SCORE:    0.00 PKD
ROOT
HETATM    1  C   UNL     1     -10.934   5.859  69.707  1.00  0.00    -0.452 C  
HETATM    2  C   UNL     1     -10.314   6.610  70.873  1.00  0.00    -0.237 C  
ENDROOT
BRANCH   2   3
HETATM    3  C   UNL     1      -9.491   7.799  70.384  1.00  0.00    -0.164 C  
BRANCH   3   4
HETATM    4  C   UNL     1      -9.846   9.068  71.153  1.00  0.00    -0.371 C  
BRANCH   4   5
HETATM    5  C   UNL     1     -10.139  10.215  70.190  1.00  0.00    -0.197 C  
BRANCH   5   6
HETATM    6  C   UNL     1     -11.553  10.742  70.397  1.00  0.00    -0.431 C  
BRANCH   6   7
HETATM    7  C   UNL     1     -11.902  11.803  69.358  1.00  0.00    -0.398 C  
BRANCH   7   8
HETATM    8  C   UNL     1     -11.993  13.170  70.024  1.00  0.00    -0.391 C  
BRANCH   8   9
HETATM    9  C   UNL     1     -11.422  14.270  69.135  1.00  0.00    -0.330 C  
BRANCH   9  10
HETATM   10  C   UNL     1     -10.266  13.777  68.265  1.00  0.00    -0.245 C  
BRANCH  10  11
HETATM   11  C   UNL     1      -9.029  14.684  68.255  1.00  0.00    -0.184 C  
BRANCH  11  12
HETATM   12  C   UNL     1      -9.071  15.763  69.344  1.00  0.00    -0.254 C  
BRANCH  12  13
HETATM   13  N   UNL     1      -8.860  17.192  68.806  1.00  0.00    -0.260 N  
HETATM   14  C   UNL     1     -10.067  18.068  69.119  1.00  0.00    -0.196 C  
HETATM   15  C   UNL     1      -7.610  17.819  69.413  1.00  0.00     0.197 C  
BRANCH  13  16
HETATM   16  C   UNL     1      -8.673  17.073  67.255  1.00  0.00    -0.199 C  
BRANCH  16  17
HETATM   17  C   UNL     1      -7.739  18.087  66.643  1.00  0.00    -0.268 A  
HETATM   18  C   UNL     1      -8.181  19.394  66.375  1.00  0.00    -0.335 A  
HETATM   19  C   UNL     1      -7.393  20.264  65.624  1.00  0.00    -0.228 A  
HETATM   20  C   UNL     1      -6.147  19.850  65.157  1.00  0.00    -0.272 A  
HETATM   21  C   UNL     1      -5.666  18.584  65.481  1.00  0.00    -0.238 A  
HETATM   22  C   UNL     1      -6.451  17.711  66.234  1.00  0.00    -0.288 A  
ENDBRANCH  16  17
ENDBRANCH  13  16
ENDBRANCH  12  13
ENDBRANCH  11  12
ENDBRANCH  10  11
ENDBRANCH   9  10
ENDBRANCH   8   9
ENDBRANCH   7   8
ENDBRANCH   6   7
ENDBRANCH   5   6
ENDBRANCH   4   5
ENDBRANCH   3   4
ENDBRANCH   2   3
TORSDOF 13
ENDMDL
MODEL      308
REMARK 921   NORMALIZED FREE ENERGY PREDICTED BY IDOCK:   -2.83 KCAL/MOL
REMARK 922        TOTAL FREE ENERGY PREDICTED BY IDOCK:   -6.44 KCAL/MOL
REMARK 923 INTER-LIGAND FREE ENERGY PREDICTED BY IDOCK:   -4.30 KCAL/MOL
REMARK 924 INTRA-LIGAND FREE ENERGY PREDICTED BY IDOCK:   -2.15 KCAL/MOL
REMARK 927      BINDING AFFINITY PREDICTED BY RF-SCORE:    0.00 PKD
ROOT
HETATM    1  C   UNL     1      -9.461  15.809  68.763  1.00  0.00    -0.219 C  
HETATM    2  C   UNL     1     -10.223  14.567  68.333  1.00  0.00    -0.239 C  
ENDROOT
BRANCH   2   3
HETATM    3  C   UNL     1      -9.465  13.808  67.247  1.00  0.00    -0.236 C  
BRANCH   3   4
HETATM    4  C   UNL     1      -9.418  12.314  67.551  1.00  0.00    -0.182 C  
BRANCH   4   5
HETATM    5  C   UNL     1     -10.662  11.616  67.009  1.00  0.00    -0.292 C  
BRANCH   5   6
HETATM    6  C   UNL     1     -11.608  11.245  68.143  1.00  0.00    -0.359 C  
BRANCH   6   7
HETATM    7  C   UNL     1     -10.842  10.981  69.435  1.00  0.00    -0.278 C  
BRANCH   7   8
HETATM    8  C   UNL     1     -11.394   9.737  70.119  1.00  0.00    -0.305 C  
BRANCH   8   9
HETATM    9  C   UNL     1     -10.279   8.811  70.595  1.00  0.00    -0.247 C  
BRANCH   9  10
HETATM   10  C   UNL     1      -8.927   9.520  70.675  1.00  0.00    -0.226 C  
BRANCH  10  11
HETATM   11  C   UNL     1      -7.758   8.759  70.039  1.00  0.00    -0.082 C  
BRANCH  11  12
HETATM   12  C   UNL     1      -7.370   9.301  68.658  1.00  0.00    -0.076 C  
BRANCH  12  13
HETATM   13  N   UNL     1      -6.336   8.429  67.919  1.00  0.00    -0.055 N  
HETATM   14  C   UNL     1      -5.146   9.269  67.471  1.00  0.00    -0.037 C  
HETATM   15  C   UNL     1      -5.847   7.296  68.814  1.00  0.00    -0.023 C  
BRANCH  13  16
HETATM   16  C   UNL     1      -7.061   7.820  66.671  1.00  0.00    -0.079 C  
BRANCH  16  17
HETATM   17  C   UNL     1      -8.449   7.290  66.932  1.00  0.00    -0.119 A  
HETATM   18  C   UNL     1      -9.577   8.094  66.698  1.00  0.00    -0.295 A  
HETATM   19  C   UNL     1     -10.837   7.686  67.133  1.00  0.00    -0.258 A  
HETATM   20  C   UNL     1     -10.988   6.461  67.780  1.00  0.00    -0.425 A  
HETATM   21  C   UNL     1      -9.890   5.621  67.950  1.00  0.00    -0.158 A  
HETATM   22  C   UNL     1      -8.628   6.025  67.514  1.00  0.00    -0.106 A  
ENDBRANCH  16  17
ENDBRANCH  13  16
ENDBRANCH  12  13
ENDBRANCH  11  12
ENDBRANCH  10  11
ENDBRANCH   9  10
ENDBRANCH   8   9
ENDBRANCH   7   8
ENDBRANCH   6   7
ENDBRANCH   5   6
ENDBRANCH   4   5
ENDBRANCH   3   4
ENDBRANCH   2   3
TORSDOF 13
ENDMDL
MODEL      309
REMARK 921   NORMALIZED FREE ENERGY PREDICTED BY IDOCK:   -2.82 KCAL/MOL
REMARK 922        TOTAL FREE ENERGY PREDICTED BY IDOCK:   -6.44 KCAL/MOL
REMARK 923 INTER-LIGAND FREE ENERGY PREDICTED BY IDOCK:   -5.28 KCAL/MOL
REMARK 924 INTRA-LIGAND FREE ENERGY PREDICTED BY IDOCK:   -1.16 KCAL/MOL
REMARK 927      BINDING AFFINITY PREDICTED BY RF-SCORE:    0.00 PKD
ROOT
HETATM    1  C   UNL     1      -6.527  16.168  68.248  1.00  0.00    -0.131 C  
HETATM    2  C   UNL     1      -6.551  17.584  68.799  1.00  0.00    -0.216 C  
ENDROOT
BRANCH   2   3
HETATM    3  C   UNL     1      -6.900  18.591  67.706  1.00  0.00    -0.217 C  
BRANCH   3   4
HETATM    4  C   UNL     1      -7.487  19.867  68.301  1.00  0.00    -0.319 C  
BRANCH   4   5
HETATM    5  C   UNL     1      -8.730  20.298  67.527  1.00  0.00    -0.401 C  
BRANCH   5   6
HETATM    6  C   UNL     1      -9.033  19.314  66.405  1.00  0.00    -0.375 C  
BRANCH   6   7
HETATM    7  C   UNL     1     -10.424  18.709  66.564  1.00  0.00    -0.465 C  
BRANCH   7   8
HETATM    8  C   UNL     1     -10.502  17.924  67.866  1.00  0.00    -0.404 C  
BRANCH   8   9
HETATM    9  C   UNL     1     -10.177  16.448  67.657  1.00  0.00    -0.272 C  
BRANCH   9  10
HETATM   10  C   UNL     1     -10.901  15.858  66.447  1.00  0.00    -0.193 C  
BRANCH  10  11
HETATM   11  C   UNL     1     -11.855  14.700  66.764  1.00  0.00    -0.334 C  
BRANCH  11  12
HETATM   12  C   UNL     1     -11.319  13.339  66.303  1.00  0.00    -0.309 C  
BRANCH  12  13
HETATM   13  N   UNL     1     -10.693  12.503  67.437  1.00  0.00    -0.225 N  
HETATM   14  C   UNL     1     -11.130  13.032  68.798  1.00  0.00    -0.270 C  
HETATM   15  C   UNL     1     -11.094  11.038  67.311  1.00  0.00    -0.294 C  
BRANCH  13  16
HETATM   16  C   UNL     1      -9.138  12.625  67.289  1.00  0.00    -0.191 C  
BRANCH  16  17
HETATM   17  C   UNL     1      -8.408  11.317  67.111  1.00  0.00    -0.151 A  
HETATM   18  C   UNL     1      -7.821  10.672  68.212  1.00  0.00    -0.113 A  
HETATM   19  C   UNL     1      -6.973   9.582  68.020  1.00  0.00    -0.079 A  
HETATM   20  C   UNL     1      -6.726   9.109  66.733  1.00  0.00    -0.076 A  
HETATM   21  C   UNL     1      -7.362   9.692  65.641  1.00  0.00    -0.101 A  
HETATM   22  C   UNL     1      -8.212  10.782  65.828  1.00  0.00    -0.146 A  
ENDBRANCH  16  17
ENDBRANCH  13  16
ENDBRANCH  12  13
ENDBRANCH  11  12
ENDBRANCH  10  11
ENDBRANCH   9  10
ENDBRANCH   8   9
ENDBRANCH   7   8
ENDBRANCH   6   7
ENDBRANCH   5   6
ENDBRANCH   4   5
ENDBRANCH   3   4
ENDBRANCH   2   3
TORSDOF 13
ENDMDL
MODEL      310
REMARK 921   NORMALIZED FREE ENERGY PREDICTED BY IDOCK:   -2.82 KCAL/MOL
REMARK 922        TOTAL FREE ENERGY PREDICTED BY IDOCK:   -6.43 KCAL/MOL
REMARK 923 INTER-LIGAND FREE ENERGY PREDICTED BY IDOCK:   -4.65 KCAL/MOL
REMARK 924 INTRA-LIGAND FREE ENERGY PREDICTED BY IDOCK:   -1.78 KCAL/MOL
REMARK 927      BINDING AFFINITY PREDICTED BY RF-SCORE:    0.00 PKD
ROOT
HETATM    1  C   UNL     1     -11.260  15.806  70.884  1.00  0.00    -0.404 C  
HETATM    2  C   UNL     1     -12.214  15.001  70.018  1.00  0.00    -0.373 C  
ENDROOT
BRANCH   2   3
HETATM    3  C   UNL     1     -11.463  13.946  69.210  1.00  0.00    -0.348 C  
BRANCH   3   4
HETATM    4  C   UNL     1     -10.158  14.507  68.652  1.00  0.00    -0.244 C  
BRANCH   4   5
HETATM    5  C   UNL     1     -10.171  14.480  67.127  1.00  0.00    -0.260 C  
BRANCH   5   6
HETATM    6  C   UNL     1     -10.308  13.053  66.614  1.00  0.00    -0.263 C  
BRANCH   6   7
HETATM    7  C   UNL     1      -8.946  12.453  66.283  1.00  0.00    -0.041 C  
BRANCH   7   8
HETATM    8  C   UNL     1      -9.126  11.159  65.499  1.00  0.00    -0.211 C  
BRANCH   8   9
HETATM    9  C   UNL     1      -7.873  10.291  65.544  1.00  0.00    -0.152 C  
BRANCH   9  10
HETATM   10  C   UNL     1      -6.751  10.929  66.364  1.00  0.00    -0.134 C  
BRANCH  10  11
HETATM   11  C   UNL     1      -6.111  10.010  67.411  1.00  0.00    -0.058 C  
BRANCH  11  12
HETATM   12  C   UNL     1      -6.771   8.627  67.477  1.00  0.00    -0.066 C  
BRANCH  12  13
HETATM   13  N   UNL     1      -6.963   8.100  68.912  1.00  0.00    -0.061 N  
HETATM   14  C   UNL     1      -7.999   6.984  68.941  1.00  0.00    -0.120 C  
HETATM   15  C   UNL     1      -5.646   7.583  69.478  1.00  0.00    -0.023 C  
BRANCH  13  16
HETATM   16  C   UNL     1      -7.455   9.309  69.780  1.00  0.00    -0.075 C  
BRANCH  16  17
HETATM   17  C   UNL     1      -8.952   9.438  69.908  1.00  0.00    -0.215 A  
HETATM   18  C   UNL     1      -9.702  10.082  68.910  1.00  0.00    -0.181 A  
HETATM   19  C   UNL     1     -11.046  10.385  69.124  1.00  0.00    -0.296 A  
HETATM   20  C   UNL     1     -11.660  10.024  70.321  1.00  0.00    -0.354 A  
HETATM   21  C   UNL     1     -10.948   9.318  71.286  1.00  0.00    -0.421 A  
HETATM   22  C   UNL     1      -9.604   9.011  71.076  1.00  0.00    -0.348 A  
ENDBRANCH  16  17
ENDBRANCH  13  16
ENDBRANCH  12  13
ENDBRANCH  11  12
ENDBRANCH  10  11
ENDBRANCH   9  10
ENDBRANCH   8   9
ENDBRANCH   7   8
ENDBRANCH   6   7
ENDBRANCH   5   6
ENDBRANCH   4   5
ENDBRANCH   3   4
ENDBRANCH   2   3
TORSDOF 13
ENDMDL
MODEL      311
REMARK 921   NORMALIZED FREE ENERGY PREDICTED BY IDOCK:   -2.80 KCAL/MOL
REMARK 922        TOTAL FREE ENERGY PREDICTED BY IDOCK:   -6.40 KCAL/MOL
REMARK 923 INTER-LIGAND FREE ENERGY PREDICTED BY IDOCK:   -5.13 KCAL/MOL
REMARK 924 INTRA-LIGAND FREE ENERGY PREDICTED BY IDOCK:   -1.27 KCAL/MOL
REMARK 927      BINDING AFFINITY PREDICTED BY RF-SCORE:    0.00 PKD
ROOT
HETATM    1  C   UNL     1     -11.071   5.952  68.832  1.00  0.00    -0.254 C  
HETATM    2  C   UNL     1     -10.974   6.304  67.357  1.00  0.00    -0.447 C  
ENDROOT
BRANCH   2   3
HETATM    3  C   UNL     1     -10.150   5.265  66.600  1.00  0.00    -0.259 C  
BRANCH   3   4
HETATM    4  C   UNL     1      -8.659   5.573  66.689  1.00  0.00    -0.116 C  
BRANCH   4   5
HETATM    5  C   UNL     1      -8.014   5.508  65.307  1.00  0.00    -0.112 C  
BRANCH   5   6
HETATM    6  C   UNL     1      -7.081   6.692  65.093  1.00  0.00    -0.064 C  
BRANCH   6   7
HETATM    7  C   UNL     1      -7.647   7.660  64.059  1.00  0.00    -0.114 C  
BRANCH   7   8
HETATM    8  C   UNL     1      -6.926   8.999  64.153  1.00  0.00    -0.094 C  
BRANCH   8   9
HETATM    9  C   UNL     1      -7.767  10.136  63.581  1.00  0.00    -0.142 C  
BRANCH   9  10
HETATM   10  C   UNL     1      -9.267   9.900  63.762  1.00  0.00    -0.289 C  
BRANCH  10  11
HETATM   11  C   UNL     1     -10.025  11.047  64.442  1.00  0.00    -0.368 C  
BRANCH  11  12
HETATM   12  C   UNL     1      -9.317  11.572  65.696  1.00  0.00    -0.204 C  
BRANCH  12  13
HETATM   13  N   UNL     1     -10.227  11.639  66.938  1.00  0.00    -0.211 N  
HETATM   14  C   UNL     1      -9.473  12.224  68.126  1.00  0.00    -0.213 C  
HETATM   15  C   UNL     1     -11.462  12.486  66.657  1.00  0.00    -0.359 C  
BRANCH  13  16
HETATM   16  C   UNL     1     -10.672  10.171  67.257  1.00  0.00    -0.254 C  
BRANCH  16  17
HETATM   17  C   UNL     1     -10.601   9.782  68.712  1.00  0.00    -0.244 A  
HETATM   18  C   UNL     1     -11.649  10.105  69.590  1.00  0.00    -0.216 A  
HETATM   19  C   UNL     1     -11.495   9.935  70.965  1.00  0.00    -0.466 A  
HETATM   20  C   UNL     1     -10.307   9.416  71.474  1.00  0.00    -0.265 A  
HETATM   21  C   UNL     1      -9.291   9.020  70.609  1.00  0.00    -0.283 A  
HETATM   22  C   UNL     1      -9.441   9.187  69.233  1.00  0.00    -0.158 A  
ENDBRANCH  16  17
ENDBRANCH  13  16
ENDBRANCH  12  13
ENDBRANCH  11  12
ENDBRANCH  10  11
ENDBRANCH   9  10
ENDBRANCH   8   9
ENDBRANCH   7   8
ENDBRANCH   6   7
ENDBRANCH   5   6
ENDBRANCH   4   5
ENDBRANCH   3   4
ENDBRANCH   2   3
TORSDOF 13
ENDMDL
MODEL      312
REMARK 921   NORMALIZED FREE ENERGY PREDICTED BY IDOCK:   -2.79 KCAL/MOL
REMARK 922        TOTAL FREE ENERGY PREDICTED BY IDOCK:   -6.38 KCAL/MOL
REMARK 923 INTER-LIGAND FREE ENERGY PREDICTED BY IDOCK:   -5.04 KCAL/MOL
REMARK 924 INTRA-LIGAND FREE ENERGY PREDICTED BY IDOCK:   -1.34 KCAL/MOL
REMARK 927      BINDING AFFINITY PREDICTED BY RF-SCORE:    0.00 PKD
ROOT
HETATM    1  C   UNL     1      -7.008  14.859  67.692  1.00  0.00    -0.207 C  
HETATM    2  C   UNL     1      -7.669  16.023  66.972  1.00  0.00    -0.264 C  
ENDROOT
BRANCH   2   3
HETATM    3  C   UNL     1      -9.121  16.185  67.412  1.00  0.00    -0.203 C  
BRANCH   3   4
HETATM    4  C   UNL     1     -10.063  16.186  66.211  1.00  0.00    -0.337 C  
BRANCH   4   5
HETATM    5  C   UNL     1     -10.252  14.770  65.676  1.00  0.00    -0.382 C  
BRANCH   5   6
HETATM    6  C   UNL     1     -11.732  14.429  65.567  1.00  0.00    -0.352 C  
BRANCH   6   7
HETATM    7  C   UNL     1     -12.212  13.659  66.794  1.00  0.00    -0.416 C  
BRANCH   7   8
HETATM    8  C   UNL     1     -11.310  12.456  67.036  1.00  0.00    -0.388 C  
BRANCH   8   9
HETATM    9  C   UNL     1     -11.865  11.543  68.124  1.00  0.00    -0.306 C  
BRANCH   9  10
HETATM   10  C   UNL     1     -10.974  11.509  69.367  1.00  0.00    -0.233 C  
BRANCH  10  11
HETATM   11  C   UNL     1     -10.917  10.155  70.086  1.00  0.00    -0.376 C  
BRANCH  11  12
HETATM   12  C   UNL     1      -9.508   9.550  70.112  1.00  0.00    -0.246 C  
BRANCH  12  13
HETATM   13  N   UNL     1      -9.486   8.025  69.891  1.00  0.00    -0.160 N  
HETATM   14  C   UNL     1      -8.607   7.344  70.932  1.00  0.00    -0.135 C  
HETATM   15  C   UNL     1     -10.895   7.449  69.963  1.00  0.00    -0.252 C  
BRANCH  13  16
HETATM   16  C   UNL     1      -8.905   7.780  68.457  1.00  0.00    -0.130 C  
BRANCH  16  17
HETATM   17  C   UNL     1      -8.127   8.935  67.876  1.00  0.00    -0.106 A  
HETATM   18  C   UNL     1      -6.939   9.374  68.484  1.00  0.00    -0.066 A  
HETATM   19  C   UNL     1      -6.336  10.563  68.076  1.00  0.00    -0.058 A  
HETATM   20  C   UNL     1      -6.894  11.308  67.041  1.00  0.00    -0.126 A  
HETATM   21  C   UNL     1      -8.028  10.844  66.379  1.00  0.00    -0.157 A  
HETATM   22  C   UNL     1      -8.634   9.654  66.783  1.00  0.00    -0.140 A  
ENDBRANCH  16  17
ENDBRANCH  13  16
ENDBRANCH  12  13
ENDBRANCH  11  12
ENDBRANCH  10  11
ENDBRANCH   9  10
ENDBRANCH   8   9
ENDBRANCH   7   8
ENDBRANCH   6   7
ENDBRANCH   5   6
ENDBRANCH   4   5
ENDBRANCH   3   4
ENDBRANCH   2   3
TORSDOF 13
ENDMDL
MODEL      313
REMARK 921   NORMALIZED FREE ENERGY PREDICTED BY IDOCK:   -2.77 KCAL/MOL
REMARK 922        TOTAL FREE ENERGY PREDICTED BY IDOCK:   -6.35 KCAL/MOL
REMARK 923 INTER-LIGAND FREE ENERGY PREDICTED BY IDOCK:   -5.27 KCAL/MOL
REMARK 924 INTRA-LIGAND FREE ENERGY PREDICTED BY IDOCK:   -1.09 KCAL/MOL
REMARK 927      BINDING AFFINITY PREDICTED BY RF-SCORE:    0.00 PKD
ROOT
HETATM    1  C   UNL     1     -11.710  12.221  67.309  1.00  0.00    -0.394 C  
HETATM    2  C   UNL     1     -10.720  12.209  68.462  1.00  0.00    -0.257 C  
ENDROOT
BRANCH   2   3
HETATM    3  C   UNL     1     -11.007  11.055  69.419  1.00  0.00    -0.301 C  
BRANCH   3   4
HETATM    4  C   UNL     1     -12.256  11.329  70.251  1.00  0.00    -0.428 C  
BRANCH   4   5
HETATM    5  C   UNL     1     -12.453  10.238  71.299  1.00  0.00    -0.514 C  
BRANCH   5   6
HETATM    6  C   UNL     1     -11.190   9.399  71.446  1.00  0.00    -0.452 C  
BRANCH   6   7
HETATM    7  C   UNL     1     -11.387   8.280  72.464  1.00  0.00    -0.455 C  
BRANCH   7   8
HETATM    8  C   UNL     1     -12.209   7.157  71.846  1.00  0.00    -0.358 C  
BRANCH   8   9
HETATM    9  C   UNL     1     -11.501   5.810  71.958  1.00  0.00    -0.260 C  
BRANCH   9  10
HETATM   10  C   UNL     1     -10.798   5.632  73.304  1.00  0.00    -0.321 C  
BRANCH  10  11
HETATM   11  C   UNL     1      -9.324   5.217  73.215  1.00  0.00    -0.139 C  
BRANCH  11  12
HETATM   12  C   UNL     1      -8.849   5.003  71.773  1.00  0.00    -0.133 C  
BRANCH  12  13
HETATM   13  N   UNL     1      -7.884   6.095  71.271  1.00  0.00    -0.109 N  
HETATM   14  C   UNL     1      -7.422   6.976  72.426  1.00  0.00    -0.085 C  
HETATM   15  C   UNL     1      -6.670   5.473  70.592  1.00  0.00    -0.047 C  
BRANCH  13  16
HETATM   16  C   UNL     1      -8.673   6.954  70.225  1.00  0.00    -0.144 C  
BRANCH  16  17
HETATM   17  C   UNL     1      -8.898   6.289  68.890  1.00  0.00    -0.124 A  
HETATM   18  C   UNL     1      -9.842   5.257  68.756  1.00  0.00    -0.224 A  
HETATM   19  C   UNL     1      -9.902   4.504  67.584  1.00  0.00    -0.181 A  
HETATM   20  C   UNL     1      -9.042   4.792  66.526  1.00  0.00    -0.121 A  
HETATM   21  C   UNL     1      -8.155   5.861  66.618  1.00  0.00    -0.102 A  
HETATM   22  C   UNL     1      -8.093   6.617  67.788  1.00  0.00    -0.116 A  
ENDBRANCH  16  17
ENDBRANCH  13  16
ENDBRANCH  12  13
ENDBRANCH  11  12
ENDBRANCH  10  11
ENDBRANCH   9  10
ENDBRANCH   8   9
ENDBRANCH   7   8
ENDBRANCH   6   7
ENDBRANCH   5   6
ENDBRANCH   4   5
ENDBRANCH   3   4
ENDBRANCH   2   3
TORSDOF 13
ENDMDL
MODEL      314
REMARK 921   NORMALIZED FREE ENERGY PREDICTED BY IDOCK:   -2.77 KCAL/MOL
REMARK 922        TOTAL FREE ENERGY PREDICTED BY IDOCK:   -6.35 KCAL/MOL
REMARK 923 INTER-LIGAND FREE ENERGY PREDICTED BY IDOCK:   -5.23 KCAL/MOL
REMARK 924 INTRA-LIGAND FREE ENERGY PREDICTED BY IDOCK:   -1.12 KCAL/MOL
REMARK 927      BINDING AFFINITY PREDICTED BY RF-SCORE:    0.00 PKD
ROOT
HETATM    1  C   UNL     1      -6.775  13.040  69.042  1.00  0.00    -0.099 C  
HETATM    2  C   UNL     1      -6.692  11.758  68.230  1.00  0.00    -0.065 C  
ENDROOT
BRANCH   2   3
HETATM    3  C   UNL     1      -5.758  11.927  67.035  1.00  0.00    -0.139 C  
BRANCH   3   4
HETATM    4  C   UNL     1      -5.161  10.589  66.610  1.00  0.00    -0.047 C  
BRANCH   4   5
HETATM    5  C   UNL     1      -6.265   9.569  66.345  1.00  0.00    -0.064 C  
BRANCH   5   6
HETATM    6  C   UNL     1      -6.450   9.352  64.849  1.00  0.00    -0.078 C  
BRANCH   6   7
HETATM    7  C   UNL     1      -7.681  10.091  64.333  1.00  0.00    -0.145 C  
BRANCH   7   8
HETATM    8  C   UNL     1      -8.933   9.540  65.002  1.00  0.00    -0.258 C  
BRANCH   8   9
HETATM    9  C   UNL     1      -9.883  10.654  65.429  1.00  0.00    -0.325 C  
BRANCH   9  10
HETATM   10  C   UNL     1     -10.902  11.001  64.343  1.00  0.00    -0.263 C  
BRANCH  10  11
HETATM   11  C   UNL     1     -11.738  12.257  64.617  1.00  0.00    -0.420 C  
BRANCH  11  12
HETATM   12  C   UNL     1     -11.008  13.555  64.252  1.00  0.00    -0.336 C  
BRANCH  12  13
HETATM   13  N   UNL     1     -10.944  14.574  65.406  1.00  0.00    -0.323 N  
HETATM   14  C   UNL     1     -11.066  15.997  64.875  1.00  0.00    -0.370 C  
HETATM   15  C   UNL     1     -12.056  14.315  66.417  1.00  0.00    -0.419 C  
BRANCH  13  16
HETATM   16  C   UNL     1      -9.557  14.382  66.109  1.00  0.00    -0.283 C  
BRANCH  16  17
HETATM   17  C   UNL     1      -9.061  15.577  66.885  1.00  0.00    -0.264 A  
HETATM   18  C   UNL     1      -9.646  15.922  68.115  1.00  0.00    -0.208 A  
HETATM   19  C   UNL     1      -9.336  17.135  68.727  1.00  0.00    -0.252 A  
HETATM   20  C   UNL     1      -8.419  18.001  68.134  1.00  0.00    -0.273 A  
HETATM   21  C   UNL     1      -7.776  17.635  66.955  1.00  0.00    -0.245 A  
HETATM   22  C   UNL     1      -8.082  16.421  66.340  1.00  0.00    -0.357 A  
ENDBRANCH  16  17
ENDBRANCH  13  16
ENDBRANCH  12  13
ENDBRANCH  11  12
ENDBRANCH  10  11
ENDBRANCH   9  10
ENDBRANCH   8   9
ENDBRANCH   7   8
ENDBRANCH   6   7
ENDBRANCH   5   6
ENDBRANCH   4   5
ENDBRANCH   3   4
ENDBRANCH   2   3
TORSDOF 13
ENDMDL
MODEL      315
REMARK 921   NORMALIZED FREE ENERGY PREDICTED BY IDOCK:   -2.76 KCAL/MOL
REMARK 922        TOTAL FREE ENERGY PREDICTED BY IDOCK:   -6.33 KCAL/MOL
REMARK 923 INTER-LIGAND FREE ENERGY PREDICTED BY IDOCK:   -4.82 KCAL/MOL
REMARK 924 INTRA-LIGAND FREE ENERGY PREDICTED BY IDOCK:   -1.51 KCAL/MOL
REMARK 927      BINDING AFFINITY PREDICTED BY RF-SCORE:    0.00 PKD
ROOT
HETATM    1  C   UNL     1      -9.292   5.910  70.813  1.00  0.00    -0.180 C  
HETATM    2  C   UNL     1      -8.412   4.976  69.999  1.00  0.00    -0.096 C  
ENDROOT
BRANCH   2   3
HETATM    3  C   UNL     1      -7.221   5.724  69.407  1.00  0.00    -0.066 C  
BRANCH   3   4
HETATM    4  C   UNL     1      -6.682   5.010  68.171  1.00  0.00    -0.055 C  
BRANCH   4   5
HETATM    5  C   UNL     1      -6.419   6.007  67.046  1.00  0.00    -0.050 C  
BRANCH   5   6
HETATM    6  C   UNL     1      -7.036   5.521  65.742  1.00  0.00    -0.067 C  
BRANCH   6   7
HETATM    7  C   UNL     1      -8.315   4.730  65.998  1.00  0.00    -0.112 C  
BRANCH   7   8
HETATM    8  C   UNL     1      -9.524   5.649  65.880  1.00  0.00    -0.087 C  
BRANCH   8   9
HETATM    9  C   UNL     1     -10.486   5.469  67.050  1.00  0.00    -0.336 C  
BRANCH   9  10
HETATM   10  C   UNL     1     -10.899   6.803  67.675  1.00  0.00    -0.361 C  
BRANCH  10  11
HETATM   11  C   UNL     1      -9.850   7.917  67.576  1.00  0.00    -0.221 C  
BRANCH  11  12
HETATM   12  C   UNL     1     -10.427   9.239  67.056  1.00  0.00    -0.233 C  
BRANCH  12  13
HETATM   13  N   UNL     1      -9.403  10.390  67.020  1.00  0.00    -0.153 N  
HETATM   14  C   UNL     1      -8.199  10.065  67.896  1.00  0.00    -0.113 C  
HETATM   15  C   UNL     1      -8.935  10.651  65.593  1.00  0.00    -0.185 C  
BRANCH  13  16
HETATM   16  C   UNL     1     -10.132  11.666  67.563  1.00  0.00    -0.191 C  
BRANCH  16  17
HETATM   17  C   UNL     1     -10.653  12.605  66.503  1.00  0.00    -0.272 A  
HETATM   18  C   UNL     1     -10.048  13.856  66.298  1.00  0.00    -0.306 A  
HETATM   19  C   UNL     1     -10.651  14.803  65.472  1.00  0.00    -0.374 A  
HETATM   20  C   UNL     1     -11.846  14.502  64.822  1.00  0.00    -0.446 A  
HETATM   21  C   UNL     1     -12.415  13.238  64.957  1.00  0.00    -0.498 A  
HETATM   22  C   UNL     1     -11.814  12.287  65.781  1.00  0.00    -0.417 A  
ENDBRANCH  16  17
ENDBRANCH  13  16
ENDBRANCH  12  13
ENDBRANCH  11  12
ENDBRANCH  10  11
ENDBRANCH   9  10
ENDBRANCH   8   9
ENDBRANCH   7   8
ENDBRANCH   6   7
ENDBRANCH   5   6
ENDBRANCH   4   5
ENDBRANCH   3   4
ENDBRANCH   2   3
TORSDOF 13
ENDMDL
MODEL      316
REMARK 921   NORMALIZED FREE ENERGY PREDICTED BY IDOCK:   -2.76 KCAL/MOL
REMARK 922        TOTAL FREE ENERGY PREDICTED BY IDOCK:   -6.33 KCAL/MOL
REMARK 923 INTER-LIGAND FREE ENERGY PREDICTED BY IDOCK:   -5.28 KCAL/MOL
REMARK 924 INTRA-LIGAND FREE ENERGY PREDICTED BY IDOCK:   -1.05 KCAL/MOL
REMARK 927      BINDING AFFINITY PREDICTED BY RF-SCORE:    0.00 PKD
ROOT
HETATM    1  C   UNL     1     -12.205  14.870  70.591  1.00  0.00    -0.379 C  
HETATM    2  C   UNL     1     -12.063  14.432  69.143  1.00  0.00    -0.316 C  
ENDROOT
BRANCH   2   3
HETATM    3  C   UNL     1     -11.488  15.557  68.285  1.00  0.00    -0.359 C  
BRANCH   3   4
HETATM    4  C   UNL     1     -10.940  15.019  66.967  1.00  0.00    -0.318 C  
BRANCH   4   5
HETATM    5  C   UNL     1     -11.958  14.097  66.299  1.00  0.00    -0.448 C  
BRANCH   5   6
HETATM    6  C   UNL     1     -12.168  14.493  64.844  1.00  0.00    -0.409 C  
BRANCH   6   7
HETATM    7  C   UNL     1     -11.980  13.297  63.915  1.00  0.00    -0.541 C  
BRANCH   7   8
HETATM    8  C   UNL     1     -11.168  12.218  64.619  1.00  0.00    -0.363 C  
BRANCH   8   9
HETATM    9  C   UNL     1     -10.736  11.117  63.656  1.00  0.00    -0.381 C  
BRANCH   9  10
HETATM   10  C   UNL     1      -9.535  11.526  62.803  1.00  0.00    -0.226 C  
BRANCH  10  11
HETATM   11  C   UNL     1      -8.507  10.416  62.556  1.00  0.00    -0.214 C  
BRANCH  11  12
HETATM   12  C   UNL     1      -7.589  10.172  63.760  1.00  0.00    -0.133 C  
BRANCH  12  13
HETATM   13  N   UNL     1      -7.469   8.687  64.155  1.00  0.00    -0.105 N  
HETATM   14  C   UNL     1      -7.695   7.789  62.945  1.00  0.00    -0.131 C  
HETATM   15  C   UNL     1      -6.096   8.396  64.750  1.00  0.00    -0.063 C  
BRANCH  13  16
HETATM   16  C   UNL     1      -8.566   8.412  65.239  1.00  0.00    -0.150 C  
BRANCH  16  17
HETATM   17  C   UNL     1      -8.338   9.090  66.568  1.00  0.00    -0.115 A  
HETATM   18  C   UNL     1      -7.925   8.347  67.686  1.00  0.00    -0.110 A  
HETATM   19  C   UNL     1      -7.916   8.928  68.953  1.00  0.00    -0.104 A  
HETATM   20  C   UNL     1      -8.291  10.260  69.112  1.00  0.00    -0.154 A  
HETATM   21  C   UNL     1      -8.628  11.028  68.001  1.00  0.00    -0.134 A  
HETATM   22  C   UNL     1      -8.637  10.451  66.731  1.00  0.00    -0.125 A  
ENDBRANCH  16  17
ENDBRANCH  13  16
ENDBRANCH  12  13
ENDBRANCH  11  12
ENDBRANCH  10  11
ENDBRANCH   9  10
ENDBRANCH   8   9
ENDBRANCH   7   8
ENDBRANCH   6   7
ENDBRANCH   5   6
ENDBRANCH   4   5
ENDBRANCH   3   4
ENDBRANCH   2   3
TORSDOF 13
ENDMDL
MODEL      317
REMARK 921   NORMALIZED FREE ENERGY PREDICTED BY IDOCK:   -2.76 KCAL/MOL
REMARK 922        TOTAL FREE ENERGY PREDICTED BY IDOCK:   -6.32 KCAL/MOL
REMARK 923 INTER-LIGAND FREE ENERGY PREDICTED BY IDOCK:   -5.67 KCAL/MOL
REMARK 924 INTRA-LIGAND FREE ENERGY PREDICTED BY IDOCK:   -0.65 KCAL/MOL
REMARK 927      BINDING AFFINITY PREDICTED BY RF-SCORE:    0.00 PKD
ROOT
HETATM    1  C   UNL     1     -12.678  15.313  71.194  1.00  0.00    -0.476 C  
HETATM    2  C   UNL     1     -11.537  15.062  70.222  1.00  0.00    -0.329 C  
ENDROOT
BRANCH   2   3
HETATM    3  C   UNL     1     -11.840  13.870  69.318  1.00  0.00    -0.394 C  
BRANCH   3   4
HETATM    4  C   UNL     1     -10.762  13.700  68.252  1.00  0.00    -0.266 C  
BRANCH   4   5
HETATM    5  C   UNL     1     -11.198  14.345  66.940  1.00  0.00    -0.340 C  
BRANCH   5   6
HETATM    6  C   UNL     1     -12.327  13.550  66.299  1.00  0.00    -0.440 C  
BRANCH   6   7
HETATM    7  C   UNL     1     -12.209  13.553  64.778  1.00  0.00    -0.450 C  
BRANCH   7   8
HETATM    8  C   UNL     1     -10.827  13.063  64.365  1.00  0.00    -0.409 C  
BRANCH   8   9
HETATM    9  C   UNL     1     -10.897  11.726  63.633  1.00  0.00    -0.508 C  
BRANCH   9  10
HETATM   10  C   UNL     1     -10.116  10.626  64.352  1.00  0.00    -0.418 C  
BRANCH  10  11
HETATM   11  C   UNL     1      -9.830  10.898  65.834  1.00  0.00    -0.285 C  
BRANCH  11  12
HETATM   12  C   UNL     1      -9.513   9.623  66.626  1.00  0.00    -0.170 C  
BRANCH  12  13
HETATM   13  N   UNL     1      -9.357   9.860  68.141  1.00  0.00    -0.131 N  
HETATM   14  C   UNL     1      -8.542  11.119  68.408  1.00  0.00    -0.152 C  
HETATM   15  C   UNL     1     -10.721   9.989  68.810  1.00  0.00    -0.223 C  
BRANCH  13  16
HETATM   16  C   UNL     1      -8.616   8.608  68.724  1.00  0.00    -0.130 C  
BRANCH  16  17
HETATM   17  C   UNL     1      -7.885   8.844  70.023  1.00  0.00    -0.095 A  
HETATM   18  C   UNL     1      -6.601   9.414  70.026  1.00  0.00    -0.059 A  
HETATM   19  C   UNL     1      -5.844   9.439  71.196  1.00  0.00    -0.068 A  
HETATM   20  C   UNL     1      -6.371   8.924  72.379  1.00  0.00    -0.001 A  
HETATM   21  C   UNL     1      -7.672   8.427  72.405  1.00  0.00    -0.145 A  
HETATM   22  C   UNL     1      -8.433   8.401  71.236  1.00  0.00    -0.183 A  
ENDBRANCH  16  17
ENDBRANCH  13  16
ENDBRANCH  12  13
ENDBRANCH  11  12
ENDBRANCH  10  11
ENDBRANCH   9  10
ENDBRANCH   8   9
ENDBRANCH   7   8
ENDBRANCH   6   7
ENDBRANCH   5   6
ENDBRANCH   4   5
ENDBRANCH   3   4
ENDBRANCH   2   3
TORSDOF 13
ENDMDL
MODEL      318
REMARK 921   NORMALIZED FREE ENERGY PREDICTED BY IDOCK:   -2.76 KCAL/MOL
REMARK 922        TOTAL FREE ENERGY PREDICTED BY IDOCK:   -6.32 KCAL/MOL
REMARK 923 INTER-LIGAND FREE ENERGY PREDICTED BY IDOCK:   -4.60 KCAL/MOL
REMARK 924 INTRA-LIGAND FREE ENERGY PREDICTED BY IDOCK:   -1.72 KCAL/MOL
REMARK 927      BINDING AFFINITY PREDICTED BY RF-SCORE:    0.00 PKD
ROOT
HETATM    1  C   UNL     1     -10.820   7.319  67.041  1.00  0.00    -0.350 C  
HETATM    2  C   UNL     1     -10.243   6.566  68.227  1.00  0.00    -0.195 C  
ENDROOT
BRANCH   2   3
HETATM    3  C   UNL     1      -8.851   6.026  67.909  1.00  0.00    -0.110 C  
BRANCH   3   4
HETATM    4  C   UNL     1      -8.801   4.509  68.062  1.00  0.00    -0.122 C  
BRANCH   4   5
HETATM    5  C   UNL     1      -7.381   4.048  68.379  1.00  0.00    -0.059 C  
BRANCH   5   6
HETATM    6  C   UNL     1      -7.395   2.676  69.040  1.00  0.00    -0.044 C  
BRANCH   6   7
HETATM    7  C   UNL     1      -8.821   2.159  69.205  1.00  0.00    -0.144 C  
BRANCH   7   8
HETATM    8  C   UNL     1      -9.074   1.795  70.662  1.00  0.00    -0.148 C  
BRANCH   8   9
HETATM    9  C   UNL     1      -8.858   2.987  71.588  1.00  0.00    -0.124 C  
BRANCH   9  10
HETATM   10  C   UNL     1     -10.174   3.619  72.043  1.00  0.00    -0.145 C  
BRANCH  10  11
HETATM   11  C   UNL     1     -10.383   5.072  71.598  1.00  0.00    -0.262 C  
BRANCH  11  12
HETATM   12  C   UNL     1      -9.129   5.937  71.773  1.00  0.00    -0.142 C  
BRANCH  12  13
HETATM   13  N   UNL     1      -8.989   6.545  73.182  1.00  0.00    -0.128 N  
HETATM   14  C   UNL     1     -10.275   6.361  73.978  1.00  0.00    -0.332 C  
HETATM   15  C   UNL     1      -7.832   5.898  73.935  1.00  0.00    -0.099 C  
BRANCH  13  16
HETATM   16  C   UNL     1      -8.688   8.071  72.993  1.00  0.00    -0.219 C  
BRANCH  16  17
HETATM   17  C   UNL     1      -9.567   8.777  71.991  1.00  0.00    -0.356 A  
HETATM   18  C   UNL     1     -10.962   8.807  72.160  1.00  0.00    -0.404 A  
HETATM   19  C   UNL     1     -11.786   9.272  71.137  1.00  0.00    -0.394 A  
HETATM   20  C   UNL     1     -11.227   9.737  69.948  1.00  0.00    -0.271 A  
HETATM   21  C   UNL     1      -9.844   9.784  69.799  1.00  0.00    -0.262 A  
HETATM   22  C   UNL     1      -9.015   9.321  70.821  1.00  0.00    -0.292 A  
ENDBRANCH  16  17
ENDBRANCH  13  16
ENDBRANCH  12  13
ENDBRANCH  11  12
ENDBRANCH  10  11
ENDBRANCH   9  10
ENDBRANCH   8   9
ENDBRANCH   7   8
ENDBRANCH   6   7
ENDBRANCH   5   6
ENDBRANCH   4   5
ENDBRANCH   3   4
ENDBRANCH   2   3
TORSDOF 13
ENDMDL
MODEL      319
REMARK 921   NORMALIZED FREE ENERGY PREDICTED BY IDOCK:   -2.74 KCAL/MOL
REMARK 922        TOTAL FREE ENERGY PREDICTED BY IDOCK:   -6.30 KCAL/MOL
REMARK 923 INTER-LIGAND FREE ENERGY PREDICTED BY IDOCK:   -6.12 KCAL/MOL
REMARK 924 INTRA-LIGAND FREE ENERGY PREDICTED BY IDOCK:   -0.18 KCAL/MOL
REMARK 927      BINDING AFFINITY PREDICTED BY RF-SCORE:    0.00 PKD
ROOT
HETATM    1  C   UNL     1      -5.854  19.275  70.049  1.00  0.00    -0.285 C  
HETATM    2  C   UNL     1      -6.622  19.633  68.787  1.00  0.00    -0.337 C  
ENDROOT
BRANCH   2   3
HETATM    3  C   UNL     1      -7.955  18.891  68.728  1.00  0.00    -0.352 C  
BRANCH   3   4
HETATM    4  C   UNL     1      -9.102  19.784  69.190  1.00  0.00    -0.047 C  
BRANCH   4   5
HETATM    5  C   UNL     1     -10.271  19.704  68.212  1.00  0.00    -0.567 C  
BRANCH   5   6
HETATM    6  C   UNL     1     -10.421  18.290  67.667  1.00  0.00    -0.431 C  
BRANCH   6   7
HETATM    7  C   UNL     1     -10.064  18.231  66.185  1.00  0.00    -0.354 C  
BRANCH   7   8
HETATM    8  C   UNL     1      -8.979  17.188  65.955  1.00  0.00    -0.141 C  
BRANCH   8   9
HETATM    9  C   UNL     1      -9.503  15.770  66.163  1.00  0.00    -0.375 C  
BRANCH   9  10
HETATM   10  C   UNL     1     -10.372  15.294  64.998  1.00  0.00    -0.375 C  
BRANCH  10  11
HETATM   11  C   UNL     1     -10.758  13.810  65.043  1.00  0.00    -0.391 C  
BRANCH  11  12
HETATM   12  C   UNL     1      -9.991  13.024  66.114  1.00  0.00    -0.278 C  
BRANCH  12  13
HETATM   13  N   UNL     1     -10.525  11.595  66.333  1.00  0.00    -0.236 N  
HETATM   14  C   UNL     1     -11.664  11.596  67.344  1.00  0.00    -0.201 C  
HETATM   15  C   UNL     1     -11.014  10.995  65.020  1.00  0.00    -0.047 C  
BRANCH  13  16
HETATM   16  C   UNL     1      -9.329  10.740  66.874  1.00  0.00    -0.160 C  
BRANCH  16  17
HETATM   17  C   UNL     1      -9.711   9.402  67.457  1.00  0.00    -0.198 A  
HETATM   18  C   UNL     1     -10.003   8.314  66.617  1.00  0.00    -0.348 A  
HETATM   19  C   UNL     1     -10.556   7.147  67.142  1.00  0.00    -0.417 A  
HETATM   20  C   UNL     1     -10.795   7.043  68.510  1.00  0.00    -0.187 A  
HETATM   21  C   UNL     1     -10.439   8.084  69.362  1.00  0.00    -0.223 A  
HETATM   22  C   UNL     1      -9.884   9.254  68.842  1.00  0.00    -0.170 A  
ENDBRANCH  16  17
ENDBRANCH  13  16
ENDBRANCH  12  13
ENDBRANCH  11  12
ENDBRANCH  10  11
ENDBRANCH   9  10
ENDBRANCH   8   9
ENDBRANCH   7   8
ENDBRANCH   6   7
ENDBRANCH   5   6
ENDBRANCH   4   5
ENDBRANCH   3   4
ENDBRANCH   2   3
TORSDOF 13
ENDMDL
MODEL      320
REMARK 921   NORMALIZED FREE ENERGY PREDICTED BY IDOCK:   -2.74 KCAL/MOL
REMARK 922        TOTAL FREE ENERGY PREDICTED BY IDOCK:   -6.30 KCAL/MOL
REMARK 923 INTER-LIGAND FREE ENERGY PREDICTED BY IDOCK:   -4.88 KCAL/MOL
REMARK 924 INTRA-LIGAND FREE ENERGY PREDICTED BY IDOCK:   -1.41 KCAL/MOL
REMARK 927      BINDING AFFINITY PREDICTED BY RF-SCORE:    0.00 PKD
ROOT
HETATM    1  C   UNL     1     -12.512  12.100  63.546  1.00  0.00    -0.666 C  
HETATM    2  C   UNL     1     -11.038  11.737  63.474  1.00  0.00    -0.503 C  
ENDROOT
BRANCH   2   3
HETATM    3  C   UNL     1     -10.400  11.760  64.860  1.00  0.00    -0.334 C  
BRANCH   3   4
HETATM    4  C   UNL     1      -9.695  10.442  65.163  1.00  0.00    -0.353 C  
BRANCH   4   5
HETATM    5  C   UNL     1      -9.255  10.391  66.624  1.00  0.00    -0.178 C  
BRANCH   5   6
HETATM    6  C   UNL     1      -8.466   9.120  66.905  1.00  0.00    -0.124 C  
BRANCH   6   7
HETATM    7  C   UNL     1      -9.002   8.400  68.138  1.00  0.00    -0.139 C  
BRANCH   7   8
HETATM    8  C   UNL     1     -10.480   8.081  67.950  1.00  0.00    -0.259 C  
BRANCH   8   9
HETATM    9  C   UNL     1     -10.750   6.582  68.038  1.00  0.00    -0.351 C  
BRANCH   9  10
HETATM   10  C   UNL     1     -11.221   6.155  69.429  1.00  0.00    -0.466 C  
BRANCH  10  11
HETATM   11  C   UNL     1     -10.178   5.403  70.264  1.00  0.00    -0.338 C  
BRANCH  11  12
HETATM   12  C   UNL     1      -8.936   5.009  69.456  1.00  0.00    -0.096 C  
BRANCH  12  13
HETATM   13  N   UNL     1      -8.378   3.618  69.818  1.00  0.00    -0.052 N  
HETATM   14  C   UNL     1      -7.052   3.746  70.558  1.00  0.00    -0.037 C  
HETATM   15  C   UNL     1      -9.368   2.849  70.685  1.00  0.00    -0.150 C  
BRANCH  13  16
HETATM   16  C   UNL     1      -8.168   2.846  68.471  1.00  0.00    -0.064 C  
BRANCH  16  17
HETATM   17  C   UNL     1      -8.273   3.691  67.226  1.00  0.00    -0.091 A  
HETATM   18  C   UNL     1      -7.291   4.651  66.929  1.00  0.00    -0.081 A  
HETATM   19  C   UNL     1      -7.492   5.570  65.900  1.00  0.00    -0.082 A  
HETATM   20  C   UNL     1      -8.659   5.522  65.141  1.00  0.00    -0.141 A  
HETATM   21  C   UNL     1      -9.604   4.528  65.376  1.00  0.00    -0.185 A  
HETATM   22  C   UNL     1      -9.407   3.605  66.403  1.00  0.00    -0.194 A  
ENDBRANCH  16  17
ENDBRANCH  13  16
ENDBRANCH  12  13
ENDBRANCH  11  12
ENDBRANCH  10  11
ENDBRANCH   9  10
ENDBRANCH   8   9
ENDBRANCH   7   8
ENDBRANCH   6   7
ENDBRANCH   5   6
ENDBRANCH   4   5
ENDBRANCH   3   4
ENDBRANCH   2   3
TORSDOF 13
ENDMDL
MODEL      321
REMARK 921   NORMALIZED FREE ENERGY PREDICTED BY IDOCK:   -2.74 KCAL/MOL
REMARK 922        TOTAL FREE ENERGY PREDICTED BY IDOCK:   -6.29 KCAL/MOL
REMARK 923 INTER-LIGAND FREE ENERGY PREDICTED BY IDOCK:   -5.80 KCAL/MOL
REMARK 924 INTRA-LIGAND FREE ENERGY PREDICTED BY IDOCK:   -0.49 KCAL/MOL
REMARK 927      BINDING AFFINITY PREDICTED BY RF-SCORE:    0.00 PKD
ROOT
HETATM    1  C   UNL     1     -11.165  16.187  70.362  1.00  0.00    -0.394 C  
HETATM    2  C   UNL     1     -11.587  15.263  69.232  1.00  0.00    -0.350 C  
ENDROOT
BRANCH   2   3
HETATM    3  C   UNL     1     -10.662  15.414  68.026  1.00  0.00    -0.279 C  
BRANCH   3   4
HETATM    4  C   UNL     1     -10.145  14.058  67.556  1.00  0.00    -0.237 C  
BRANCH   4   5
HETATM    5  C   UNL     1     -11.305  13.151  67.155  1.00  0.00    -0.354 C  
BRANCH   5   6
HETATM    6  C   UNL     1     -11.043  12.512  65.797  1.00  0.00    -0.343 C  
BRANCH   6   7
HETATM    7  C   UNL     1     -10.580  11.067  65.949  1.00  0.00    -0.270 C  
BRANCH   7   8
HETATM    8  C   UNL     1     -10.741  10.621  67.396  1.00  0.00    -0.326 C  
BRANCH   8   9
HETATM    9  C   UNL     1     -10.093   9.262  67.644  1.00  0.00    -0.266 C  
BRANCH   9  10
HETATM   10  C   UNL     1      -9.560   8.627  66.359  1.00  0.00    -0.316 C  
BRANCH  10  11
HETATM   11  C   UNL     1      -8.919   7.245  66.537  1.00  0.00    -0.175 C  
BRANCH  11  12
HETATM   12  C   UNL     1      -8.515   6.955  67.988  1.00  0.00    -0.124 C  
BRANCH  12  13
HETATM   13  N   UNL     1      -9.000   5.587  68.504  1.00  0.00    -0.110 N  
HETATM   14  C   UNL     1      -8.814   4.513  67.438  1.00  0.00    -0.106 C  
HETATM   15  C   UNL     1      -8.242   5.185  69.763  1.00  0.00    -0.089 C  
BRANCH  13  16
HETATM   16  C   UNL     1     -10.521   5.742  68.847  1.00  0.00    -0.256 C  
BRANCH  16  17
HETATM   17  C   UNL     1     -10.814   6.294  70.220  1.00  0.00    -0.366 A  
HETATM   18  C   UNL     1     -11.000   7.673  70.410  1.00  0.00    -0.256 A  
HETATM   19  C   UNL     1     -11.061   8.206  71.697  1.00  0.00    -0.310 A  
HETATM   20  C   UNL     1     -10.966   7.366  72.804  1.00  0.00    -0.387 A  
HETATM   21  C   UNL     1     -10.858   5.989  72.628  1.00  0.00    -0.280 A  
HETATM   22  C   UNL     1     -10.798   5.452  71.342  1.00  0.00    -0.210 A  
ENDBRANCH  16  17
ENDBRANCH  13  16
ENDBRANCH  12  13
ENDBRANCH  11  12
ENDBRANCH  10  11
ENDBRANCH   9  10
ENDBRANCH   8   9
ENDBRANCH   7   8
ENDBRANCH   6   7
ENDBRANCH   5   6
ENDBRANCH   4   5
ENDBRANCH   3   4
ENDBRANCH   2   3
TORSDOF 13
ENDMDL
MODEL      322
REMARK 921   NORMALIZED FREE ENERGY PREDICTED BY IDOCK:   -2.73 KCAL/MOL
REMARK 922        TOTAL FREE ENERGY PREDICTED BY IDOCK:   -6.28 KCAL/MOL
REMARK 923 INTER-LIGAND FREE ENERGY PREDICTED BY IDOCK:   -5.77 KCAL/MOL
REMARK 924 INTRA-LIGAND FREE ENERGY PREDICTED BY IDOCK:   -0.52 KCAL/MOL
REMARK 927      BINDING AFFINITY PREDICTED BY RF-SCORE:    0.00 PKD
ROOT
HETATM    1  C   UNL     1      -7.783   3.752  73.697  1.00  0.00    -0.075 C  
HETATM    2  C   UNL     1      -8.529   4.376  72.530  1.00  0.00    -0.109 C  
ENDROOT
BRANCH   2   3
HETATM    3  C   UNL     1      -8.890   5.830  72.826  1.00  0.00    -0.121 C  
BRANCH   3   4
HETATM    4  C   UNL     1     -10.290   5.939  73.421  1.00  0.00    -0.246 C  
BRANCH   4   5
HETATM    5  C   UNL     1     -11.335   5.426  72.434  1.00  0.00    -0.242 C  
BRANCH   5   6
HETATM    6  C   UNL     1     -11.605   6.462  71.351  1.00  0.00    -0.368 C  
BRANCH   6   7
HETATM    7  C   UNL     1     -12.658   7.469  71.801  1.00  0.00    -0.363 C  
BRANCH   7   8
HETATM    8  C   UNL     1     -12.014   8.832  72.014  1.00  0.00    -0.446 C  
BRANCH   8   9
HETATM    9  C   UNL     1     -12.991   9.969  71.735  1.00  0.00    -0.560 C  
BRANCH   9  10
HETATM   10  C   UNL     1     -12.403  11.028  70.800  1.00  0.00    -0.496 C  
BRANCH  10  11
HETATM   11  C   UNL     1     -11.206  10.560  69.964  1.00  0.00    -0.386 C  
BRANCH  11  12
HETATM   12  C   UNL     1     -10.548  11.696  69.172  1.00  0.00    -0.108 C  
BRANCH  12  13
HETATM   13  N   UNL     1     -10.928  11.710  67.678  1.00  0.00    -0.224 N  
HETATM   14  C   UNL     1     -11.392  10.329  67.229  1.00  0.00     0.198 C  
HETATM   15  C   UNL     1     -12.032  12.726  67.411  1.00  0.00    -0.272 C  
BRANCH  13  16
HETATM   16  C   UNL     1      -9.643  12.128  66.885  1.00  0.00    -0.206 C  
BRANCH  16  17
HETATM   17  C   UNL     1      -9.573  11.618  65.466  1.00  0.00    -0.241 A  
HETATM   18  C   UNL     1     -10.198  12.321  64.423  1.00  0.00    -0.341 A  
HETATM   19  C   UNL     1     -10.313  11.749  63.157  1.00  0.00    -0.364 A  
HETATM   20  C   UNL     1      -9.782  10.485  62.913  1.00  0.00    -0.304 A  
HETATM   21  C   UNL     1      -9.093   9.811  63.918  1.00  0.00    -0.275 A  
HETATM   22  C   UNL     1      -8.974  10.380  65.185  1.00  0.00    -0.217 A  
ENDBRANCH  16  17
ENDBRANCH  13  16
ENDBRANCH  12  13
ENDBRANCH  11  12
ENDBRANCH  10  11
ENDBRANCH   9  10
ENDBRANCH   8   9
ENDBRANCH   7   8
ENDBRANCH   6   7
ENDBRANCH   5   6
ENDBRANCH   4   5
ENDBRANCH   3   4
ENDBRANCH   2   3
TORSDOF 13
ENDMDL
MODEL      323
REMARK 921   NORMALIZED FREE ENERGY PREDICTED BY IDOCK:   -2.73 KCAL/MOL
REMARK 922        TOTAL FREE ENERGY PREDICTED BY IDOCK:   -6.27 KCAL/MOL
REMARK 923 INTER-LIGAND FREE ENERGY PREDICTED BY IDOCK:   -4.49 KCAL/MOL
REMARK 924 INTRA-LIGAND FREE ENERGY PREDICTED BY IDOCK:   -1.78 KCAL/MOL
REMARK 927      BINDING AFFINITY PREDICTED BY RF-SCORE:    0.00 PKD
ROOT
HETATM    1  C   UNL     1     -10.817   8.334  67.269  1.00  0.00    -0.103 C  
HETATM    2  C   UNL     1     -10.040   7.073  67.608  1.00  0.00    -0.218 C  
ENDROOT
BRANCH   2   3
HETATM    3  C   UNL     1      -9.239   6.584  66.404  1.00  0.00    -0.178 C  
BRANCH   3   4
HETATM    4  C   UNL     1      -7.763   6.423  66.754  1.00  0.00    -0.100 C  
BRANCH   4   5
HETATM    5  C   UNL     1      -7.055   7.775  66.726  1.00  0.00    -0.080 C  
BRANCH   5   6
HETATM    6  C   UNL     1      -5.752   7.716  67.513  1.00  0.00    -0.036 C  
BRANCH   6   7
HETATM    7  C   UNL     1      -5.309   9.108  67.950  1.00  0.00    -0.034 C  
BRANCH   7   8
HETATM    8  C   UNL     1      -6.496  10.062  67.922  1.00  0.00    -0.059 C  
BRANCH   8   9
HETATM    9  C   UNL     1      -6.911  10.489  69.327  1.00  0.00    -0.086 C  
BRANCH   9  10
HETATM   10  C   UNL     1      -8.214   9.827  69.777  1.00  0.00    -0.182 C  
BRANCH  10  11
HETATM   11  C   UNL     1      -8.061   8.401  70.320  1.00  0.00    -0.104 C  
BRANCH  11  12
HETATM   12  C   UNL     1      -8.397   8.290  71.813  1.00  0.00    -0.148 C  
BRANCH  12  13
HETATM   13  N   UNL     1      -9.378   7.149  72.143  1.00  0.00    -0.133 N  
HETATM   14  C   UNL     1      -8.665   5.802  72.122  1.00  0.00    -0.133 C  
HETATM   15  C   UNL     1     -10.014   7.363  73.511  1.00  0.00    -0.326 C  
BRANCH  13  16
HETATM   16  C   UNL     1     -10.498   7.178  71.046  1.00  0.00    -0.215 C  
BRANCH  16  17
HETATM   17  C   UNL     1     -11.690   8.043  71.372  1.00  0.00    -0.320 A  
HETATM   18  C   UNL     1     -12.946   7.464  71.620  1.00  0.00    -0.409 A  
HETATM   19  C   UNL     1     -14.084   8.263  71.713  1.00  0.00    -0.510 A  
HETATM   20  C   UNL     1     -13.977   9.647  71.588  1.00  0.00    -0.135 A  
HETATM   21  C   UNL     1     -12.728  10.238  71.419  1.00  0.00    -0.547 A  
HETATM   22  C   UNL     1     -11.586   9.442  71.327  1.00  0.00    -0.434 A  
ENDBRANCH  16  17
ENDBRANCH  13  16
ENDBRANCH  12  13
ENDBRANCH  11  12
ENDBRANCH  10  11
ENDBRANCH   9  10
ENDBRANCH   8   9
ENDBRANCH   7   8
ENDBRANCH   6   7
ENDBRANCH   5   6
ENDBRANCH   4   5
ENDBRANCH   3   4
ENDBRANCH   2   3
TORSDOF 13
ENDMDL
MODEL      324
REMARK 921   NORMALIZED FREE ENERGY PREDICTED BY IDOCK:   -2.73 KCAL/MOL
REMARK 922        TOTAL FREE ENERGY PREDICTED BY IDOCK:   -6.27 KCAL/MOL
REMARK 923 INTER-LIGAND FREE ENERGY PREDICTED BY IDOCK:   -5.56 KCAL/MOL
REMARK 924 INTRA-LIGAND FREE ENERGY PREDICTED BY IDOCK:   -0.72 KCAL/MOL
REMARK 927      BINDING AFFINITY PREDICTED BY RF-SCORE:    0.00 PKD
ROOT
HETATM    1  C   UNL     1      -8.396   4.588  63.909  1.00  0.00    -0.112 C  
HETATM    2  C   UNL     1      -8.688   4.622  65.400  1.00  0.00    -0.134 C  
ENDROOT
BRANCH   2   3
HETATM    3  C   UNL     1     -10.184   4.482  65.668  1.00  0.00    -0.275 C  
BRANCH   3   4
HETATM    4  C   UNL     1     -10.645   5.464  66.741  1.00  0.00    -0.339 C  
BRANCH   4   5
HETATM    5  C   UNL     1      -9.675   6.637  66.847  1.00  0.00    -0.209 C  
BRANCH   5   6
HETATM    6  C   UNL     1      -9.425   6.998  68.306  1.00  0.00    -0.128 C  
BRANCH   6   7
HETATM    7  C   UNL     1      -8.191   7.882  68.450  1.00  0.00    -0.124 C  
BRANCH   7   8
HETATM    8  C   UNL     1      -7.749   8.382  67.081  1.00  0.00    -0.097 C  
BRANCH   8   9
HETATM    9  C   UNL     1      -6.869   9.624  67.189  1.00  0.00    -0.084 C  
BRANCH   9  10
HETATM   10  C   UNL     1      -7.491  10.703  68.077  1.00  0.00    -0.090 C  
BRANCH  10  11
HETATM   11  C   UNL     1      -8.565  11.560  67.397  1.00  0.00    -0.145 C  
BRANCH  11  12
HETATM   12  C   UNL     1      -9.631  12.070  68.375  1.00  0.00    -0.190 C  
BRANCH  12  13
HETATM   13  N   UNL     1     -11.071  11.696  67.971  1.00  0.00    -0.224 N  
HETATM   14  C   UNL     1     -11.580  12.624  66.874  1.00  0.00    -0.373 C  
HETATM   15  C   UNL     1     -11.137  10.254  67.484  1.00  0.00    -0.232 C  
BRANCH  13  16
HETATM   16  C   UNL     1     -11.958  11.846  69.254  1.00  0.00    -0.281 C  
BRANCH  16  17
HETATM   17  C   UNL     1     -11.765  10.771  70.295  1.00  0.00    -0.442 A  
HETATM   18  C   UNL     1     -10.565  10.044  70.356  1.00  0.00    -0.343 A  
HETATM   19  C   UNL     1     -10.465   8.918  71.172  1.00  0.00    -0.336 A  
HETATM   20  C   UNL     1     -11.548   8.525  71.954  1.00  0.00    -0.410 A  
HETATM   21  C   UNL     1     -12.716   9.282  71.960  1.00  0.00    -0.479 A  
HETATM   22  C   UNL     1     -12.821  10.410  71.146  1.00  0.00    -0.511 A  
ENDBRANCH  16  17
ENDBRANCH  13  16
ENDBRANCH  12  13
ENDBRANCH  11  12
ENDBRANCH  10  11
ENDBRANCH   9  10
ENDBRANCH   8   9
ENDBRANCH   7   8
ENDBRANCH   6   7
ENDBRANCH   5   6
ENDBRANCH   4   5
ENDBRANCH   3   4
ENDBRANCH   2   3
TORSDOF 13
ENDMDL
MODEL      325
REMARK 921   NORMALIZED FREE ENERGY PREDICTED BY IDOCK:   -2.71 KCAL/MOL
REMARK 922        TOTAL FREE ENERGY PREDICTED BY IDOCK:   -6.24 KCAL/MOL
REMARK 923 INTER-LIGAND FREE ENERGY PREDICTED BY IDOCK:   -5.81 KCAL/MOL
REMARK 924 INTRA-LIGAND FREE ENERGY PREDICTED BY IDOCK:   -0.43 KCAL/MOL
REMARK 927      BINDING AFFINITY PREDICTED BY RF-SCORE:    0.00 PKD
ROOT
HETATM    1  C   UNL     1     -10.466  19.860  67.565  1.00  0.00    -0.535 C  
HETATM    2  C   UNL     1      -9.220  19.005  67.407  1.00  0.00    -0.326 C  
ENDROOT
BRANCH   2   3
HETATM    3  C   UNL     1      -9.549  17.680  66.723  1.00  0.00    -0.297 C  
BRANCH   3   4
HETATM    4  C   UNL     1      -8.975  16.501  67.503  1.00  0.00    -0.201 C  
BRANCH   4   5
HETATM    5  C   UNL     1      -9.767  15.229  67.214  1.00  0.00    -0.212 C  
BRANCH   5   6
HETATM    6  C   UNL     1     -11.260  15.526  67.158  1.00  0.00    -0.204 C  
BRANCH   6   7
HETATM    7  C   UNL     1     -12.054  14.283  66.771  1.00  0.00    -0.446 C  
BRANCH   7   8
HETATM    8  C   UNL     1     -11.727  13.884  65.338  1.00  0.00    -0.347 C  
BRANCH   8   9
HETATM    9  C   UNL     1     -11.413  12.395  65.223  1.00  0.00    -0.389 C  
BRANCH   9  10
HETATM   10  C   UNL     1     -11.068  11.981  63.792  1.00  0.00    -0.510 C  
BRANCH  10  11
HETATM   11  C   UNL     1     -10.032  10.857  63.675  1.00  0.00    -0.415 C  
BRANCH  11  12
HETATM   12  C   UNL     1      -9.884  10.043  64.966  1.00  0.00    -0.304 C  
BRANCH  12  13
HETATM   13  N   UNL     1      -8.530   9.315  65.087  1.00  0.00    -0.149 N  
HETATM   14  C   UNL     1      -8.377   8.279  63.981  1.00  0.00    -0.031 C  
HETATM   15  C   UNL     1      -7.376  10.308  65.014  1.00  0.00    -0.117 C  
BRANCH  13  16
HETATM   16  C   UNL     1      -8.514   8.611  66.487  1.00  0.00    -0.113 C  
BRANCH  16  17
HETATM   17  C   UNL     1      -8.997   7.182  66.490  1.00  0.00    -0.172 A  
HETATM   18  C   UNL     1     -10.305   6.871  66.895  1.00  0.00    -0.332 A  
HETATM   19  C   UNL     1     -10.684   5.545  67.098  1.00  0.00    -0.265 A  
HETATM   20  C   UNL     1      -9.772   4.517  66.872  1.00  0.00    -0.226 A  
HETATM   21  C   UNL     1      -8.496   4.808  66.396  1.00  0.00    -0.110 A  
HETATM   22  C   UNL     1      -8.113   6.133  66.190  1.00  0.00    -0.115 A  
ENDBRANCH  16  17
ENDBRANCH  13  16
ENDBRANCH  12  13
ENDBRANCH  11  12
ENDBRANCH  10  11
ENDBRANCH   9  10
ENDBRANCH   8   9
ENDBRANCH   7   8
ENDBRANCH   6   7
ENDBRANCH   5   6
ENDBRANCH   4   5
ENDBRANCH   3   4
ENDBRANCH   2   3
TORSDOF 13
ENDMDL
MODEL      326
REMARK 921   NORMALIZED FREE ENERGY PREDICTED BY IDOCK:   -2.70 KCAL/MOL
REMARK 922        TOTAL FREE ENERGY PREDICTED BY IDOCK:   -6.23 KCAL/MOL
REMARK 923 INTER-LIGAND FREE ENERGY PREDICTED BY IDOCK:   -5.06 KCAL/MOL
REMARK 924 INTRA-LIGAND FREE ENERGY PREDICTED BY IDOCK:   -1.17 KCAL/MOL
REMARK 927      BINDING AFFINITY PREDICTED BY RF-SCORE:    0.00 PKD
ROOT
HETATM    1  C   UNL     1      -6.908  12.924  68.484  1.00  0.00    -0.095 C  
HETATM    2  C   UNL     1      -6.615  11.522  67.976  1.00  0.00    -0.058 C  
ENDROOT
BRANCH   2   3
HETATM    3  C   UNL     1      -7.206  11.310  66.585  1.00  0.00    -0.126 C  
BRANCH   3   4
HETATM    4  C   UNL     1      -6.263  10.496  65.704  1.00  0.00    -0.129 C  
BRANCH   4   5
HETATM    5  C   UNL     1      -5.946   9.153  66.355  1.00  0.00    -0.059 C  
BRANCH   5   6
HETATM    6  C   UNL     1      -6.636   8.018  65.610  1.00  0.00    -0.042 C  
BRANCH   6   7
HETATM    7  C   UNL     1      -7.929   7.608  66.307  1.00  0.00    -0.105 C  
BRANCH   7   8
HETATM    8  C   UNL     1      -7.634   6.557  67.369  1.00  0.00    -0.100 C  
BRANCH   8   9
HETATM    9  C   UNL     1      -8.608   6.648  68.540  1.00  0.00    -0.124 C  
BRANCH   9  10
HETATM   10  C   UNL     1      -9.589   5.475  68.575  1.00  0.00    -0.162 C  
BRANCH  10  11
HETATM   11  C   UNL     1     -10.570   5.487  69.753  1.00  0.00    -0.388 C  
BRANCH  11  12
HETATM   12  C   UNL     1     -11.051   6.897  70.117  1.00  0.00    -0.299 C  
BRANCH  12  13
HETATM   13  N   UNL     1     -11.596   7.013  71.554  1.00  0.00    -0.272 N  
HETATM   14  C   UNL     1     -13.120   7.015  71.552  1.00  0.00    -0.339 C  
HETATM   15  C   UNL     1     -11.093   5.861  72.417  1.00  0.00    -0.280 C  
BRANCH  13  16
HETATM   16  C   UNL     1     -11.060   8.364  72.138  1.00  0.00    -0.345 C  
BRANCH  16  17
HETATM   17  C   UNL     1     -10.918   9.483  71.136  1.00  0.00    -0.438 A  
HETATM   18  C   UNL     1     -11.992  10.352  70.879  1.00  0.00    -0.478 A  
HETATM   19  C   UNL     1     -11.935  11.247  69.812  1.00  0.00    -0.431 A  
HETATM   20  C   UNL     1     -10.797  11.304  69.010  1.00  0.00    -0.268 A  
HETATM   21  C   UNL     1      -9.697  10.502  69.302  1.00  0.00    -0.215 A  
HETATM   22  C   UNL     1      -9.749   9.607  70.370  1.00  0.00    -0.304 A  
ENDBRANCH  16  17
ENDBRANCH  13  16
ENDBRANCH  12  13
ENDBRANCH  11  12
ENDBRANCH  10  11
ENDBRANCH   9  10
ENDBRANCH   8   9
ENDBRANCH   7   8
ENDBRANCH   6   7
ENDBRANCH   5   6
ENDBRANCH   4   5
ENDBRANCH   3   4
ENDBRANCH   2   3
TORSDOF 13
ENDMDL
MODEL      327
REMARK 921   NORMALIZED FREE ENERGY PREDICTED BY IDOCK:   -2.70 KCAL/MOL
REMARK 922        TOTAL FREE ENERGY PREDICTED BY IDOCK:   -6.23 KCAL/MOL
REMARK 923 INTER-LIGAND FREE ENERGY PREDICTED BY IDOCK:   -5.71 KCAL/MOL
REMARK 924 INTRA-LIGAND FREE ENERGY PREDICTED BY IDOCK:   -0.52 KCAL/MOL
REMARK 927      BINDING AFFINITY PREDICTED BY RF-SCORE:    0.00 PKD
ROOT
HETATM    1  C   UNL     1     -12.406  14.221  70.463  1.00  0.00    -0.430 C  
HETATM    2  C   UNL     1     -11.770  15.167  69.458  1.00  0.00    -0.351 C  
ENDROOT
BRANCH   2   3
HETATM    3  C   UNL     1     -11.808  14.577  68.050  1.00  0.00    -0.350 C  
BRANCH   3   4
HETATM    4  C   UNL     1     -11.706  13.055  68.089  1.00  0.00    -0.391 C  
BRANCH   4   5
HETATM    5  C   UNL     1     -10.767  12.552  66.997  1.00  0.00    -0.268 C  
BRANCH   5   6
HETATM    6  C   UNL     1      -9.426  13.270  67.068  1.00  0.00    -0.243 C  
BRANCH   6   7
HETATM    7  C   UNL     1      -8.607  12.789  68.261  1.00  0.00    -0.166 C  
BRANCH   7   8
HETATM    8  C   UNL     1      -7.818  11.543  67.880  1.00  0.00    -0.123 C  
BRANCH   8   9
HETATM    9  C   UNL     1      -7.202  10.867  69.101  1.00  0.00    -0.118 C  
BRANCH   9  10
HETATM   10  C   UNL     1      -8.089   9.754  69.660  1.00  0.00    -0.158 C  
BRANCH  10  11
HETATM   11  C   UNL     1      -7.564   8.331  69.430  1.00  0.00    -0.096 C  
BRANCH  11  12
HETATM   12  C   UNL     1      -7.482   7.508  70.721  1.00  0.00    -0.076 C  
BRANCH  12  13
HETATM   13  N   UNL     1      -8.857   7.156  71.320  1.00  0.00    -0.129 N  
HETATM   14  C   UNL     1      -8.895   5.698  71.762  1.00  0.00    -0.136 C  
HETATM   15  C   UNL     1      -9.173   8.054  72.511  1.00  0.00    -0.216 C  
BRANCH  13  16
HETATM   16  C   UNL     1      -9.921   7.402  70.196  1.00  0.00    -0.184 C  
BRANCH  16  17
HETATM   17  C   UNL     1     -11.204   8.046  70.658  1.00  0.00    -0.266 A  
HETATM   18  C   UNL     1     -11.395   9.432  70.526  1.00  0.00    -0.328 A  
HETATM   19  C   UNL     1     -12.482  10.055  71.138  1.00  0.00    -0.480 A  
HETATM   20  C   UNL     1     -13.402   9.299  71.862  1.00  0.00    -0.498 A  
HETATM   21  C   UNL     1     -13.265   7.916  71.935  1.00  0.00    -0.314 A  
HETATM   22  C   UNL     1     -12.180   7.288  71.323  1.00  0.00    -0.389 A  
ENDBRANCH  16  17
ENDBRANCH  13  16
ENDBRANCH  12  13
ENDBRANCH  11  12
ENDBRANCH  10  11
ENDBRANCH   9  10
ENDBRANCH   8   9
ENDBRANCH   7   8
ENDBRANCH   6   7
ENDBRANCH   5   6
ENDBRANCH   4   5
ENDBRANCH   3   4
ENDBRANCH   2   3
TORSDOF 13
ENDMDL
MODEL      328
REMARK 921   NORMALIZED FREE ENERGY PREDICTED BY IDOCK:   -2.70 KCAL/MOL
REMARK 922        TOTAL FREE ENERGY PREDICTED BY IDOCK:   -6.22 KCAL/MOL
REMARK 923 INTER-LIGAND FREE ENERGY PREDICTED BY IDOCK:   -4.86 KCAL/MOL
REMARK 924 INTRA-LIGAND FREE ENERGY PREDICTED BY IDOCK:   -1.36 KCAL/MOL
REMARK 927      BINDING AFFINITY PREDICTED BY RF-SCORE:    0.00 PKD
ROOT
HETATM    1  C   UNL     1     -10.939   6.201  69.142  1.00  0.00    -0.450 C  
HETATM    2  C   UNL     1     -11.201   6.537  67.683  1.00  0.00    -0.274 C  
ENDROOT
BRANCH   2   3
HETATM    3  C   UNL     1     -10.353   5.665  66.760  1.00  0.00    -0.316 C  
BRANCH   3   4
HETATM    4  C   UNL     1      -9.767   4.474  67.512  1.00  0.00    -0.213 C  
BRANCH   4   5
HETATM    5  C   UNL     1      -8.258   4.396  67.300  1.00  0.00    -0.100 C  
BRANCH   5   6
HETATM    6  C   UNL     1      -7.553   3.999  68.591  1.00  0.00    -0.058 C  
BRANCH   6   7
HETATM    7  C   UNL     1      -6.686   5.139  69.117  1.00  0.00    -0.052 C  
BRANCH   7   8
HETATM    8  C   UNL     1      -7.413   5.865  70.241  1.00  0.00    -0.089 C  
BRANCH   8   9
HETATM    9  C   UNL     1      -7.416   7.376  70.029  1.00  0.00    -0.084 C  
BRANCH   9  10
HETATM   10  C   UNL     1      -7.849   7.765  68.615  1.00  0.00    -0.120 C  
BRANCH  10  11
HETATM   11  C   UNL     1      -8.035   9.270  68.385  1.00  0.00    -0.102 C  
BRANCH  11  12
HETATM   12  C   UNL     1      -9.481   9.649  68.043  1.00  0.00    -0.132 C  
BRANCH  12  13
HETATM   13  N   UNL     1      -9.612  10.493  66.761  1.00  0.00    -0.166 N  
HETATM   14  C   UNL     1      -8.384  11.375  66.570  1.00  0.00    -0.164 C  
HETATM   15  C   UNL     1      -9.786   9.598  65.540  1.00  0.00    -0.301 C  
BRANCH  13  16
HETATM   16  C   UNL     1     -10.890  11.384  66.930  1.00  0.00    -0.285 C  
BRANCH  16  17
HETATM   17  C   UNL     1     -10.809  12.748  66.291  1.00  0.00    -0.299 A  
HETATM   18  C   UNL     1     -10.316  13.847  67.014  1.00  0.00    -0.267 A  
HETATM   19  C   UNL     1     -10.434  15.138  66.502  1.00  0.00    -0.292 A  
HETATM   20  C   UNL     1     -11.019  15.342  65.254  1.00  0.00    -0.397 A  
HETATM   21  C   UNL     1     -11.441  14.254  64.495  1.00  0.00    -0.363 A  
HETATM   22  C   UNL     1     -11.323  12.961  65.002  1.00  0.00    -0.338 A  
ENDBRANCH  16  17
ENDBRANCH  13  16
ENDBRANCH  12  13
ENDBRANCH  11  12
ENDBRANCH  10  11
ENDBRANCH   9  10
ENDBRANCH   8   9
ENDBRANCH   7   8
ENDBRANCH   6   7
ENDBRANCH   5   6
ENDBRANCH   4   5
ENDBRANCH   3   4
ENDBRANCH   2   3
TORSDOF 13
ENDMDL
MODEL      329
REMARK 921   NORMALIZED FREE ENERGY PREDICTED BY IDOCK:   -2.70 KCAL/MOL
REMARK 922        TOTAL FREE ENERGY PREDICTED BY IDOCK:   -6.22 KCAL/MOL
REMARK 923 INTER-LIGAND FREE ENERGY PREDICTED BY IDOCK:   -5.28 KCAL/MOL
REMARK 924 INTRA-LIGAND FREE ENERGY PREDICTED BY IDOCK:   -0.94 KCAL/MOL
REMARK 927      BINDING AFFINITY PREDICTED BY RF-SCORE:    0.00 PKD
ROOT
HETATM    1  C   UNL     1     -10.479   5.626  69.739  1.00  0.00    -0.377 C  
HETATM    2  C   UNL     1     -10.320   6.208  71.134  1.00  0.00    -0.257 C  
ENDROOT
BRANCH   2   3
HETATM    3  C   UNL     1      -9.537   7.517  71.094  1.00  0.00    -0.164 C  
BRANCH   3   4
HETATM    4  C   UNL     1     -10.428   8.679  70.666  1.00  0.00    -0.243 C  
BRANCH   4   5
HETATM    5  C   UNL     1      -9.842   9.384  69.446  1.00  0.00    -0.183 C  
BRANCH   5   6
HETATM    6  C   UNL     1     -10.634   9.037  68.192  1.00  0.00    -0.225 C  
BRANCH   6   7
HETATM    7  C   UNL     1      -9.938   9.560  66.939  1.00  0.00    -0.278 C  
BRANCH   7   8
HETATM    8  C   UNL     1     -10.485  10.935  66.579  1.00  0.00    -0.308 C  
BRANCH   8   9
HETATM    9  C   UNL     1      -9.380  11.881  66.121  1.00  0.00    -0.228 C  
BRANCH   9  10
HETATM   10  C   UNL     1      -7.995  11.428  66.585  1.00  0.00    -0.148 C  
BRANCH  10  11
HETATM   11  C   UNL     1      -7.206  12.473  67.383  1.00  0.00    -0.146 C  
BRANCH  11  12
HETATM   12  C   UNL     1      -7.990  13.034  68.575  1.00  0.00    -0.090 C  
BRANCH  12  13
HETATM   13  N   UNL     1      -8.251  14.550  68.487  1.00  0.00    -0.149 N  
HETATM   14  C   UNL     1      -7.849  15.242  69.783  1.00  0.00    -0.057 C  
HETATM   15  C   UNL     1      -7.478  15.164  67.325  1.00  0.00    -0.194 C  
BRANCH  13  16
HETATM   16  C   UNL     1      -9.787  14.735  68.235  1.00  0.00    -0.222 C  
BRANCH  16  17
HETATM   17  C   UNL     1     -10.180  16.052  67.613  1.00  0.00    -0.262 A  
HETATM   18  C   UNL     1     -10.322  16.170  66.221  1.00  0.00    -0.337 A  
HETATM   19  C   UNL     1     -10.477  17.424  65.632  1.00  0.00    -0.173 A  
HETATM   20  C   UNL     1     -10.521  18.567  66.427  1.00  0.00    -0.443 A  
HETATM   21  C   UNL     1     -10.458  18.456  67.813  1.00  0.00    -0.433 A  
HETATM   22  C   UNL     1     -10.304  17.203  68.407  1.00  0.00    -0.362 A  
ENDBRANCH  16  17
ENDBRANCH  13  16
ENDBRANCH  12  13
ENDBRANCH  11  12
ENDBRANCH  10  11
ENDBRANCH   9  10
ENDBRANCH   8   9
ENDBRANCH   7   8
ENDBRANCH   6   7
ENDBRANCH   5   6
ENDBRANCH   4   5
ENDBRANCH   3   4
ENDBRANCH   2   3
TORSDOF 13
ENDMDL
MODEL      330
REMARK 921   NORMALIZED FREE ENERGY PREDICTED BY IDOCK:   -2.70 KCAL/MOL
REMARK 922        TOTAL FREE ENERGY PREDICTED BY IDOCK:   -6.22 KCAL/MOL
REMARK 923 INTER-LIGAND FREE ENERGY PREDICTED BY IDOCK:   -5.47 KCAL/MOL
REMARK 924 INTRA-LIGAND FREE ENERGY PREDICTED BY IDOCK:   -0.74 KCAL/MOL
REMARK 927      BINDING AFFINITY PREDICTED BY RF-SCORE:    0.00 PKD
ROOT
HETATM    1  C   UNL     1     -12.308  15.358  74.262  1.00  0.00    -0.807 C  
HETATM    2  C   UNL     1     -12.083  15.924  72.869  1.00  0.00    -0.612 C  
ENDROOT
BRANCH   2   3
HETATM    3  C   UNL     1     -13.061  15.317  71.867  1.00  0.00    -0.482 C  
BRANCH   3   4
HETATM    4  C   UNL     1     -12.329  14.786  70.637  1.00  0.00    -0.401 C  
BRANCH   4   5
HETATM    5  C   UNL     1     -11.965  15.930  69.695  1.00  0.00    -0.272 C  
BRANCH   5   6
HETATM    6  C   UNL     1     -10.459  15.990  69.479  1.00  0.00    -0.286 C  
BRANCH   6   7
HETATM    7  C   UNL     1     -10.123  16.342  68.034  1.00  0.00    -0.248 C  
BRANCH   7   8
HETATM    8  C   UNL     1     -11.043  15.581  67.088  1.00  0.00    -0.256 C  
BRANCH   8   9
HETATM    9  C   UNL     1     -10.483  14.205  66.740  1.00  0.00    -0.277 C  
BRANCH   9  10
HETATM   10  C   UNL     1     -11.200  13.079  67.486  1.00  0.00    -0.320 C  
BRANCH  10  11
HETATM   11  C   UNL     1     -10.285  11.968  68.015  1.00  0.00    -0.203 C  
BRANCH  11  12
HETATM   12  C   UNL     1      -9.385  11.366  66.929  1.00  0.00    -0.181 C  
BRANCH  12  13
HETATM   13  N   UNL     1      -9.363   9.825  66.928  1.00  0.00    -0.146 N  
HETATM   14  C   UNL     1     -10.690   9.268  67.430  1.00  0.00    -0.193 C  
HETATM   15  C   UNL     1      -9.089   9.290  65.527  1.00  0.00    -0.221 C  
BRANCH  13  16
HETATM   16  C   UNL     1      -8.202   9.384  67.882  1.00  0.00    -0.115 C  
BRANCH  16  17
HETATM   17  C   UNL     1      -7.714   7.970  67.686  1.00  0.00    -0.110 A  
HETATM   18  C   UNL     1      -8.505   6.880  68.085  1.00  0.00    -0.124 A  
HETATM   19  C   UNL     1      -7.973   5.591  68.098  1.00  0.00    -0.096 A  
HETATM   20  C   UNL     1      -6.660   5.374  67.687  1.00  0.00    -0.053 A  
HETATM   21  C   UNL     1      -5.892   6.435  67.217  1.00  0.00    -0.017 A  
HETATM   22  C   UNL     1      -6.420   7.726  67.201  1.00  0.00    -0.055 A  
ENDBRANCH  16  17
ENDBRANCH  13  16
ENDBRANCH  12  13
ENDBRANCH  11  12
ENDBRANCH  10  11
ENDBRANCH   9  10
ENDBRANCH   8   9
ENDBRANCH   7   8
ENDBRANCH   6   7
ENDBRANCH   5   6
ENDBRANCH   4   5
ENDBRANCH   3   4
ENDBRANCH   2   3
TORSDOF 13
ENDMDL
MODEL      331
REMARK 921   NORMALIZED FREE ENERGY PREDICTED BY IDOCK:   -2.70 KCAL/MOL
REMARK 922        TOTAL FREE ENERGY PREDICTED BY IDOCK:   -6.22 KCAL/MOL
REMARK 923 INTER-LIGAND FREE ENERGY PREDICTED BY IDOCK:   -5.16 KCAL/MOL
REMARK 924 INTRA-LIGAND FREE ENERGY PREDICTED BY IDOCK:   -1.05 KCAL/MOL
REMARK 927      BINDING AFFINITY PREDICTED BY RF-SCORE:    0.00 PKD
ROOT
HETATM    1  C   UNL     1      -8.488   4.363  71.210  1.00  0.00    -0.110 C  
HETATM    2  C   UNL     1      -8.287   3.605  69.909  1.00  0.00    -0.079 C  
ENDROOT
BRANCH   2   3
HETATM    3  C   UNL     1      -6.819   3.615  69.491  1.00  0.00    -0.041 C  
BRANCH   3   4
HETATM    4  C   UNL     1      -6.680   3.645  67.972  1.00  0.00    -0.046 C  
BRANCH   4   5
HETATM    5  C   UNL     1      -6.317   5.048  67.493  1.00  0.00    -0.040 C  
BRANCH   5   6
HETATM    6  C   UNL     1      -6.688   5.229  66.027  1.00  0.00    -0.053 C  
BRANCH   6   7
HETATM    7  C   UNL     1      -8.107   4.741  65.754  1.00  0.00    -0.111 C  
BRANCH   7   8
HETATM    8  C   UNL     1      -9.105   5.847  66.071  1.00  0.00    -0.154 C  
BRANCH   8   9
HETATM    9  C   UNL     1     -10.330   5.309  66.805  1.00  0.00    -0.320 C  
BRANCH   9  10
HETATM   10  C   UNL     1     -11.009   6.377  67.664  1.00  0.00    -0.441 C  
BRANCH  10  11
HETATM   11  C   UNL     1     -10.253   6.758  68.942  1.00  0.00    -0.186 C  
BRANCH  11  12
HETATM   12  C   UNL     1     -10.572   8.178  69.426  1.00  0.00    -0.200 C  
BRANCH  12  13
HETATM   13  N   UNL     1     -11.207   8.225  70.830  1.00  0.00    -0.263 N  
HETATM   14  C   UNL     1     -11.439   6.816  71.362  1.00  0.00    -0.292 C  
HETATM   15  C   UNL     1     -10.317   8.993  71.800  1.00  0.00    -0.337 C  
BRANCH  13  16
HETATM   16  C   UNL     1     -12.576   8.974  70.685  1.00  0.00     0.216 C  
BRANCH  16  17
HETATM   17  C   UNL     1     -12.511  10.469  70.881  1.00  0.00    -0.488 A  
HETATM   18  C   UNL     1     -13.190  11.079  71.948  1.00  0.00    -0.503 A  
HETATM   19  C   UNL     1     -13.304  12.467  72.010  1.00  0.00    -0.528 A  
HETATM   20  C   UNL     1     -12.718  13.259  71.024  1.00  0.00    -0.374 A  
HETATM   21  C   UNL     1     -11.978  12.669  70.004  1.00  0.00    -0.377 A  
HETATM   22  C   UNL     1     -11.860  11.280  69.940  1.00  0.00    -0.436 A  
ENDBRANCH  16  17
ENDBRANCH  13  16
ENDBRANCH  12  13
ENDBRANCH  11  12
ENDBRANCH  10  11
ENDBRANCH   9  10
ENDBRANCH   8   9
ENDBRANCH   7   8
ENDBRANCH   6   7
ENDBRANCH   5   6
ENDBRANCH   4   5
ENDBRANCH   3   4
ENDBRANCH   2   3
TORSDOF 13
ENDMDL
MODEL      332
REMARK 921   NORMALIZED FREE ENERGY PREDICTED BY IDOCK:   -2.69 KCAL/MOL
REMARK 922        TOTAL FREE ENERGY PREDICTED BY IDOCK:   -6.20 KCAL/MOL
REMARK 923 INTER-LIGAND FREE ENERGY PREDICTED BY IDOCK:   -5.26 KCAL/MOL
REMARK 924 INTRA-LIGAND FREE ENERGY PREDICTED BY IDOCK:   -0.94 KCAL/MOL
REMARK 927      BINDING AFFINITY PREDICTED BY RF-SCORE:    0.00 PKD
ROOT
HETATM    1  C   UNL     1     -12.086  13.707  63.965  1.00  0.00    -0.474 C  
HETATM    2  C   UNL     1     -12.163  12.303  63.389  1.00  0.00    -0.630 C  
ENDROOT
BRANCH   2   3
HETATM    3  C   UNL     1     -11.009  11.441  63.894  1.00  0.00    -0.442 C  
BRANCH   3   4
HETATM    4  C   UNL     1     -10.069  11.059  62.754  1.00  0.00    -0.120 C  
BRANCH   4   5
HETATM    5  C   UNL     1      -8.706  10.641  63.300  1.00  0.00    -0.177 C  
BRANCH   5   6
HETATM    6  C   UNL     1      -8.757   9.218  63.840  1.00  0.00    -0.193 C  
BRANCH   6   7
HETATM    7  C   UNL     1      -8.169   9.140  65.245  1.00  0.00    -0.135 C  
BRANCH   7   8
HETATM    8  C   UNL     1      -7.083  10.196  65.410  1.00  0.00    -0.143 C  
BRANCH   8   9
HETATM    9  C   UNL     1      -6.252   9.960  66.668  1.00  0.00    -0.068 C  
BRANCH   9  10
HETATM   10  C   UNL     1      -7.101   9.977  67.940  1.00  0.00    -0.085 C  
BRANCH  10  11
HETATM   11  C   UNL     1      -7.759  11.325  68.261  1.00  0.00    -0.122 C  
BRANCH  11  12
HETATM   12  C   UNL     1      -9.219  11.187  68.709  1.00  0.00    -0.145 C  
BRANCH  12  13
HETATM   13  N   UNL     1     -10.208  12.004  67.854  1.00  0.00    -0.191 N  
HETATM   14  C   UNL     1      -9.486  12.679  66.695  1.00  0.00    -0.244 C  
HETATM   15  C   UNL     1     -11.316  11.111  67.309  1.00  0.00    -0.226 C  
BRANCH  13  16
HETATM   16  C   UNL     1     -10.838  13.086  68.796  1.00  0.00    -0.244 C  
BRANCH  16  17
HETATM   17  C   UNL     1     -10.362  14.498  68.557  1.00  0.00    -0.242 A  
HETATM   18  C   UNL     1      -9.078  14.897  68.966  1.00  0.00    -0.175 A  
HETATM   19  C   UNL     1      -8.717  16.243  68.937  1.00  0.00    -0.253 A  
HETATM   20  C   UNL     1      -9.620  17.198  68.474  1.00  0.00    -0.288 A  
HETATM   21  C   UNL     1     -10.866  16.805  67.994  1.00  0.00    -0.341 A  
HETATM   22  C   UNL     1     -11.232  15.459  68.020  1.00  0.00    -0.326 A  
ENDBRANCH  16  17
ENDBRANCH  13  16
ENDBRANCH  12  13
ENDBRANCH  11  12
ENDBRANCH  10  11
ENDBRANCH   9  10
ENDBRANCH   8   9
ENDBRANCH   7   8
ENDBRANCH   6   7
ENDBRANCH   5   6
ENDBRANCH   4   5
ENDBRANCH   3   4
ENDBRANCH   2   3
TORSDOF 13
ENDMDL
MODEL      333
REMARK 921   NORMALIZED FREE ENERGY PREDICTED BY IDOCK:   -2.68 KCAL/MOL
REMARK 922        TOTAL FREE ENERGY PREDICTED BY IDOCK:   -6.20 KCAL/MOL
REMARK 923 INTER-LIGAND FREE ENERGY PREDICTED BY IDOCK:   -5.45 KCAL/MOL
REMARK 924 INTRA-LIGAND FREE ENERGY PREDICTED BY IDOCK:   -0.74 KCAL/MOL
REMARK 927      BINDING AFFINITY PREDICTED BY RF-SCORE:    0.00 PKD
ROOT
HETATM    1  C   UNL     1     -13.138  12.241  71.984  1.00  0.00    -0.461 C  
HETATM    2  C   UNL     1     -13.708  13.571  72.449  1.00  0.00    -0.704 C  
ENDROOT
BRANCH   2   3
HETATM    3  C   UNL     1     -12.651  14.670  72.392  1.00  0.00    -0.410 C  
BRANCH   3   4
HETATM    4  C   UNL     1     -12.887  15.600  71.205  1.00  0.00    -0.550 C  
BRANCH   4   5
HETATM    5  C   UNL     1     -11.646  15.667  70.320  1.00  0.00    -0.370 C  
BRANCH   5   6
HETATM    6  C   UNL     1     -11.626  14.508  69.332  1.00  0.00    -0.343 C  
BRANCH   6   7
HETATM    7  C   UNL     1     -10.216  14.254  68.810  1.00  0.00    -0.226 C  
BRANCH   7   8
HETATM    8  C   UNL     1      -9.804  15.376  67.866  1.00  0.00    -0.219 C  
BRANCH   8   9
HETATM    9  C   UNL     1      -8.783  14.902  66.836  1.00  0.00    -0.276 C  
BRANCH   9  10
HETATM   10  C   UNL     1      -7.450  14.509  67.475  1.00  0.00    -0.216 C  
BRANCH  10  11
HETATM   11  C   UNL     1      -7.125  13.011  67.425  1.00  0.00    -0.124 C  
BRANCH  11  12
HETATM   12  C   UNL     1      -6.645  12.457  68.772  1.00  0.00    -0.088 C  
BRANCH  12  13
HETATM   13  N   UNL     1      -6.805  10.930  68.905  1.00  0.00    -0.069 N  
HETATM   14  C   UNL     1      -5.612  10.326  69.635  1.00  0.00    -0.038 C  
HETATM   15  C   UNL     1      -8.085  10.584  69.656  1.00  0.00    -0.043 C  
BRANCH  13  16
HETATM   16  C   UNL     1      -6.891  10.352  67.451  1.00  0.00    -0.076 C  
BRANCH  16  17
HETATM   17  C   UNL     1      -8.106   9.503  67.170  1.00  0.00    -0.106 A  
HETATM   18  C   UNL     1      -9.324  10.099  66.803  1.00  0.00    -0.190 A  
HETATM   19  C   UNL     1     -10.492   9.339  66.749  1.00  0.00    -0.263 A  
HETATM   20  C   UNL     1     -10.451   7.976  67.031  1.00  0.00    -0.410 A  
HETATM   21  C   UNL     1      -9.236   7.360  67.321  1.00  0.00    -0.150 A  
HETATM   22  C   UNL     1      -8.065   8.115  67.375  1.00  0.00    -0.122 A  
ENDBRANCH  16  17
ENDBRANCH  13  16
ENDBRANCH  12  13
ENDBRANCH  11  12
ENDBRANCH  10  11
ENDBRANCH   9  10
ENDBRANCH   8   9
ENDBRANCH   7   8
ENDBRANCH   6   7
ENDBRANCH   5   6
ENDBRANCH   4   5
ENDBRANCH   3   4
ENDBRANCH   2   3
TORSDOF 13
ENDMDL
MODEL      334
REMARK 921   NORMALIZED FREE ENERGY PREDICTED BY IDOCK:   -2.68 KCAL/MOL
REMARK 922        TOTAL FREE ENERGY PREDICTED BY IDOCK:   -6.20 KCAL/MOL
REMARK 923 INTER-LIGAND FREE ENERGY PREDICTED BY IDOCK:   -6.09 KCAL/MOL
REMARK 924 INTRA-LIGAND FREE ENERGY PREDICTED BY IDOCK:   -0.11 KCAL/MOL
REMARK 927      BINDING AFFINITY PREDICTED BY RF-SCORE:    0.00 PKD
ROOT
HETATM    1  C   UNL     1      -7.964   3.918  73.527  1.00  0.00    -0.088 C  
HETATM    2  C   UNL     1      -8.989   4.777  72.804  1.00  0.00    -0.127 C  
ENDROOT
BRANCH   2   3
HETATM    3  C   UNL     1      -8.657   6.261  72.948  1.00  0.00    -0.122 C  
BRANCH   3   4
HETATM    4  C   UNL     1      -9.668   6.966  73.847  1.00  0.00    -0.305 C  
BRANCH   4   5
HETATM    5  C   UNL     1     -11.088   6.746  73.334  1.00  0.00    -0.090 C  
BRANCH   5   6
HETATM    6  C   UNL     1     -11.231   7.262  71.908  1.00  0.00    -0.281 C  
BRANCH   6   7
HETATM    7  C   UNL     1     -11.768   8.689  71.890  1.00  0.00    -0.422 C  
BRANCH   7   8
HETATM    8  C   UNL     1     -10.830   9.586  71.093  1.00  0.00    -0.425 C  
BRANCH   8   9
HETATM    9  C   UNL     1     -11.573  10.750  70.445  1.00  0.00    -0.431 C  
BRANCH   9  10
HETATM   10  C   UNL     1     -10.959  11.161  69.106  1.00  0.00    -0.295 C  
BRANCH  10  11
HETATM   11  C   UNL     1     -11.511  12.464  68.514  1.00  0.00    -0.350 C  
BRANCH  11  12
HETATM   12  C   UNL     1     -10.958  12.767  67.116  1.00  0.00    -0.263 C  
BRANCH  12  13
HETATM   13  N   UNL     1      -9.785  13.767  67.119  1.00  0.00    -0.238 N  
HETATM   14  C   UNL     1      -9.882  14.706  68.315  1.00  0.00    -0.222 C  
HETATM   15  C   UNL     1      -8.450  13.033  67.158  1.00  0.00    -0.174 C  
BRANCH  13  16
HETATM   16  C   UNL     1      -9.881  14.586  65.787  1.00  0.00    -0.314 C  
BRANCH  16  17
HETATM   17  C   UNL     1      -9.606  16.064  65.922  1.00  0.00    -0.370 A  
HETATM   18  C   UNL     1      -8.367  16.518  66.404  1.00  0.00    -0.358 A  
HETATM   19  C   UNL     1      -8.186  17.862  66.726  1.00  0.00    -0.273 A  
HETATM   20  C   UNL     1      -9.228  18.769  66.544  1.00  0.00    -0.336 A  
HETATM   21  C   UNL     1     -10.435  18.344  65.996  1.00  0.00    -0.400 A  
HETATM   22  C   UNL     1     -10.620  17.001  65.670  1.00  0.00    -0.206 A  
ENDBRANCH  16  17
ENDBRANCH  13  16
ENDBRANCH  12  13
ENDBRANCH  11  12
ENDBRANCH  10  11
ENDBRANCH   9  10
ENDBRANCH   8   9
ENDBRANCH   7   8
ENDBRANCH   6   7
ENDBRANCH   5   6
ENDBRANCH   4   5
ENDBRANCH   3   4
ENDBRANCH   2   3
TORSDOF 13
ENDMDL
MODEL      335
REMARK 921   NORMALIZED FREE ENERGY PREDICTED BY IDOCK:   -2.68 KCAL/MOL
REMARK 922        TOTAL FREE ENERGY PREDICTED BY IDOCK:   -6.19 KCAL/MOL
REMARK 923 INTER-LIGAND FREE ENERGY PREDICTED BY IDOCK:   -5.04 KCAL/MOL
REMARK 924 INTRA-LIGAND FREE ENERGY PREDICTED BY IDOCK:   -1.15 KCAL/MOL
REMARK 927      BINDING AFFINITY PREDICTED BY RF-SCORE:    0.00 PKD
ROOT
HETATM    1  C   UNL     1      -7.467  11.866  67.703  1.00  0.00    -0.127 C  
HETATM    2  C   UNL     1      -6.786  10.508  67.738  1.00  0.00    -0.069 C  
ENDROOT
BRANCH   2   3
HETATM    3  C   UNL     1      -7.549   9.535  68.633  1.00  0.00    -0.080 C  
BRANCH   3   4
HETATM    4  C   UNL     1      -8.487  10.279  69.579  1.00  0.00    -0.156 C  
BRANCH   4   5
HETATM    5  C   UNL     1      -9.279   9.293  70.433  1.00  0.00    -0.291 C  
BRANCH   5   6
HETATM    6  C   UNL     1     -10.761   9.349  70.085  1.00  0.00    -0.282 C  
BRANCH   6   7
HETATM    7  C   UNL     1     -10.973   9.851  68.661  1.00  0.00    -0.222 C  
BRANCH   7   8
HETATM    8  C   UNL     1     -12.061  10.918  68.644  1.00  0.00    -0.065 C  
BRANCH   8   9
HETATM    9  C   UNL     1     -12.378  11.423  70.048  1.00  0.00    -0.311 C  
BRANCH   9  10
HETATM   10  C   UNL     1     -11.983  12.888  70.243  1.00  0.00    -0.359 C  
BRANCH  10  11
HETATM   11  C   UNL     1     -11.101  13.474  69.135  1.00  0.00    -0.271 C  
BRANCH  11  12
HETATM   12  C   UNL     1     -11.798  14.585  68.339  1.00  0.00    -0.316 C  
BRANCH  12  13
HETATM   13  N   UNL     1     -10.835  15.432  67.485  1.00  0.00    -0.299 N  
HETATM   14  C   UNL     1     -11.201  15.339  66.009  1.00  0.00    -0.231 C  
HETATM   15  C   UNL     1     -10.867  16.892  67.923  1.00  0.00    -0.310 C  
BRANCH  13  16
HETATM   16  C   UNL     1      -9.395  14.858  67.717  1.00  0.00    -0.194 C  
BRANCH  16  17
HETATM   17  C   UNL     1      -8.285  15.879  67.678  1.00  0.00    -0.164 A  
HETATM   18  C   UNL     1      -7.729  16.375  68.869  1.00  0.00    -0.230 A  
HETATM   19  C   UNL     1      -6.858  17.462  68.841  1.00  0.00    -0.241 A  
HETATM   20  C   UNL     1      -6.512  18.047  67.624  1.00  0.00    -0.187 A  
HETATM   21  C   UNL     1      -6.996  17.517  66.432  1.00  0.00    -0.315 A  
HETATM   22  C   UNL     1      -7.867  16.427  66.456  1.00  0.00    -0.323 A  
ENDBRANCH  16  17
ENDBRANCH  13  16
ENDBRANCH  12  13
ENDBRANCH  11  12
ENDBRANCH  10  11
ENDBRANCH   9  10
ENDBRANCH   8   9
ENDBRANCH   7   8
ENDBRANCH   6   7
ENDBRANCH   5   6
ENDBRANCH   4   5
ENDBRANCH   3   4
ENDBRANCH   2   3
TORSDOF 13
ENDMDL
MODEL      336
REMARK 921   NORMALIZED FREE ENERGY PREDICTED BY IDOCK:   -2.68 KCAL/MOL
REMARK 922        TOTAL FREE ENERGY PREDICTED BY IDOCK:   -6.19 KCAL/MOL
REMARK 923 INTER-LIGAND FREE ENERGY PREDICTED BY IDOCK:   -4.44 KCAL/MOL
REMARK 924 INTRA-LIGAND FREE ENERGY PREDICTED BY IDOCK:   -1.75 KCAL/MOL
REMARK 927      BINDING AFFINITY PREDICTED BY RF-SCORE:    0.00 PKD
ROOT
HETATM    1  C   UNL     1      -8.475   5.985  73.601  1.00  0.00    -0.118 C  
HETATM    2  C   UNL     1      -8.248   7.412  73.132  1.00  0.00    -0.142 C  
ENDROOT
BRANCH   2   3
HETATM    3  C   UNL     1      -9.489   8.269  73.367  1.00  0.00    -0.129 C  
BRANCH   3   4
HETATM    4  C   UNL     1     -10.760   7.428  73.300  1.00  0.00    -0.441 C  
BRANCH   4   5
HETATM    5  C   UNL     1     -11.908   8.236  72.703  1.00  0.00    -0.382 C  
BRANCH   5   6
HETATM    6  C   UNL     1     -12.347   7.644  71.370  1.00  0.00    -0.358 C  
BRANCH   6   7
HETATM    7  C   UNL     1     -11.144   7.216  70.535  1.00  0.00    -0.299 C  
BRANCH   7   8
HETATM    8  C   UNL     1     -10.932   8.199  69.392  1.00  0.00    -0.015 C  
BRANCH   8   9
HETATM    9  C   UNL     1     -10.608   9.599  69.902  1.00  0.00    -0.281 C  
BRANCH   9  10
HETATM   10  C   UNL     1     -11.726  10.600  69.608  1.00  0.00    -0.368 C  
BRANCH  10  11
HETATM   11  C   UNL     1     -11.271  11.897  68.928  1.00  0.00    -0.310 C  
BRANCH  11  12
HETATM   12  C   UNL     1      -9.762  11.935  68.659  1.00  0.00    -0.108 C  
BRANCH  12  13
HETATM   13  N   UNL     1      -9.400  12.342  67.217  1.00  0.00    -0.180 N  
HETATM   14  C   UNL     1     -10.546  12.022  66.265  1.00  0.00    -0.252 C  
HETATM   15  C   UNL     1      -9.080  13.830  67.141  1.00  0.00    -0.239 C  
BRANCH  13  16
HETATM   16  C   UNL     1      -8.127  11.521  66.818  1.00  0.00    -0.158 C  
BRANCH  16  17
HETATM   17  C   UNL     1      -8.114  10.088  67.291  1.00  0.00    -0.114 A  
HETATM   18  C   UNL     1      -7.346   9.711  68.405  1.00  0.00    -0.075 A  
HETATM   19  C   UNL     1      -7.167   8.364  68.715  1.00  0.00    -0.079 A  
HETATM   20  C   UNL     1      -7.775   7.383  67.934  1.00  0.00    -0.116 A  
HETATM   21  C   UNL     1      -8.600   7.747  66.874  1.00  0.00    -0.130 A  
HETATM   22  C   UNL     1      -8.783   9.094  66.562  1.00  0.00    -0.142 A  
ENDBRANCH  16  17
ENDBRANCH  13  16
ENDBRANCH  12  13
ENDBRANCH  11  12
ENDBRANCH  10  11
ENDBRANCH   9  10
ENDBRANCH   8   9
ENDBRANCH   7   8
ENDBRANCH   6   7
ENDBRANCH   5   6
ENDBRANCH   4   5
ENDBRANCH   3   4
ENDBRANCH   2   3
TORSDOF 13
ENDMDL
MODEL      337
REMARK 921   NORMALIZED FREE ENERGY PREDICTED BY IDOCK:   -2.67 KCAL/MOL
REMARK 922        TOTAL FREE ENERGY PREDICTED BY IDOCK:   -6.18 KCAL/MOL
REMARK 923 INTER-LIGAND FREE ENERGY PREDICTED BY IDOCK:   -5.66 KCAL/MOL
REMARK 924 INTRA-LIGAND FREE ENERGY PREDICTED BY IDOCK:   -0.52 KCAL/MOL
REMARK 927      BINDING AFFINITY PREDICTED BY RF-SCORE:    0.00 PKD
ROOT
HETATM    1  C   UNL     1     -12.082  15.705  71.912  1.00  0.00    -0.513 C  
HETATM    2  C   UNL     1     -11.487  15.615  70.516  1.00  0.00    -0.380 C  
ENDROOT
BRANCH   2   3
HETATM    3  C   UNL     1     -12.213  14.565  69.679  1.00  0.00    -0.336 C  
BRANCH   3   4
HETATM    4  C   UNL     1     -11.294  13.985  68.608  1.00  0.00    -0.307 C  
BRANCH   4   5
HETATM    5  C   UNL     1     -11.814  14.324  67.214  1.00  0.00    -0.444 C  
BRANCH   5   6
HETATM    6  C   UNL     1     -12.424  13.094  66.553  1.00  0.00    -0.082 C  
BRANCH   6   7
HETATM    7  C   UNL     1     -12.373  13.203  65.033  1.00  0.00    -0.511 C  
BRANCH   7   8
HETATM    8  C   UNL     1     -10.928  13.122  64.556  1.00  0.00    -0.392 C  
BRANCH   8   9
HETATM    9  C   UNL     1     -10.541  11.700  64.163  1.00  0.00    -0.411 C  
BRANCH   9  10
HETATM   10  C   UNL     1      -9.454  11.120  65.069  1.00  0.00    -0.259 C  
BRANCH  10  11
HETATM   11  C   UNL     1      -9.971  10.332  66.279  1.00  0.00    -0.295 C  
BRANCH  11  12
HETATM   12  C   UNL     1      -9.045   9.178  66.681  1.00  0.00    -0.148 C  
BRANCH  12  13
HETATM   13  N   UNL     1      -9.676   8.204  67.695  1.00  0.00    -0.152 N  
HETATM   14  C   UNL     1     -10.152   8.951  68.934  1.00  0.00    -0.197 C  
HETATM   15  C   UNL     1     -10.851   7.460  67.070  1.00  0.00    -0.237 C  
BRANCH  13  16
HETATM   16  C   UNL     1      -8.565   7.170  68.087  1.00  0.00    -0.129 C  
BRANCH  16  17
HETATM   17  C   UNL     1      -8.596   5.874  67.315  1.00  0.00    -0.106 A  
HETATM   18  C   UNL     1      -8.240   5.844  65.957  1.00  0.00    -0.123 A  
HETATM   19  C   UNL     1      -8.466   4.699  65.194  1.00  0.00    -0.130 A  
HETATM   20  C   UNL     1      -9.022   3.567  65.785  1.00  0.00    -0.140 A  
HETATM   21  C   UNL     1      -9.308   3.559  67.148  1.00  0.00    -0.229 A  
HETATM   22  C   UNL     1      -9.081   4.702  67.915  1.00  0.00    -0.140 A  
ENDBRANCH  16  17
ENDBRANCH  13  16
ENDBRANCH  12  13
ENDBRANCH  11  12
ENDBRANCH  10  11
ENDBRANCH   9  10
ENDBRANCH   8   9
ENDBRANCH   7   8
ENDBRANCH   6   7
ENDBRANCH   5   6
ENDBRANCH   4   5
ENDBRANCH   3   4
ENDBRANCH   2   3
TORSDOF 13
ENDMDL
MODEL      338
REMARK 921   NORMALIZED FREE ENERGY PREDICTED BY IDOCK:   -2.66 KCAL/MOL
REMARK 922        TOTAL FREE ENERGY PREDICTED BY IDOCK:   -6.16 KCAL/MOL
REMARK 923 INTER-LIGAND FREE ENERGY PREDICTED BY IDOCK:   -5.28 KCAL/MOL
REMARK 924 INTRA-LIGAND FREE ENERGY PREDICTED BY IDOCK:   -0.87 KCAL/MOL
REMARK 927      BINDING AFFINITY PREDICTED BY RF-SCORE:    0.00 PKD
ROOT
HETATM    1  C   UNL     1      -9.405   5.171  67.861  1.00  0.00    -0.139 C  
HETATM    2  C   UNL     1      -8.181   5.408  66.993  1.00  0.00    -0.104 C  
ENDROOT
BRANCH   2   3
HETATM    3  C   UNL     1      -7.790   6.883  66.989  1.00  0.00    -0.111 C  
BRANCH   3   4
HETATM    4  C   UNL     1      -8.755   7.710  67.832  1.00  0.00    -0.124 C  
BRANCH   4   5
HETATM    5  C   UNL     1      -9.306   8.882  67.024  1.00  0.00    -0.194 C  
BRANCH   5   6
HETATM    6  C   UNL     1      -8.199   9.874  66.693  1.00  0.00    -0.121 C  
BRANCH   6   7
HETATM    7  C   UNL     1      -7.559  10.430  67.962  1.00  0.00    -0.091 C  
BRANCH   7   8
HETATM    8  C   UNL     1      -6.803  11.712  67.641  1.00  0.00    -0.094 C  
BRANCH   8   9
HETATM    9  C   UNL     1      -6.975  12.759  68.738  1.00  0.00    -0.096 C  
BRANCH   9  10
HETATM   10  C   UNL     1      -7.687  14.016  68.237  1.00  0.00    -0.141 C  
BRANCH  10  11
HETATM   11  C   UNL     1      -9.196  13.860  68.013  1.00  0.00    -0.193 C  
BRANCH  11  12
HETATM   12  C   UNL     1      -9.619  14.143  66.567  1.00  0.00    -0.296 C  
BRANCH  12  13
HETATM   13  N   UNL     1     -10.773  15.159  66.447  1.00  0.00    -0.312 N  
HETATM   14  C   UNL     1     -10.827  15.748  65.043  1.00  0.00    -0.443 C  
HETATM   15  C   UNL     1     -12.108  14.499  66.770  1.00  0.00    -0.288 C  
BRANCH  13  16
HETATM   16  C   UNL     1     -10.493  16.292  67.493  1.00  0.00    -0.302 C  
BRANCH  16  17
HETATM   17  C   UNL     1      -9.737  17.483  66.959  1.00  0.00    -0.284 A  
HETATM   18  C   UNL     1      -8.359  17.396  66.698  1.00  0.00    -0.295 A  
HETATM   19  C   UNL     1      -7.623  18.543  66.408  1.00  0.00    -0.287 A  
HETATM   20  C   UNL     1      -8.258  19.782  66.347  1.00  0.00    -0.371 A  
HETATM   21  C   UNL     1      -9.635  19.870  66.529  1.00  0.00    -0.534 A  
HETATM   22  C   UNL     1     -10.376  18.724  66.818  1.00  0.00    -0.464 A  
ENDBRANCH  16  17
ENDBRANCH  13  16
ENDBRANCH  12  13
ENDBRANCH  11  12
ENDBRANCH  10  11
ENDBRANCH   9  10
ENDBRANCH   8   9
ENDBRANCH   7   8
ENDBRANCH   6   7
ENDBRANCH   5   6
ENDBRANCH   4   5
ENDBRANCH   3   4
ENDBRANCH   2   3
TORSDOF 13
ENDMDL
MODEL      339
REMARK 921   NORMALIZED FREE ENERGY PREDICTED BY IDOCK:   -2.66 KCAL/MOL
REMARK 922        TOTAL FREE ENERGY PREDICTED BY IDOCK:   -6.16 KCAL/MOL
REMARK 923 INTER-LIGAND FREE ENERGY PREDICTED BY IDOCK:   -5.61 KCAL/MOL
REMARK 924 INTRA-LIGAND FREE ENERGY PREDICTED BY IDOCK:   -0.54 KCAL/MOL
REMARK 927      BINDING AFFINITY PREDICTED BY RF-SCORE:    0.00 PKD
ROOT
HETATM    1  C   UNL     1      -8.110   3.998  73.848  1.00  0.00    -0.088 C  
HETATM    2  C   UNL     1      -8.729   4.622  72.608  1.00  0.00    -0.117 C  
ENDROOT
BRANCH   2   3
HETATM    3  C   UNL     1      -8.995   6.110  72.819  1.00  0.00    -0.126 C  
BRANCH   3   4
HETATM    4  C   UNL     1     -10.433   6.353  73.267  1.00  0.00    -0.275 C  
BRANCH   4   5
HETATM    5  C   UNL     1     -11.415   5.910  72.186  1.00  0.00    -0.333 C  
BRANCH   5   6
HETATM    6  C   UNL     1     -11.490   6.944  71.070  1.00  0.00    -0.358 C  
BRANCH   6   7
HETATM    7  C   UNL     1     -12.507   8.032  71.395  1.00  0.00    -0.320 C  
BRANCH   7   8
HETATM    8  C   UNL     1     -11.796   9.365  71.591  1.00  0.00    -0.464 C  
BRANCH   8   9
HETATM    9  C   UNL     1     -12.730  10.546  71.348  1.00  0.00    -0.547 C  
BRANCH   9  10
HETATM   10  C   UNL     1     -12.134  11.571  70.382  1.00  0.00    -0.471 C  
BRANCH  10  11
HETATM   11  C   UNL     1     -10.948  11.066  69.552  1.00  0.00    -0.297 C  
BRANCH  11  12
HETATM   12  C   UNL     1     -10.330  12.155  68.666  1.00  0.00    -0.195 C  
BRANCH  12  13
HETATM   13  N   UNL     1     -10.341  11.811  67.164  1.00  0.00    -0.212 N  
HETATM   14  C   UNL     1     -10.344  10.301  66.958  1.00  0.00    -0.243 C  
HETATM   15  C   UNL     1     -11.562  12.416  66.481  1.00  0.00    -0.387 C  
BRANCH  13  16
HETATM   16  C   UNL     1      -9.045  12.434  66.544  1.00  0.00    -0.181 C  
BRANCH  16  17
HETATM   17  C   UNL     1      -8.420  13.546  67.350  1.00  0.00    -0.203 A  
HETATM   18  C   UNL     1      -7.357  13.280  68.229  1.00  0.00    -0.113 A  
HETATM   19  C   UNL     1      -6.921  14.256  69.123  1.00  0.00    -0.118 A  
HETATM   20  C   UNL     1      -7.520  15.514  69.128  1.00  0.00    -0.191 A  
HETATM   21  C   UNL     1      -8.522  15.814  68.210  1.00  0.00    -0.164 A  
HETATM   22  C   UNL     1      -8.961  14.840  67.312  1.00  0.00    -0.210 A  
ENDBRANCH  16  17
ENDBRANCH  13  16
ENDBRANCH  12  13
ENDBRANCH  11  12
ENDBRANCH  10  11
ENDBRANCH   9  10
ENDBRANCH   8   9
ENDBRANCH   7   8
ENDBRANCH   6   7
ENDBRANCH   5   6
ENDBRANCH   4   5
ENDBRANCH   3   4
ENDBRANCH   2   3
TORSDOF 13
ENDMDL
MODEL      340
REMARK 921   NORMALIZED FREE ENERGY PREDICTED BY IDOCK:   -2.66 KCAL/MOL
REMARK 922        TOTAL FREE ENERGY PREDICTED BY IDOCK:   -6.15 KCAL/MOL
REMARK 923 INTER-LIGAND FREE ENERGY PREDICTED BY IDOCK:   -4.93 KCAL/MOL
REMARK 924 INTRA-LIGAND FREE ENERGY PREDICTED BY IDOCK:   -1.22 KCAL/MOL
REMARK 927      BINDING AFFINITY PREDICTED BY RF-SCORE:    0.00 PKD
ROOT
HETATM    1  C   UNL     1      -8.429   8.024  74.009  1.00  0.00    -0.312 C  
HETATM    2  C   UNL     1      -7.957   7.678  72.607  1.00  0.00    -0.132 C  
ENDROOT
BRANCH   2   3
HETATM    3  C   UNL     1      -8.483   8.686  71.588  1.00  0.00    -0.230 C  
BRANCH   3   4
HETATM    4  C   UNL     1     -10.000   8.823  71.683  1.00  0.00    -0.381 C  
BRANCH   4   5
HETATM    5  C   UNL     1     -10.667   8.286  70.419  1.00  0.00    -0.239 C  
BRANCH   5   6
HETATM    6  C   UNL     1     -10.239   9.093  69.201  1.00  0.00    -0.215 C  
BRANCH   6   7
HETATM    7  C   UNL     1      -9.573   8.202  68.157  1.00  0.00    -0.162 C  
BRANCH   7   8
HETATM    8  C   UNL     1     -10.600   7.758  67.123  1.00  0.00    -0.401 C  
BRANCH   8   9
HETATM    9  C   UNL     1     -10.964   6.286  67.284  1.00  0.00    -0.455 C  
BRANCH   9  10
HETATM   10  C   UNL     1     -10.048   5.367  66.475  1.00  0.00    -0.250 C  
BRANCH  10  11
HETATM   11  C   UNL     1      -9.532   4.137  67.233  1.00  0.00    -0.220 C  
BRANCH  11  12
HETATM   12  C   UNL     1      -9.392   4.378  68.741  1.00  0.00    -0.151 C  
BRANCH  12  13
HETATM   13  N   UNL     1      -8.606   3.274  69.473  1.00  0.00    -0.062 N  
HETATM   14  C   UNL     1      -8.084   2.239  68.484  1.00  0.00    -0.056 C  
HETATM   15  C   UNL     1      -7.435   3.868  70.249  1.00  0.00    -0.045 C  
BRANCH  13  16
HETATM   16  C   UNL     1      -9.598   2.599  70.480  1.00  0.00    -0.079 C  
BRANCH  16  17
HETATM   17  C   UNL     1      -9.911   3.411  71.713  1.00  0.00    -0.229 A  
HETATM   18  C   UNL     1      -9.878   2.818  72.986  1.00  0.00    -0.178 A  
HETATM   19  C   UNL     1     -10.366   3.505  74.096  1.00  0.00    -0.243 A  
HETATM   20  C   UNL     1     -10.864   4.798  73.952  1.00  0.00    -0.360 A  
HETATM   21  C   UNL     1     -10.831   5.424  72.710  1.00  0.00    -0.310 A  
HETATM   22  C   UNL     1     -10.342   4.741  71.596  1.00  0.00    -0.215 A  
ENDBRANCH  16  17
ENDBRANCH  13  16
ENDBRANCH  12  13
ENDBRANCH  11  12
ENDBRANCH  10  11
ENDBRANCH   9  10
ENDBRANCH   8   9
ENDBRANCH   7   8
ENDBRANCH   6   7
ENDBRANCH   5   6
ENDBRANCH   4   5
ENDBRANCH   3   4
ENDBRANCH   2   3
TORSDOF 13
ENDMDL
MODEL      341
REMARK 921   NORMALIZED FREE ENERGY PREDICTED BY IDOCK:   -2.64 KCAL/MOL
REMARK 922        TOTAL FREE ENERGY PREDICTED BY IDOCK:   -6.11 KCAL/MOL
REMARK 923 INTER-LIGAND FREE ENERGY PREDICTED BY IDOCK:   -4.96 KCAL/MOL
REMARK 924 INTRA-LIGAND FREE ENERGY PREDICTED BY IDOCK:   -1.16 KCAL/MOL
REMARK 927      BINDING AFFINITY PREDICTED BY RF-SCORE:    0.00 PKD
ROOT
HETATM    1  C   UNL     1     -12.069  12.401  67.810  1.00  0.00    -0.074 C  
HETATM    2  C   UNL     1     -11.975  13.799  68.397  1.00  0.00    -0.395 C  
ENDROOT
BRANCH   2   3
HETATM    3  C   UNL     1     -11.745  14.838  67.302  1.00  0.00    -0.366 C  
BRANCH   3   4
HETATM    4  C   UNL     1     -10.938  14.251  66.148  1.00  0.00    -0.313 C  
BRANCH   4   5
HETATM    5  C   UNL     1      -9.766  15.162  65.795  1.00  0.00    -0.379 C  
BRANCH   5   6
HETATM    6  C   UNL     1      -9.276  15.911  67.027  1.00  0.00    -0.231 C  
BRANCH   6   7
HETATM    7  C   UNL     1      -7.853  15.501  67.390  1.00  0.00    -0.213 C  
BRANCH   7   8
HETATM    8  C   UNL     1      -7.884  14.354  68.391  1.00  0.00    -0.138 C  
BRANCH   8   9
HETATM    9  C   UNL     1      -7.291  13.076  67.805  1.00  0.00    -0.139 C  
BRANCH   9  10
HETATM   10  C   UNL     1      -8.351  12.001  67.559  1.00  0.00    -0.166 C  
BRANCH  10  11
HETATM   11  C   UNL     1      -8.588  11.045  68.735  1.00  0.00    -0.144 C  
BRANCH  11  12
HETATM   12  C   UNL     1      -9.613   9.949  68.418  1.00  0.00    -0.148 C  
BRANCH  12  13
HETATM   13  N   UNL     1      -9.229   8.563  68.972  1.00  0.00    -0.146 N  
HETATM   14  C   UNL     1      -8.148   7.921  68.111  1.00  0.00    -0.123 C  
HETATM   15  C   UNL     1      -8.731   8.675  70.408  1.00  0.00    -0.155 C  
BRANCH  13  16
HETATM   16  C   UNL     1     -10.526   7.686  68.945  1.00  0.00    -0.199 C  
BRANCH  16  17
HETATM   17  C   UNL     1     -10.372   6.335  68.291  1.00  0.00    -0.233 A  
HETATM   18  C   UNL     1      -9.699   5.294  68.953  1.00  0.00    -0.207 A  
HETATM   19  C   UNL     1      -9.374   4.121  68.274  1.00  0.00    -0.214 A  
HETATM   20  C   UNL     1      -9.741   3.964  66.939  1.00  0.00    -0.189 A  
HETATM   21  C   UNL     1     -10.475   4.956  66.296  1.00  0.00    -0.349 A  
HETATM   22  C   UNL     1     -10.804   6.131  66.972  1.00  0.00    -0.435 A  
ENDBRANCH  16  17
ENDBRANCH  13  16
ENDBRANCH  12  13
ENDBRANCH  11  12
ENDBRANCH  10  11
ENDBRANCH   9  10
ENDBRANCH   8   9
ENDBRANCH   7   8
ENDBRANCH   6   7
ENDBRANCH   5   6
ENDBRANCH   4   5
ENDBRANCH   3   4
ENDBRANCH   2   3
TORSDOF 13
ENDMDL
MODEL      342
REMARK 921   NORMALIZED FREE ENERGY PREDICTED BY IDOCK:   -2.63 KCAL/MOL
REMARK 922        TOTAL FREE ENERGY PREDICTED BY IDOCK:   -6.10 KCAL/MOL
REMARK 923 INTER-LIGAND FREE ENERGY PREDICTED BY IDOCK:   -5.30 KCAL/MOL
REMARK 924 INTRA-LIGAND FREE ENERGY PREDICTED BY IDOCK:   -0.80 KCAL/MOL
REMARK 927      BINDING AFFINITY PREDICTED BY RF-SCORE:    0.00 PKD
ROOT
HETATM    1  C   UNL     1      -5.824  19.308  70.121  1.00  0.00    -0.281 C  
HETATM    2  C   UNL     1      -6.689  19.808  68.976  1.00  0.00    -0.372 C  
ENDROOT
BRANCH   2   3
HETATM    3  C   UNL     1      -8.037  19.093  68.956  1.00  0.00    -0.260 C  
BRANCH   3   4
HETATM    4  C   UNL     1      -9.111  19.925  69.650  1.00  0.00     0.506 C  
BRANCH   4   5
HETATM    5  C   UNL     1     -10.348  20.050  68.765  1.00  0.00    -0.318 C  
BRANCH   5   6
HETATM    6  C   UNL     1     -10.484  18.836  67.856  1.00  0.00    -0.448 C  
BRANCH   6   7
HETATM    7  C   UNL     1     -10.407  19.237  66.386  1.00  0.00    -0.558 C  
BRANCH   7   8
HETATM    8  C   UNL     1      -9.262  18.496  65.707  1.00  0.00     0.433 C  
BRANCH   8   9
HETATM    9  C   UNL     1      -9.385  16.986  65.879  1.00  0.00    -0.095 C  
BRANCH   9  10
HETATM   10  C   UNL     1     -10.588  16.410  65.131  1.00  0.00    -0.287 C  
BRANCH  10  11
HETATM   11  C   UNL     1     -10.767  14.893  65.262  1.00  0.00    -0.409 C  
BRANCH  11  12
HETATM   12  C   UNL     1      -9.528  14.191  65.833  1.00  0.00    -0.098 C  
BRANCH  12  13
HETATM   13  N   UNL     1      -9.821  12.793  66.412  1.00  0.00    -0.264 N  
HETATM   14  C   UNL     1      -9.343  11.705  65.458  1.00  0.00    -0.156 C  
HETATM   15  C   UNL     1      -9.140  12.615  67.764  1.00  0.00    -0.192 C  
BRANCH  13  16
HETATM   16  C   UNL     1     -11.374  12.694  66.602  1.00  0.00    -0.326 C  
BRANCH  16  17
HETATM   17  C   UNL     1     -11.858  12.882  68.018  1.00  0.00    -0.390 A  
HETATM   18  C   UNL     1     -12.046  14.172  68.543  1.00  0.00    -0.312 A  
HETATM   19  C   UNL     1     -12.290  14.350  69.904  1.00  0.00    -0.365 A  
HETATM   20  C   UNL     1     -12.376  13.244  70.747  1.00  0.00    -0.425 A  
HETATM   21  C   UNL     1     -12.267  11.958  70.226  1.00  0.00    -0.353 A  
HETATM   22  C   UNL     1     -12.025  11.775  68.864  1.00  0.00    -0.332 A  
ENDBRANCH  16  17
ENDBRANCH  13  16
ENDBRANCH  12  13
ENDBRANCH  11  12
ENDBRANCH  10  11
ENDBRANCH   9  10
ENDBRANCH   8   9
ENDBRANCH   7   8
ENDBRANCH   6   7
ENDBRANCH   5   6
ENDBRANCH   4   5
ENDBRANCH   3   4
ENDBRANCH   2   3
TORSDOF 13
ENDMDL
MODEL      343
REMARK 921   NORMALIZED FREE ENERGY PREDICTED BY IDOCK:   -2.61 KCAL/MOL
REMARK 922        TOTAL FREE ENERGY PREDICTED BY IDOCK:   -6.07 KCAL/MOL
REMARK 923 INTER-LIGAND FREE ENERGY PREDICTED BY IDOCK:   -4.95 KCAL/MOL
REMARK 924 INTRA-LIGAND FREE ENERGY PREDICTED BY IDOCK:   -1.12 KCAL/MOL
REMARK 927      BINDING AFFINITY PREDICTED BY RF-SCORE:    0.00 PKD
ROOT
HETATM    1  C   UNL     1      -9.486  15.855  68.820  1.00  0.00    -0.221 C  
HETATM    2  C   UNL     1     -10.513  14.774  68.525  1.00  0.00    -0.249 C  
ENDROOT
BRANCH   2   3
HETATM    3  C   UNL     1     -10.124  13.972  67.286  1.00  0.00    -0.249 C  
BRANCH   3   4
HETATM    4  C   UNL     1     -10.184  12.473  67.560  1.00  0.00    -0.219 C  
BRANCH   4   5
HETATM    5  C   UNL     1     -11.626  11.977  67.516  1.00  0.00    -0.401 C  
BRANCH   5   6
HETATM    6  C   UNL     1     -12.084  11.528  68.898  1.00  0.00    -0.270 C  
BRANCH   6   7
HETATM    7  C   UNL     1     -10.896  11.138  69.772  1.00  0.00    -0.152 C  
BRANCH   7   8
HETATM    8  C   UNL     1     -11.152   9.784  70.420  1.00  0.00    -0.367 C  
BRANCH   8   9
HETATM    9  C   UNL     1      -9.955   8.851  70.273  1.00  0.00    -0.214 C  
BRANCH   9  10
HETATM   10  C   UNL     1      -8.671   9.602  69.915  1.00  0.00    -0.236 C  
BRANCH  10  11
HETATM   11  C   UNL     1      -7.787   8.911  68.870  1.00  0.00    -0.096 C  
BRANCH  11  12
HETATM   12  C   UNL     1      -7.859   9.576  67.490  1.00  0.00    -0.102 C  
BRANCH  12  13
HETATM   13  N   UNL     1      -6.868   8.987  66.467  1.00  0.00    -0.078 N  
HETATM   14  C   UNL     1      -5.983  10.082  65.884  1.00  0.00    -0.077 C  
HETATM   15  C   UNL     1      -5.993   7.921  67.115  1.00  0.00    -0.049 C  
BRANCH  13  16
HETATM   16  C   UNL     1      -7.723   8.329  65.331  1.00  0.00    -0.103 C  
BRANCH  16  17
HETATM   17  C   UNL     1      -8.544   9.291  64.508  1.00  0.00    -0.217 A  
HETATM   18  C   UNL     1      -8.168   9.605  63.191  1.00  0.00    -0.155 A  
HETATM   19  C   UNL     1      -8.798  10.643  62.507  1.00  0.00    -0.305 A  
HETATM   20  C   UNL     1      -9.826  11.358  63.118  1.00  0.00    -0.413 A  
HETATM   21  C   UNL     1     -10.259  11.006  64.393  1.00  0.00    -0.409 A  
HETATM   22  C   UNL     1      -9.632   9.966  65.081  1.00  0.00    -0.367 A  
ENDBRANCH  16  17
ENDBRANCH  13  16
ENDBRANCH  12  13
ENDBRANCH  11  12
ENDBRANCH  10  11
ENDBRANCH   9  10
ENDBRANCH   8   9
ENDBRANCH   7   8
ENDBRANCH   6   7
ENDBRANCH   5   6
ENDBRANCH   4   5
ENDBRANCH   3   4
ENDBRANCH   2   3
TORSDOF 13
ENDMDL
MODEL      344
REMARK 921   NORMALIZED FREE ENERGY PREDICTED BY IDOCK:   -2.60 KCAL/MOL
REMARK 922        TOTAL FREE ENERGY PREDICTED BY IDOCK:   -6.05 KCAL/MOL
REMARK 923 INTER-LIGAND FREE ENERGY PREDICTED BY IDOCK:   -5.49 KCAL/MOL
REMARK 924 INTRA-LIGAND FREE ENERGY PREDICTED BY IDOCK:   -0.56 KCAL/MOL
REMARK 927      BINDING AFFINITY PREDICTED BY RF-SCORE:    0.00 PKD
ROOT
HETATM    1  C   UNL     1     -12.443  15.942  73.555  1.00  0.00    -0.683 C  
HETATM    2  C   UNL     1     -11.683  15.996  72.240  1.00  0.00    -0.581 C  
ENDROOT
BRANCH   2   3
HETATM    3  C   UNL     1     -12.266  15.012  71.230  1.00  0.00    -0.380 C  
BRANCH   3   4
HETATM    4  C   UNL     1     -11.180  14.451  70.317  1.00  0.00    -0.102 C  
BRANCH   4   5
HETATM    5  C   UNL     1     -11.473  14.794  68.860  1.00  0.00    -0.321 C  
BRANCH   5   6
HETATM    6  C   UNL     1     -11.957  13.563  68.104  1.00  0.00    -0.376 C  
BRANCH   6   7
HETATM    7  C   UNL     1     -11.592  13.646  66.626  1.00  0.00    -0.391 C  
BRANCH   7   8
HETATM    8  C   UNL     1     -10.104  13.375  66.444  1.00  0.00    -0.292 C  
BRANCH   8   9
HETATM    9  C   UNL     1      -9.813  11.885  66.299  1.00  0.00    -0.246 C  
BRANCH   9  10
HETATM   10  C   UNL     1      -8.864  11.368  67.382  1.00  0.00    -0.150 C  
BRANCH  10  11
HETATM   11  C   UNL     1      -9.544  10.625  68.538  1.00  0.00    -0.175 C  
BRANCH  11  12
HETATM   12  C   UNL     1      -8.637   9.574  69.190  1.00  0.00    -0.140 C  
BRANCH  12  13
HETATM   13  N   UNL     1      -9.392   8.582  70.095  1.00  0.00    -0.158 N  
HETATM   14  C   UNL     1      -9.898   9.278  71.352  1.00  0.00    -0.226 C  
HETATM   15  C   UNL     1     -10.569   7.962  69.352  1.00  0.00    -0.205 C  
BRANCH  13  16
HETATM   16  C   UNL     1      -8.376   7.452  70.480  1.00  0.00    -0.132 C  
BRANCH  16  17
HETATM   17  C   UNL     1      -8.479   6.191  69.659  1.00  0.00    -0.127 A  
HETATM   18  C   UNL     1      -7.881   6.115  68.390  1.00  0.00    -0.104 A  
HETATM   19  C   UNL     1      -8.150   5.037  67.548  1.00  0.00    -0.099 A  
HETATM   20  C   UNL     1      -8.993   4.013  67.974  1.00  0.00    -0.153 A  
HETATM   21  C   UNL     1      -9.530   4.040  69.258  1.00  0.00    -0.260 A  
HETATM   22  C   UNL     1      -9.262   5.116  70.104  1.00  0.00    -0.188 A  
ENDBRANCH  16  17
ENDBRANCH  13  16
ENDBRANCH  12  13
ENDBRANCH  11  12
ENDBRANCH  10  11
ENDBRANCH   9  10
ENDBRANCH   8   9
ENDBRANCH   7   8
ENDBRANCH   6   7
ENDBRANCH   5   6
ENDBRANCH   4   5
ENDBRANCH   3   4
ENDBRANCH   2   3
TORSDOF 13
ENDMDL
MODEL      345
REMARK 921   NORMALIZED FREE ENERGY PREDICTED BY IDOCK:   -2.60 KCAL/MOL
REMARK 922        TOTAL FREE ENERGY PREDICTED BY IDOCK:   -6.04 KCAL/MOL
REMARK 923 INTER-LIGAND FREE ENERGY PREDICTED BY IDOCK:   -5.40 KCAL/MOL
REMARK 924 INTRA-LIGAND FREE ENERGY PREDICTED BY IDOCK:   -0.65 KCAL/MOL
REMARK 927      BINDING AFFINITY PREDICTED BY RF-SCORE:    0.00 PKD
ROOT
HETATM    1  C   UNL     1      -9.428   7.800  73.641  1.00  0.00    -0.312 C  
HETATM    2  C   UNL     1      -9.372   6.283  73.574  1.00  0.00    -0.139 C  
ENDROOT
BRANCH   2   3
HETATM    3  C   UNL     1     -10.539   5.728  72.762  1.00  0.00    -0.262 C  
BRANCH   3   4
HETATM    4  C   UNL     1     -11.436   6.851  72.249  1.00  0.00    -0.313 C  
BRANCH   4   5
HETATM    5  C   UNL     1     -11.766   6.643  70.773  1.00  0.00    -0.445 C  
BRANCH   5   6
HETATM    6  C   UNL     1     -10.492   6.576  69.941  1.00  0.00    -0.258 C  
BRANCH   6   7
HETATM    7  C   UNL     1     -10.641   5.594  68.784  1.00  0.00    -0.286 C  
BRANCH   7   8
HETATM    8  C   UNL     1     -10.976   6.349  67.504  1.00  0.00    -0.454 C  
BRANCH   8   9
HETATM    9  C   UNL     1     -10.130   7.610  67.354  1.00  0.00    -0.287 C  
BRANCH   9  10
HETATM   10  C   UNL     1      -8.954   7.413  66.397  1.00  0.00    -0.190 C  
BRANCH  10  11
HETATM   11  C   UNL     1      -8.684   8.590  65.452  1.00  0.00    -0.194 C  
BRANCH  11  12
HETATM   12  C   UNL     1      -9.860   9.571  65.367  1.00  0.00    -0.177 C  
BRANCH  12  13
HETATM   13  N   UNL     1      -9.643  10.709  64.350  1.00  0.00    -0.267 N  
HETATM   14  C   UNL     1      -8.355  11.464  64.654  1.00  0.00     0.683 C  
HETATM   15  C   UNL     1      -9.584  10.159  62.930  1.00  0.00    -0.174 C  
BRANCH  13  16
HETATM   16  C   UNL     1     -10.872  11.673  64.476  1.00  0.00    -0.324 C  
BRANCH  16  17
HETATM   17  C   UNL     1     -10.983  12.399  65.794  1.00  0.00    -0.333 A  
HETATM   18  C   UNL     1     -11.551  11.766  66.912  1.00  0.00    -0.310 A  
HETATM   19  C   UNL     1     -11.844  12.497  68.062  1.00  0.00    -0.382 A  
HETATM   20  C   UNL     1     -11.548  13.857  68.119  1.00  0.00    -0.370 A  
HETATM   21  C   UNL     1     -10.915  14.478  67.046  1.00  0.00    -0.312 A  
HETATM   22  C   UNL     1     -10.618  13.751  65.894  1.00  0.00    -0.289 A  
ENDBRANCH  16  17
ENDBRANCH  13  16
ENDBRANCH  12  13
ENDBRANCH  11  12
ENDBRANCH  10  11
ENDBRANCH   9  10
ENDBRANCH   8   9
ENDBRANCH   7   8
ENDBRANCH   6   7
ENDBRANCH   5   6
ENDBRANCH   4   5
ENDBRANCH   3   4
ENDBRANCH   2   3
TORSDOF 13
ENDMDL
MODEL      346
REMARK 921   NORMALIZED FREE ENERGY PREDICTED BY IDOCK:   -2.59 KCAL/MOL
REMARK 922        TOTAL FREE ENERGY PREDICTED BY IDOCK:   -6.03 KCAL/MOL
REMARK 923 INTER-LIGAND FREE ENERGY PREDICTED BY IDOCK:   -5.59 KCAL/MOL
REMARK 924 INTRA-LIGAND FREE ENERGY PREDICTED BY IDOCK:   -0.44 KCAL/MOL
REMARK 927      BINDING AFFINITY PREDICTED BY RF-SCORE:    0.00 PKD
ROOT
HETATM    1  C   UNL     1     -14.045  13.947  72.268  1.00  0.00    -0.632 C  
HETATM    2  C   UNL     1     -14.041  15.385  71.776  1.00  0.00    -0.630 C  
ENDROOT
BRANCH   2   3
HETATM    3  C   UNL     1     -12.830  15.656  70.887  1.00  0.00    -0.498 C  
BRANCH   3   4
HETATM    4  C   UNL     1     -11.934  14.425  70.788  1.00  0.00    -0.391 C  
BRANCH   4   5
HETATM    5  C   UNL     1     -11.961  13.854  69.373  1.00  0.00    -0.402 C  
BRANCH   5   6
HETATM    6  C   UNL     1     -11.230  14.777  68.406  1.00  0.00    -0.298 C  
BRANCH   6   7
HETATM    7  C   UNL     1     -10.554  13.984  67.293  1.00  0.00    -0.273 C  
BRANCH   7   8
HETATM    8  C   UNL     1      -9.260  13.367  67.808  1.00  0.00    -0.211 C  
BRANCH   8   9
HETATM    9  C   UNL     1      -9.130  11.903  67.400  1.00  0.00    -0.178 C  
BRANCH   9  10
HETATM   10  C   UNL     1     -10.487  11.207  67.287  1.00  0.00    -0.263 C  
BRANCH  10  11
HETATM   11  C   UNL     1     -10.606   9.890  68.064  1.00  0.00    -0.288 C  
BRANCH  11  12
HETATM   12  C   UNL     1     -10.366   8.654  67.189  1.00  0.00    -0.299 C  
BRANCH  12  13
HETATM   13  N   UNL     1     -10.012   7.387  67.991  1.00  0.00    -0.158 N  
HETATM   14  C   UNL     1     -10.699   7.402  69.351  1.00  0.00    -0.211 C  
HETATM   15  C   UNL     1     -10.426   6.133  67.229  1.00  0.00    -0.255 C  
BRANCH  13  16
HETATM   16  C   UNL     1      -8.456   7.384  68.177  1.00  0.00    -0.124 C  
BRANCH  16  17
HETATM   17  C   UNL     1      -7.921   6.298  69.077  1.00  0.00    -0.110 A  
HETATM   18  C   UNL     1      -7.530   5.058  68.545  1.00  0.00    -0.074 A  
HETATM   19  C   UNL     1      -7.236   3.990  69.390  1.00  0.00    -0.050 A  
HETATM   20  C   UNL     1      -7.301   4.156  70.772  1.00  0.00    -0.041 A  
HETATM   21  C   UNL     1      -7.612   5.401  71.311  1.00  0.00    -0.101 A  
HETATM   22  C   UNL     1      -7.905   6.473  70.469  1.00  0.00    -0.106 A  
ENDBRANCH  16  17
ENDBRANCH  13  16
ENDBRANCH  12  13
ENDBRANCH  11  12
ENDBRANCH  10  11
ENDBRANCH   9  10
ENDBRANCH   8   9
ENDBRANCH   7   8
ENDBRANCH   6   7
ENDBRANCH   5   6
ENDBRANCH   4   5
ENDBRANCH   3   4
ENDBRANCH   2   3
TORSDOF 13
ENDMDL
MODEL      347
REMARK 921   NORMALIZED FREE ENERGY PREDICTED BY IDOCK:   -2.58 KCAL/MOL
REMARK 922        TOTAL FREE ENERGY PREDICTED BY IDOCK:   -6.02 KCAL/MOL
REMARK 923 INTER-LIGAND FREE ENERGY PREDICTED BY IDOCK:   -3.99 KCAL/MOL
REMARK 924 INTRA-LIGAND FREE ENERGY PREDICTED BY IDOCK:   -2.03 KCAL/MOL
REMARK 927      BINDING AFFINITY PREDICTED BY RF-SCORE:    0.00 PKD
ROOT
HETATM    1  C   UNL     1     -10.473  10.822  66.504  1.00  0.00    -0.299 C  
HETATM    2  C   UNL     1     -10.021   9.372  66.455  1.00  0.00    -0.346 C  
ENDROOT
BRANCH   2   3
HETATM    3  C   UNL     1      -8.713   9.233  65.681  1.00  0.00    -0.193 C  
BRANCH   3   4
HETATM    4  C   UNL     1      -8.363   7.765  65.453  1.00  0.00    -0.141 C  
BRANCH   4   5
HETATM    5  C   UNL     1      -6.908   7.496  65.828  1.00  0.00    -0.056 C  
BRANCH   5   6
HETATM    6  C   UNL     1      -6.753   6.098  66.411  1.00  0.00    -0.060 C  
BRANCH   6   7
HETATM    7  C   UNL     1      -8.008   5.262  66.180  1.00  0.00    -0.104 C  
BRANCH   7   8
HETATM    8  C   UNL     1      -8.429   4.589  67.481  1.00  0.00    -0.103 C  
BRANCH   8   9
HETATM    9  C   UNL     1      -9.033   5.587  68.464  1.00  0.00    -0.114 C  
BRANCH   9  10
HETATM   10  C   UNL     1     -10.353   5.093  69.058  1.00  0.00    -0.205 C  
BRANCH  10  11
HETATM   11  C   UNL     1     -11.404   6.184  69.295  1.00  0.00    -0.361 C  
BRANCH  11  12
HETATM   12  C   UNL     1     -10.793   7.518  69.740  1.00  0.00    -0.225 C  
BRANCH  12  13
HETATM   13  N   UNL     1     -10.970   7.810  71.243  1.00  0.00    -0.232 N  
HETATM   14  C   UNL     1     -12.390   8.279  71.535  1.00  0.00    -0.306 C  
HETATM   15  C   UNL     1     -10.667   6.568  72.073  1.00  0.00    -0.223 C  
BRANCH  13  16
HETATM   16  C   UNL     1      -9.947   8.937  71.613  1.00  0.00    -0.327 C  
BRANCH  16  17
HETATM   17  C   UNL     1      -8.664   8.924  70.819  1.00  0.00    -0.245 A  
HETATM   18  C   UNL     1      -8.439   9.875  69.810  1.00  0.00    -0.206 A  
HETATM   19  C   UNL     1      -7.358   9.738  68.941  1.00  0.00    -0.073 A  
HETATM   20  C   UNL     1      -6.477   8.668  69.088  1.00  0.00    -0.043 A  
HETATM   21  C   UNL     1      -6.646   7.762  70.131  1.00  0.00    -0.038 A  
HETATM   22  C   UNL     1      -7.726   7.897  71.004  1.00  0.00    -0.084 A  
ENDBRANCH  16  17
ENDBRANCH  13  16
ENDBRANCH  12  13
ENDBRANCH  11  12
ENDBRANCH  10  11
ENDBRANCH   9  10
ENDBRANCH   8   9
ENDBRANCH   7   8
ENDBRANCH   6   7
ENDBRANCH   5   6
ENDBRANCH   4   5
ENDBRANCH   3   4
ENDBRANCH   2   3
TORSDOF 13
ENDMDL
MODEL      348
REMARK 921   NORMALIZED FREE ENERGY PREDICTED BY IDOCK:   -2.54 KCAL/MOL
REMARK 922        TOTAL FREE ENERGY PREDICTED BY IDOCK:   -5.95 KCAL/MOL
REMARK 923 INTER-LIGAND FREE ENERGY PREDICTED BY IDOCK:   -4.89 KCAL/MOL
REMARK 924 INTRA-LIGAND FREE ENERGY PREDICTED BY IDOCK:   -1.06 KCAL/MOL
REMARK 927      BINDING AFFINITY PREDICTED BY RF-SCORE:    0.00 PKD
ROOT
HETATM    1  C   UNL     1      -9.887   7.075  73.935  1.00  0.00    -0.354 C  
HETATM    2  C   UNL     1     -10.563   5.718  74.029  1.00  0.00    -0.234 C  
ENDROOT
BRANCH   2   3
HETATM    3  C   UNL     1     -11.343   5.406  72.755  1.00  0.00    -0.358 C  
BRANCH   3   4
HETATM    4  C   UNL     1     -12.025   6.655  72.207  1.00  0.00    -0.259 C  
BRANCH   4   5
HETATM    5  C   UNL     1     -12.072   6.617  70.682  1.00  0.00    -0.342 C  
BRANCH   5   6
HETATM    6  C   UNL     1     -10.672   6.453  70.105  1.00  0.00    -0.328 C  
BRANCH   6   7
HETATM    7  C   UNL     1     -10.694   5.598  68.841  1.00  0.00    -0.280 C  
BRANCH   7   8
HETATM    8  C   UNL     1      -9.909   6.290  67.735  1.00  0.00    -0.130 C  
BRANCH   8   9
HETATM    9  C   UNL     1      -9.106   7.473  68.266  1.00  0.00    -0.132 C  
BRANCH   9  10
HETATM   10  C   UNL     1      -7.599   7.281  68.091  1.00  0.00    -0.115 C  
BRANCH  10  11
HETATM   11  C   UNL     1      -6.924   8.282  67.146  1.00  0.00    -0.075 C  
BRANCH  11  12
HETATM   12  C   UNL     1      -7.870   9.394  66.677  1.00  0.00    -0.104 C  
BRANCH  12  13
HETATM   13  N   UNL     1      -8.106   9.403  65.154  1.00  0.00    -0.121 N  
HETATM   14  C   UNL     1      -6.982  10.142  64.439  1.00  0.00    -0.106 C  
HETATM   15  C   UNL     1      -8.199   7.981  64.614  1.00  0.00    -0.106 C  
BRANCH  13  16
HETATM   16  C   UNL     1      -9.469  10.135  64.908  1.00  0.00    -0.289 C  
BRANCH  16  17
HETATM   17  C   UNL     1     -10.046  10.837  66.113  1.00  0.00    -0.297 A  
HETATM   18  C   UNL     1      -9.627  12.134  66.452  1.00  0.00    -0.243 A  
HETATM   19  C   UNL     1      -9.997  12.698  67.672  1.00  0.00    -0.216 A  
HETATM   20  C   UNL     1     -10.810  11.985  68.551  1.00  0.00    -0.267 A  
HETATM   21  C   UNL     1     -11.294  10.730  68.193  1.00  0.00    -0.377 A  
HETATM   22  C   UNL     1     -10.927  10.163  66.973  1.00  0.00    -0.162 A  
ENDBRANCH  16  17
ENDBRANCH  13  16
ENDBRANCH  12  13
ENDBRANCH  11  12
ENDBRANCH  10  11
ENDBRANCH   9  10
ENDBRANCH   8   9
ENDBRANCH   7   8
ENDBRANCH   6   7
ENDBRANCH   5   6
ENDBRANCH   4   5
ENDBRANCH   3   4
ENDBRANCH   2   3
TORSDOF 13
ENDMDL
MODEL      349
REMARK 921   NORMALIZED FREE ENERGY PREDICTED BY IDOCK:   -2.54 KCAL/MOL
REMARK 922        TOTAL FREE ENERGY PREDICTED BY IDOCK:   -5.94 KCAL/MOL
REMARK 923 INTER-LIGAND FREE ENERGY PREDICTED BY IDOCK:   -6.01 KCAL/MOL
REMARK 924 INTRA-LIGAND FREE ENERGY PREDICTED BY IDOCK:    0.06 KCAL/MOL
REMARK 927      BINDING AFFINITY PREDICTED BY RF-SCORE:    0.00 PKD
ROOT
HETATM    1  C   UNL     1      -5.505  15.870  69.071  1.00  0.00    -0.105 C  
HETATM    2  C   UNL     1      -6.405  15.862  67.846  1.00  0.00    -0.154 C  
ENDROOT
BRANCH   2   3
HETATM    3  C   UNL     1      -6.086  17.037  66.926  1.00  0.00    -0.235 C  
BRANCH   3   4
HETATM    4  C   UNL     1      -5.726  18.283  67.730  1.00  0.00    -0.158 C  
BRANCH   4   5
HETATM    5  C   UNL     1      -6.983  18.947  68.284  1.00  0.00    -0.273 C  
BRANCH   5   6
HETATM    6  C   UNL     1      -7.455  20.062  67.361  1.00  0.00    -0.314 C  
BRANCH   6   7
HETATM    7  C   UNL     1      -8.813  20.602  67.797  1.00  0.00    -0.138 C  
BRANCH   7   8
HETATM    8  C   UNL     1      -9.866  19.507  67.680  1.00  0.00    -0.475 C  
BRANCH   8   9
HETATM    9  C   UNL     1      -9.995  18.997  66.248  1.00  0.00    -0.449 C  
BRANCH   9  10
HETATM   10  C   UNL     1     -10.010  17.470  66.173  1.00  0.00    -0.280 C  
BRANCH  10  11
HETATM   11  C   UNL     1     -10.844  16.776  67.256  1.00  0.00    -0.137 C  
BRANCH  11  12
HETATM   12  C   UNL     1     -10.094  15.632  67.948  1.00  0.00    -0.225 C  
BRANCH  12  13
HETATM   13  N   UNL     1     -10.870  15.005  69.123  1.00  0.00    -0.241 N  
HETATM   14  C   UNL     1     -10.116  15.201  70.432  1.00  0.00     0.189 C  
HETATM   15  C   UNL     1     -12.259  15.621  69.242  1.00  0.00    -0.142 C  
BRANCH  13  16
HETATM   16  C   UNL     1     -11.012  13.476  68.811  1.00  0.00    -0.261 C  
BRANCH  16  17
HETATM   17  C   UNL     1     -11.816  12.689  69.816  1.00  0.00    -0.379 A  
HETATM   18  C   UNL     1     -12.558  13.349  70.810  1.00  0.00    -0.369 A  
HETATM   19  C   UNL     1     -13.127  12.628  71.859  1.00  0.00    -0.470 A  
HETATM   20  C   UNL     1     -12.986  11.244  71.912  1.00  0.00    -0.471 A  
HETATM   21  C   UNL     1     -12.318  10.571  70.892  1.00  0.00    -0.490 A  
HETATM   22  C   UNL     1     -11.748  11.287  69.839  1.00  0.00    -0.430 A  
ENDBRANCH  16  17
ENDBRANCH  13  16
ENDBRANCH  12  13
ENDBRANCH  11  12
ENDBRANCH  10  11
ENDBRANCH   9  10
ENDBRANCH   8   9
ENDBRANCH   7   8
ENDBRANCH   6   7
ENDBRANCH   5   6
ENDBRANCH   4   5
ENDBRANCH   3   4
ENDBRANCH   2   3
TORSDOF 13
ENDMDL
MODEL      350
REMARK 921   NORMALIZED FREE ENERGY PREDICTED BY IDOCK:   -2.53 KCAL/MOL
REMARK 922        TOTAL FREE ENERGY PREDICTED BY IDOCK:   -5.93 KCAL/MOL
REMARK 923 INTER-LIGAND FREE ENERGY PREDICTED BY IDOCK:   -5.40 KCAL/MOL
REMARK 924 INTRA-LIGAND FREE ENERGY PREDICTED BY IDOCK:   -0.53 KCAL/MOL
REMARK 927      BINDING AFFINITY PREDICTED BY RF-SCORE:    0.00 PKD
ROOT
HETATM    1  C   UNL     1      -8.662  15.323  66.681  1.00  0.00    -0.327 C  
HETATM    2  C   UNL     1      -9.726  15.289  65.597  1.00  0.00    -0.360 C  
ENDROOT
BRANCH   2   3
HETATM    3  C   UNL     1     -10.790  14.239  65.907  1.00  0.00    -0.300 C  
BRANCH   3   4
HETATM    4  C   UNL     1     -10.679  13.048  64.960  1.00  0.00    -0.333 C  
BRANCH   4   5
HETATM    5  C   UNL     1      -9.594  12.086  65.434  1.00  0.00    -0.148 C  
BRANCH   5   6
HETATM    6  C   UNL     1      -9.880  10.671  64.949  1.00  0.00    -0.363 C  
BRANCH   6   7
HETATM    7  C   UNL     1     -10.807   9.936  65.911  1.00  0.00     0.426 C  
BRANCH   7   8
HETATM    8  C   UNL     1      -9.987   9.082  66.870  1.00  0.00    -0.313 C  
BRANCH   8   9
HETATM    9  C   UNL     1     -10.642   7.727  67.121  1.00  0.00    -0.401 C  
BRANCH   9  10
HETATM   10  C   UNL     1      -9.690   6.734  67.789  1.00  0.00    -0.140 C  
BRANCH  10  11
HETATM   11  C   UNL     1      -9.957   6.480  69.277  1.00  0.00    -0.172 C  
BRANCH  11  12
HETATM   12  C   UNL     1      -8.738   6.764  70.162  1.00  0.00    -0.141 C  
BRANCH  12  13
HETATM   13  N   UNL     1      -8.894   6.262  71.611  1.00  0.00    -0.138 N  
HETATM   14  C   UNL     1     -10.033   5.254  71.710  1.00  0.00    -0.190 C  
HETATM   15  C   UNL     1      -7.603   5.616  72.100  1.00  0.00    -0.101 C  
BRANCH  13  16
HETATM   16  C   UNL     1      -9.209   7.516  72.496  1.00  0.00    -0.147 C  
BRANCH  16  17
HETATM   17  C   UNL     1     -10.462   8.267  72.120  1.00  0.00    -0.371 A  
HETATM   18  C   UNL     1     -11.729   7.725  72.394  1.00  0.00    -0.394 A  
HETATM   19  C   UNL     1     -12.877   8.312  71.864  1.00  0.00    -0.371 A  
HETATM   20  C   UNL     1     -12.774   9.459  71.081  1.00  0.00    -0.342 A  
HETATM   21  C   UNL     1     -11.532  10.049  70.866  1.00  0.00    -0.452 A  
HETATM   22  C   UNL     1     -10.381   9.466  71.396  1.00  0.00    -0.326 A  
ENDBRANCH  16  17
ENDBRANCH  13  16
ENDBRANCH  12  13
ENDBRANCH  11  12
ENDBRANCH  10  11
ENDBRANCH   9  10
ENDBRANCH   8   9
ENDBRANCH   7   8
ENDBRANCH   6   7
ENDBRANCH   5   6
ENDBRANCH   4   5
ENDBRANCH   3   4
ENDBRANCH   2   3
TORSDOF 13
ENDMDL
MODEL      351
REMARK 921   NORMALIZED FREE ENERGY PREDICTED BY IDOCK:   -2.52 KCAL/MOL
REMARK 922        TOTAL FREE ENERGY PREDICTED BY IDOCK:   -5.90 KCAL/MOL
REMARK 923 INTER-LIGAND FREE ENERGY PREDICTED BY IDOCK:   -5.28 KCAL/MOL
REMARK 924 INTRA-LIGAND FREE ENERGY PREDICTED BY IDOCK:   -0.62 KCAL/MOL
REMARK 927      BINDING AFFINITY PREDICTED BY RF-SCORE:    0.00 PKD
ROOT
HETATM    1  C   UNL     1      -8.404   5.925  73.630  1.00  0.00    -0.113 C  
HETATM    2  C   UNL     1      -8.324   7.382  73.206  1.00  0.00    -0.152 C  
ENDROOT
BRANCH   2   3
HETATM    3  C   UNL     1      -9.688   8.059  73.315  1.00  0.00    -0.308 C  
BRANCH   3   4
HETATM    4  C   UNL     1     -10.819   7.044  73.179  1.00  0.00    -0.350 C  
BRANCH   4   5
HETATM    5  C   UNL     1     -11.967   7.625  72.359  1.00  0.00    -0.298 C  
BRANCH   5   6
HETATM    6  C   UNL     1     -12.093   6.905  71.023  1.00  0.00    -0.429 C  
BRANCH   6   7
HETATM    7  C   UNL     1     -10.728   6.718  70.368  1.00  0.00    -0.281 C  
BRANCH   7   8
HETATM    8  C   UNL     1     -10.569   7.700  69.214  1.00  0.00    -0.206 C  
BRANCH   8   9
HETATM    9  C   UNL     1     -10.547   9.145  69.701  1.00  0.00    -0.237 C  
BRANCH   9  10
HETATM   10  C   UNL     1     -11.849   9.885  69.391  1.00  0.00     0.170 C  
BRANCH  10  11
HETATM   11  C   UNL     1     -11.677  11.213  68.645  1.00  0.00    -0.389 C  
BRANCH  11  12
HETATM   12  C   UNL     1     -10.208  11.572  68.391  1.00  0.00    -0.205 C  
BRANCH  12  13
HETATM   13  N   UNL     1      -9.908  11.955  66.929  1.00  0.00    -0.200 N  
HETATM   14  C   UNL     1      -8.418  12.203  66.732  1.00  0.00    -0.138 C  
HETATM   15  C   UNL     1     -10.367  10.855  65.978  1.00  0.00    -0.245 C  
BRANCH  13  16
HETATM   16  C   UNL     1     -10.714  13.264  66.625  1.00  0.00    -0.280 C  
BRANCH  16  17
HETATM   17  C   UNL     1     -10.492  14.393  67.601  1.00  0.00    -0.245 A  
HETATM   18  C   UNL     1     -11.529  14.818  68.448  1.00  0.00    -0.336 A  
HETATM   19  C   UNL     1     -11.394  15.987  69.196  1.00  0.00    -0.352 A  
HETATM   20  C   UNL     1     -10.215  16.725  69.127  1.00  0.00    -0.306 A  
HETATM   21  C   UNL     1      -9.152  16.273  68.351  1.00  0.00    -0.203 A  
HETATM   22  C   UNL     1      -9.282  15.103  67.603  1.00  0.00    -0.181 A  
ENDBRANCH  16  17
ENDBRANCH  13  16
ENDBRANCH  12  13
ENDBRANCH  11  12
ENDBRANCH  10  11
ENDBRANCH   9  10
ENDBRANCH   8   9
ENDBRANCH   7   8
ENDBRANCH   6   7
ENDBRANCH   5   6
ENDBRANCH   4   5
ENDBRANCH   3   4
ENDBRANCH   2   3
TORSDOF 13
ENDMDL
MODEL      352
REMARK 921   NORMALIZED FREE ENERGY PREDICTED BY IDOCK:   -2.52 KCAL/MOL
REMARK 922        TOTAL FREE ENERGY PREDICTED BY IDOCK:   -5.90 KCAL/MOL
REMARK 923 INTER-LIGAND FREE ENERGY PREDICTED BY IDOCK:   -5.36 KCAL/MOL
REMARK 924 INTRA-LIGAND FREE ENERGY PREDICTED BY IDOCK:   -0.54 KCAL/MOL
REMARK 927      BINDING AFFINITY PREDICTED BY RF-SCORE:    0.00 PKD
ROOT
HETATM    1  C   UNL     1     -11.073   5.968  68.832  1.00  0.00    -0.349 C  
HETATM    2  C   UNL     1     -11.011   6.336  67.360  1.00  0.00    -0.447 C  
ENDROOT
BRANCH   2   3
HETATM    3  C   UNL     1     -10.213   5.302  66.570  1.00  0.00    -0.293 C  
BRANCH   3   4
HETATM    4  C   UNL     1      -8.718   5.600  66.627  1.00  0.00    -0.118 C  
BRANCH   4   5
HETATM    5  C   UNL     1      -8.107   5.553  65.230  1.00  0.00    -0.122 C  
BRANCH   5   6
HETATM    6  C   UNL     1      -7.166   6.731  65.015  1.00  0.00    -0.074 C  
BRANCH   6   7
HETATM    7  C   UNL     1      -7.738   7.715  64.000  1.00  0.00    -0.126 C  
BRANCH   7   8
HETATM    8  C   UNL     1      -7.011   9.050  64.106  1.00  0.00    -0.094 C  
BRANCH   8   9
HETATM    9  C   UNL     1      -7.841  10.193  63.531  1.00  0.00    -0.158 C  
BRANCH   9  10
HETATM   10  C   UNL     1      -9.345   9.950  63.672  1.00  0.00    -0.242 C  
BRANCH  10  11
HETATM   11  C   UNL     1     -10.120  11.075  64.368  1.00  0.00    -0.393 C  
BRANCH  11  12
HETATM   12  C   UNL     1      -9.465  11.531  65.678  1.00  0.00    -0.222 C  
BRANCH  12  13
HETATM   13  N   UNL     1     -10.437  11.576  66.873  1.00  0.00    -0.226 N  
HETATM   14  C   UNL     1     -11.748  12.244  66.475  1.00  0.00    -0.352 C  
HETATM   15  C   UNL     1     -10.722  10.170  67.389  1.00  0.00    -0.277 C  
BRANCH  13  16
HETATM   16  C   UNL     1      -9.735  12.405  68.002  1.00  0.00    -0.210 C  
BRANCH  16  17
HETATM   17  C   UNL     1     -10.611  13.425  68.687  1.00  0.00    -0.257 A  
HETATM   18  C   UNL     1     -11.481  13.039  69.720  1.00  0.00    -0.213 A  
HETATM   19  C   UNL     1     -12.435  13.931  70.207  1.00  0.00    -0.380 A  
HETATM   20  C   UNL     1     -12.511  15.222  69.689  1.00  0.00    -0.174 A  
HETATM   21  C   UNL     1     -11.604  15.639  68.719  1.00  0.00    -0.393 A  
HETATM   22  C   UNL     1     -10.647  14.751  68.230  1.00  0.00    -0.241 A  
ENDBRANCH  16  17
ENDBRANCH  13  16
ENDBRANCH  12  13
ENDBRANCH  11  12
ENDBRANCH  10  11
ENDBRANCH   9  10
ENDBRANCH   8   9
ENDBRANCH   7   8
ENDBRANCH   6   7
ENDBRANCH   5   6
ENDBRANCH   4   5
ENDBRANCH   3   4
ENDBRANCH   2   3
TORSDOF 13
ENDMDL
MODEL      353
REMARK 921   NORMALIZED FREE ENERGY PREDICTED BY IDOCK:   -2.50 KCAL/MOL
REMARK 922        TOTAL FREE ENERGY PREDICTED BY IDOCK:   -5.88 KCAL/MOL
REMARK 923 INTER-LIGAND FREE ENERGY PREDICTED BY IDOCK:   -5.51 KCAL/MOL
REMARK 924 INTRA-LIGAND FREE ENERGY PREDICTED BY IDOCK:   -0.37 KCAL/MOL
REMARK 927      BINDING AFFINITY PREDICTED BY RF-SCORE:    0.00 PKD
ROOT
HETATM    1  C   UNL     1     -10.455  13.766  64.912  1.00  0.00    -0.437 C  
HETATM    2  C   UNL     1     -11.578  13.369  65.856  1.00  0.00    -0.370 C  
ENDROOT
BRANCH   2   3
HETATM    3  C   UNL     1     -11.887  14.492  66.842  1.00  0.00    -0.399 C  
BRANCH   3   4
HETATM    4  C   UNL     1     -11.793  14.000  68.283  1.00  0.00    -0.406 C  
BRANCH   4   5
HETATM    5  C   UNL     1     -11.816  12.475  68.332  1.00  0.00    -0.353 C  
BRANCH   5   6
HETATM    6  C   UNL     1     -11.863  11.984  69.773  1.00  0.00    -0.401 C  
BRANCH   6   7
HETATM    7  C   UNL     1     -12.619  10.664  69.881  1.00  0.00    -0.168 C  
BRANCH   7   8
HETATM    8  C   UNL     1     -13.130  10.474  71.303  1.00  0.00    -0.478 C  
BRANCH   8   9
HETATM    9  C   UNL     1     -13.480   9.017  71.589  1.00  0.00    -0.442 C  
BRANCH   9  10
HETATM   10  C   UNL     1     -12.280   8.084  71.418  1.00  0.00    -0.335 C  
BRANCH  10  11
HETATM   11  C   UNL     1     -11.059   8.436  72.275  1.00  0.00    -0.438 C  
BRANCH  11  12
HETATM   12  C   UNL     1     -10.837   7.454  73.432  1.00  0.00    -0.313 C  
BRANCH  12  13
HETATM   13  N   UNL     1      -9.656   6.489  73.205  1.00  0.00    -0.150 N  
HETATM   14  C   UNL     1      -8.391   7.023  73.865  1.00  0.00    -0.139 C  
HETATM   15  C   UNL     1      -9.974   5.107  73.765  1.00  0.00    -0.174 C  
BRANCH  13  16
HETATM   16  C   UNL     1      -9.447   6.380  71.656  1.00  0.00    -0.153 C  
BRANCH  16  17
HETATM   17  C   UNL     1      -8.046   6.672  71.177  1.00  0.00    -0.112 A  
HETATM   18  C   UNL     1      -7.619   7.996  70.983  1.00  0.00    -0.083 A  
HETATM   19  C   UNL     1      -6.408   8.259  70.346  1.00  0.00    -0.035 A  
HETATM   20  C   UNL     1      -5.599   7.207  69.924  1.00  0.00    -0.023 A  
HETATM   21  C   UNL     1      -5.975   5.891  70.180  1.00  0.00    -0.025 A  
HETATM   22  C   UNL     1      -7.186   5.623  70.818  1.00  0.00    -0.079 A  
ENDBRANCH  16  17
ENDBRANCH  13  16
ENDBRANCH  12  13
ENDBRANCH  11  12
ENDBRANCH  10  11
ENDBRANCH   9  10
ENDBRANCH   8   9
ENDBRANCH   7   8
ENDBRANCH   6   7
ENDBRANCH   5   6
ENDBRANCH   4   5
ENDBRANCH   3   4
ENDBRANCH   2   3
TORSDOF 13
ENDMDL
MODEL      354
REMARK 921   NORMALIZED FREE ENERGY PREDICTED BY IDOCK:   -2.50 KCAL/MOL
REMARK 922        TOTAL FREE ENERGY PREDICTED BY IDOCK:   -5.87 KCAL/MOL
REMARK 923 INTER-LIGAND FREE ENERGY PREDICTED BY IDOCK:   -4.72 KCAL/MOL
REMARK 924 INTRA-LIGAND FREE ENERGY PREDICTED BY IDOCK:   -1.15 KCAL/MOL
REMARK 927      BINDING AFFINITY PREDICTED BY RF-SCORE:    0.00 PKD
ROOT
HETATM    1  C   UNL     1      -7.671  11.529  67.555  1.00  0.00    -0.132 C  
HETATM    2  C   UNL     1      -9.169  11.778  67.519  1.00  0.00    -0.175 C  
ENDROOT
BRANCH   2   3
HETATM    3  C   UNL     1      -9.925  10.678  68.260  1.00  0.00    -0.173 C  
BRANCH   3   4
HETATM    4  C   UNL     1     -11.406  10.684  67.893  1.00  0.00    -0.342 C  
BRANCH   4   5
HETATM    5  C   UNL     1     -12.270  10.748  69.149  1.00  0.00    -0.122 C  
BRANCH   5   6
HETATM    6  C   UNL     1     -11.400  10.822  70.397  1.00  0.00    -0.342 C  
BRANCH   6   7
HETATM    7  C   UNL     1     -11.731   9.692  71.367  1.00  0.00    -0.478 C  
BRANCH   7   8
HETATM    8  C   UNL     1     -10.470   8.899  71.687  1.00  0.00    -0.408 C  
BRANCH   8   9
HETATM    9  C   UNL     1     -10.792   7.464  72.091  1.00  0.00    -0.273 C  
BRANCH   9  10
HETATM   10  C   UNL     1     -12.057   6.937  71.413  1.00  0.00    -0.408 C  
BRANCH  10  11
HETATM   11  C   UNL     1     -11.875   6.499  69.954  1.00  0.00    -0.223 C  
BRANCH  11  12
HETATM   12  C   UNL     1     -10.627   5.633  69.741  1.00  0.00    -0.329 C  
BRANCH  12  13
HETATM   13  N   UNL     1     -10.053   5.716  68.313  1.00  0.00    -0.156 N  
HETATM   14  C   UNL     1      -9.783   4.322  67.759  1.00  0.00    -0.123 C  
HETATM   15  C   UNL     1     -11.016   6.450  67.386  1.00  0.00    -0.376 C  
BRANCH  13  16
HETATM   16  C   UNL     1      -8.714   6.524  68.406  1.00  0.00    -0.121 C  
BRANCH  16  17
HETATM   17  C   UNL     1      -8.041   6.802  67.085  1.00  0.00    -0.117 A  
HETATM   18  C   UNL     1      -8.236   8.028  66.428  1.00  0.00    -0.113 A  
HETATM   19  C   UNL     1      -7.789   8.206  65.120  1.00  0.00    -0.118 A  
HETATM   20  C   UNL     1      -7.120   7.174  64.465  1.00  0.00    -0.058 A  
HETATM   21  C   UNL     1      -6.853   5.982  65.133  1.00  0.00    -0.051 A  
HETATM   22  C   UNL     1      -7.297   5.800  66.443  1.00  0.00    -0.078 A  
ENDBRANCH  16  17
ENDBRANCH  13  16
ENDBRANCH  12  13
ENDBRANCH  11  12
ENDBRANCH  10  11
ENDBRANCH   9  10
ENDBRANCH   8   9
ENDBRANCH   7   8
ENDBRANCH   6   7
ENDBRANCH   5   6
ENDBRANCH   4   5
ENDBRANCH   3   4
ENDBRANCH   2   3
TORSDOF 13
ENDMDL
MODEL      355
REMARK 921   NORMALIZED FREE ENERGY PREDICTED BY IDOCK:   -2.50 KCAL/MOL
REMARK 922        TOTAL FREE ENERGY PREDICTED BY IDOCK:   -5.86 KCAL/MOL
REMARK 923 INTER-LIGAND FREE ENERGY PREDICTED BY IDOCK:   -4.31 KCAL/MOL
REMARK 924 INTRA-LIGAND FREE ENERGY PREDICTED BY IDOCK:   -1.56 KCAL/MOL
REMARK 927      BINDING AFFINITY PREDICTED BY RF-SCORE:    0.00 PKD
ROOT
HETATM    1  C   UNL     1     -10.396   6.310  74.447  1.00  0.00    -0.278 C  
HETATM    2  C   UNL     1      -9.596   6.786  73.246  1.00  0.00    -0.184 C  
ENDROOT
BRANCH   2   3
HETATM    3  C   UNL     1     -10.354   7.863  72.475  1.00  0.00    -0.349 C  
BRANCH   3   4
HETATM    4  C   UNL     1     -11.660   7.316  71.907  1.00  0.00    -0.313 C  
BRANCH   4   5
HETATM    5  C   UNL     1     -12.273   8.306  70.920  1.00  0.00    -0.101 C  
BRANCH   5   6
HETATM    6  C   UNL     1     -12.419   9.681  71.558  1.00  0.00    -0.476 C  
BRANCH   6   7
HETATM    7  C   UNL     1     -11.577  10.721  70.827  1.00  0.00    -0.322 C  
BRANCH   7   8
HETATM    8  C   UNL     1     -12.195  11.026  69.469  1.00  0.00    -0.352 C  
BRANCH   8   9
HETATM    9  C   UNL     1     -11.339  10.494  68.324  1.00  0.00    -0.332 C  
BRANCH   9  10
HETATM   10  C   UNL     1     -10.030  11.270  68.165  1.00  0.00    -0.191 C  
BRANCH  10  11
HETATM   11  C   UNL     1      -8.763  10.406  68.159  1.00  0.00    -0.125 C  
BRANCH  11  12
HETATM   12  C   UNL     1      -8.752   9.351  69.271  1.00  0.00    -0.145 C  
BRANCH  12  13
HETATM   13  N   UNL     1      -7.403   8.620  69.417  1.00  0.00    -0.071 N  
HETATM   14  C   UNL     1      -6.262   9.489  68.903  1.00  0.00    -0.042 C  
HETATM   15  C   UNL     1      -7.142   8.253  70.873  1.00  0.00    -0.053 C  
BRANCH  13  16
HETATM   16  C   UNL     1      -7.501   7.308  68.567  1.00  0.00    -0.105 C  
BRANCH  16  17
HETATM   17  C   UNL     1      -8.047   6.108  69.301  1.00  0.00    -0.109 A  
HETATM   18  C   UNL     1      -7.177   5.151  69.851  1.00  0.00    -0.059 A  
HETATM   19  C   UNL     1      -7.676   3.946  70.342  1.00  0.00    -0.048 A  
HETATM   20  C   UNL     1      -9.046   3.696  70.316  1.00  0.00    -0.200 A  
HETATM   21  C   UNL     1      -9.924   4.668  69.845  1.00  0.00    -0.296 A  
HETATM   22  C   UNL     1      -9.429   5.876  69.354  1.00  0.00    -0.157 A  
ENDBRANCH  16  17
ENDBRANCH  13  16
ENDBRANCH  12  13
ENDBRANCH  11  12
ENDBRANCH  10  11
ENDBRANCH   9  10
ENDBRANCH   8   9
ENDBRANCH   7   8
ENDBRANCH   6   7
ENDBRANCH   5   6
ENDBRANCH   4   5
ENDBRANCH   3   4
ENDBRANCH   2   3
TORSDOF 13
ENDMDL
MODEL      356
REMARK 921   NORMALIZED FREE ENERGY PREDICTED BY IDOCK:   -2.49 KCAL/MOL
REMARK 922        TOTAL FREE ENERGY PREDICTED BY IDOCK:   -5.86 KCAL/MOL
REMARK 923 INTER-LIGAND FREE ENERGY PREDICTED BY IDOCK:   -5.17 KCAL/MOL
REMARK 924 INTRA-LIGAND FREE ENERGY PREDICTED BY IDOCK:   -0.69 KCAL/MOL
REMARK 927      BINDING AFFINITY PREDICTED BY RF-SCORE:    0.00 PKD
ROOT
HETATM    1  C   UNL     1     -11.234   6.280  70.451  1.00  0.00    -0.439 C  
HETATM    2  C   UNL     1     -10.252   5.982  69.330  1.00  0.00    -0.263 C  
ENDROOT
BRANCH   2   3
HETATM    3  C   UNL     1      -8.986   6.823  69.473  1.00  0.00    -0.139 C  
BRANCH   3   4
HETATM    4  C   UNL     1      -8.425   7.208  68.107  1.00  0.00    -0.123 C  
BRANCH   4   5
HETATM    5  C   UNL     1      -9.265   6.597  66.990  1.00  0.00    -0.147 C  
BRANCH   5   6
HETATM    6  C   UNL     1      -9.046   7.345  65.682  1.00  0.00     0.073 C  
BRANCH   6   7
HETATM    7  C   UNL     1      -7.733   8.121  65.703  1.00  0.00    -0.090 C  
BRANCH   7   8
HETATM    8  C   UNL     1      -7.743   9.186  64.615  1.00  0.00    -0.113 C  
BRANCH   8   9
HETATM    9  C   UNL     1      -8.756  10.288  64.910  1.00  0.00    -0.198 C  
BRANCH   9  10
HETATM   10  C   UNL     1      -9.767  10.469  63.778  1.00  0.00    -0.385 C  
BRANCH  10  11
HETATM   11  C   UNL     1     -10.646  11.721  63.888  1.00  0.00    -0.445 C  
BRANCH  11  12
HETATM   12  C   UNL     1     -10.167  12.694  64.973  1.00  0.00    -0.273 C  
BRANCH  12  13
HETATM   13  N   UNL     1     -11.275  13.627  65.500  1.00  0.00    -0.292 N  
HETATM   14  C   UNL     1     -11.114  15.030  64.927  1.00  0.00    -0.415 C  
HETATM   15  C   UNL     1     -12.653  13.088  65.135  1.00  0.00    -0.469 C  
BRANCH  13  16
HETATM   16  C   UNL     1     -11.136  13.666  67.060  1.00  0.00    -0.301 C  
BRANCH  16  17
HETATM   17  C   UNL     1      -9.898  14.359  67.575  1.00  0.00    -0.220 A  
HETATM   18  C   UNL     1      -8.698  13.647  67.740  1.00  0.00    -0.184 A  
HETATM   19  C   UNL     1      -7.621  14.228  68.407  1.00  0.00    -0.124 A  
HETATM   20  C   UNL     1      -7.721  15.531  68.890  1.00  0.00    -0.175 A  
HETATM   21  C   UNL     1      -8.877  16.272  68.666  1.00  0.00    -0.226 A  
HETATM   22  C   UNL     1      -9.957  15.696  67.997  1.00  0.00    -0.222 A  
ENDBRANCH  16  17
ENDBRANCH  13  16
ENDBRANCH  12  13
ENDBRANCH  11  12
ENDBRANCH  10  11
ENDBRANCH   9  10
ENDBRANCH   8   9
ENDBRANCH   7   8
ENDBRANCH   6   7
ENDBRANCH   5   6
ENDBRANCH   4   5
ENDBRANCH   3   4
ENDBRANCH   2   3
TORSDOF 13
ENDMDL
MODEL      357
REMARK 921   NORMALIZED FREE ENERGY PREDICTED BY IDOCK:   -2.48 KCAL/MOL
REMARK 922        TOTAL FREE ENERGY PREDICTED BY IDOCK:   -5.84 KCAL/MOL
REMARK 923 INTER-LIGAND FREE ENERGY PREDICTED BY IDOCK:   -4.83 KCAL/MOL
REMARK 924 INTRA-LIGAND FREE ENERGY PREDICTED BY IDOCK:   -1.01 KCAL/MOL
REMARK 927      BINDING AFFINITY PREDICTED BY RF-SCORE:    0.00 PKD
ROOT
HETATM    1  C   UNL     1     -12.378  14.302  70.404  1.00  0.00    -0.419 C  
HETATM    2  C   UNL     1     -11.808  15.505  69.672  1.00  0.00    -0.384 C  
ENDROOT
BRANCH   2   3
HETATM    3  C   UNL     1     -11.754  15.255  68.167  1.00  0.00    -0.297 C  
BRANCH   3   4
HETATM    4  C   UNL     1     -11.347  13.817  67.862  1.00  0.00    -0.328 C  
BRANCH   4   5
HETATM    5  C   UNL     1     -12.284  13.202  66.827  1.00  0.00    -0.306 C  
BRANCH   5   6
HETATM    6  C   UNL     1     -12.349  14.070  65.577  1.00  0.00    -0.503 C  
BRANCH   6   7
HETATM    7  C   UNL     1     -11.224  13.723  64.607  1.00  0.00    -0.383 C  
BRANCH   7   8
HETATM    8  C   UNL     1     -11.546  12.421  63.885  1.00  0.00    -0.518 C  
BRANCH   8   9
HETATM    9  C   UNL     1     -10.284  11.633  63.550  1.00  0.00    -0.474 C  
BRANCH   9  10
HETATM   10  C   UNL     1      -9.831  10.738  64.704  1.00  0.00    -0.366 C  
BRANCH  10  11
HETATM   11  C   UNL     1      -8.718  11.325  65.581  1.00  0.00    -0.078 C  
BRANCH  11  12
HETATM   12  C   UNL     1      -9.044  11.272  67.078  1.00  0.00    -0.163 C  
BRANCH  12  13
HETATM   13  N   UNL     1      -8.165  10.283  67.868  1.00  0.00    -0.109 N  
HETATM   14  C   UNL     1      -8.037  10.720  69.322  1.00  0.00    -0.096 C  
HETATM   15  C   UNL     1      -8.750   8.877  67.812  1.00  0.00    -0.125 C  
BRANCH  13  16
HETATM   16  C   UNL     1      -6.755  10.280  67.184  1.00  0.00    -0.078 C  
BRANCH  16  17
HETATM   17  C   UNL     1      -6.145   8.915  66.981  1.00  0.00    -0.058 A  
HETATM   18  C   UNL     1      -6.301   8.238  65.760  1.00  0.00    -0.052 A  
HETATM   19  C   UNL     1      -5.922   6.901  65.643  1.00  0.00    -0.035 A  
HETATM   20  C   UNL     1      -5.359   6.238  66.730  1.00  0.00    -0.012 A  
HETATM   21  C   UNL     1      -5.129   6.920  67.922  1.00  0.00    -0.011 A  
HETATM   22  C   UNL     1      -5.505   8.258  68.044  1.00  0.00    -0.034 A  
ENDBRANCH  16  17
ENDBRANCH  13  16
ENDBRANCH  12  13
ENDBRANCH  11  12
ENDBRANCH  10  11
ENDBRANCH   9  10
ENDBRANCH   8   9
ENDBRANCH   7   8
ENDBRANCH   6   7
ENDBRANCH   5   6
ENDBRANCH   4   5
ENDBRANCH   3   4
ENDBRANCH   2   3
TORSDOF 13
ENDMDL
MODEL      358
REMARK 921   NORMALIZED FREE ENERGY PREDICTED BY IDOCK:   -2.47 KCAL/MOL
REMARK 922        TOTAL FREE ENERGY PREDICTED BY IDOCK:   -5.82 KCAL/MOL
REMARK 923 INTER-LIGAND FREE ENERGY PREDICTED BY IDOCK:   -4.86 KCAL/MOL
REMARK 924 INTRA-LIGAND FREE ENERGY PREDICTED BY IDOCK:   -0.96 KCAL/MOL
REMARK 927      BINDING AFFINITY PREDICTED BY RF-SCORE:    0.00 PKD
ROOT
HETATM    1  C   UNL     1      -8.936  15.337  66.505  1.00  0.00    -0.340 C  
HETATM    2  C   UNL     1     -10.054  14.920  65.564  1.00  0.00    -0.400 C  
ENDROOT
BRANCH   2   3
HETATM    3  C   UNL     1     -10.768  13.673  66.079  1.00  0.00    -0.280 C  
BRANCH   3   4
HETATM    4  C   UNL     1     -10.480  12.468  65.189  1.00  0.00    -0.320 C  
BRANCH   4   5
HETATM    5  C   UNL     1      -9.351  11.625  65.774  1.00  0.00    -0.220 C  
BRANCH   5   6
HETATM    6  C   UNL     1      -9.526  10.159  65.404  1.00  0.00    -0.296 C  
BRANCH   6   7
HETATM    7  C   UNL     1     -10.513   9.469  66.340  1.00  0.00    -0.168 C  
BRANCH   7   8
HETATM    8  C   UNL     1      -9.926   8.153  66.834  1.00  0.00    -0.343 C  
BRANCH   8   9
HETATM    9  C   UNL     1     -10.994   7.072  66.969  1.00  0.00    -0.357 C  
BRANCH   9  10
HETATM   10  C   UNL     1     -10.672   6.071  68.080  1.00  0.00    -0.353 C  
BRANCH  10  11
HETATM   11  C   UNL     1     -11.341   6.363  69.429  1.00  0.00    -0.443 C  
BRANCH  11  12
HETATM   12  C   UNL     1     -10.898   5.401  70.538  1.00  0.00    -0.130 C  
BRANCH  12  13
HETATM   13  N   UNL     1     -10.145   6.091  71.691  1.00  0.00    -0.187 N  
HETATM   14  C   UNL     1      -9.873   7.553  71.358  1.00  0.00    -0.177 C  
HETATM   15  C   UNL     1     -10.946   6.008  72.985  1.00  0.00    -0.257 C  
BRANCH  13  16
HETATM   16  C   UNL     1      -8.791   5.323  71.876  1.00  0.00    -0.135 C  
BRANCH  16  17
HETATM   17  C   UNL     1      -8.182   4.786  70.605  1.00  0.00    -0.092 A  
HETATM   18  C   UNL     1      -7.436   5.625  69.761  1.00  0.00    -0.074 A  
HETATM   19  C   UNL     1      -7.052   5.189  68.494  1.00  0.00    -0.062 A  
HETATM   20  C   UNL     1      -7.384   3.904  68.068  1.00  0.00    -0.062 A  
HETATM   21  C   UNL     1      -8.057   3.037  68.925  1.00  0.00    -0.069 A  
HETATM   22  C   UNL     1      -8.441   3.469  70.195  1.00  0.00    -0.096 A  
ENDBRANCH  16  17
ENDBRANCH  13  16
ENDBRANCH  12  13
ENDBRANCH  11  12
ENDBRANCH  10  11
ENDBRANCH   9  10
ENDBRANCH   8   9
ENDBRANCH   7   8
ENDBRANCH   6   7
ENDBRANCH   5   6
ENDBRANCH   4   5
ENDBRANCH   3   4
ENDBRANCH   2   3
TORSDOF 13
ENDMDL
MODEL      359
REMARK 921   NORMALIZED FREE ENERGY PREDICTED BY IDOCK:   -2.47 KCAL/MOL
REMARK 922        TOTAL FREE ENERGY PREDICTED BY IDOCK:   -5.82 KCAL/MOL
REMARK 923 INTER-LIGAND FREE ENERGY PREDICTED BY IDOCK:   -5.17 KCAL/MOL
REMARK 924 INTRA-LIGAND FREE ENERGY PREDICTED BY IDOCK:   -0.65 KCAL/MOL
REMARK 927      BINDING AFFINITY PREDICTED BY RF-SCORE:    0.00 PKD
ROOT
HETATM    1  C   UNL     1      -6.468   8.240  73.651  1.00  0.00    -0.133 C  
HETATM    2  C   UNL     1      -6.967   8.706  72.294  1.00  0.00    -0.052 C  
ENDROOT
BRANCH   2   3
HETATM    3  C   UNL     1      -6.125   8.111  71.168  1.00  0.00    -0.034 C  
BRANCH   3   4
HETATM    4  C   UNL     1      -6.975   7.842  69.929  1.00  0.00    -0.050 C  
BRANCH   4   5
HETATM    5  C   UNL     1      -7.489   9.151  69.337  1.00  0.00    -0.077 C  
BRANCH   5   6
HETATM    6  C   UNL     1      -7.556   9.064  67.818  1.00  0.00    -0.093 C  
BRANCH   6   7
HETATM    7  C   UNL     1      -8.248   7.781  67.369  1.00  0.00    -0.123 C  
BRANCH   7   8
HETATM    8  C   UNL     1      -9.077   8.050  66.119  1.00  0.00    -0.224 C  
BRANCH   8   9
HETATM    9  C   UNL     1     -10.107   9.150  66.350  1.00  0.00    -0.345 C  
BRANCH   9  10
HETATM   10  C   UNL     1      -9.941  10.318  65.377  1.00  0.00    -0.371 C  
BRANCH  10  11
HETATM   11  C   UNL     1     -10.272  11.698  65.959  1.00  0.00    -0.270 C  
BRANCH  11  12
HETATM   12  C   UNL     1     -11.437  11.663  66.956  1.00  0.00    -0.262 C  
BRANCH  12  13
HETATM   13  N   UNL     1     -11.198  12.519  68.215  1.00  0.00    -0.245 N  
HETATM   14  C   UNL     1     -11.658  11.777  69.464  1.00  0.00    -0.332 C  
HETATM   15  C   UNL     1      -9.723  12.876  68.354  1.00  0.00    -0.186 C  
BRANCH  13  16
HETATM   16  C   UNL     1     -12.031  13.834  68.038  1.00  0.00    -0.355 C  
BRANCH  16  17
HETATM   17  C   UNL     1     -11.215  15.080  67.796  1.00  0.00    -0.327 A  
HETATM   18  C   UNL     1     -11.182  16.109  68.753  1.00  0.00    -0.365 A  
HETATM   19  C   UNL     1     -10.604  17.339  68.445  1.00  0.00    -0.368 A  
HETATM   20  C   UNL     1     -10.031  17.546  67.192  1.00  0.00    -0.314 A  
HETATM   21  C   UNL     1      -9.990  16.510  66.264  1.00  0.00    -0.346 A  
HETATM   22  C   UNL     1     -10.565  15.276  66.568  1.00  0.00    -0.304 A  
ENDBRANCH  16  17
ENDBRANCH  13  16
ENDBRANCH  12  13
ENDBRANCH  11  12
ENDBRANCH  10  11
ENDBRANCH   9  10
ENDBRANCH   8   9
ENDBRANCH   7   8
ENDBRANCH   6   7
ENDBRANCH   5   6
ENDBRANCH   4   5
ENDBRANCH   3   4
ENDBRANCH   2   3
TORSDOF 13
ENDMDL
MODEL      360
REMARK 921   NORMALIZED FREE ENERGY PREDICTED BY IDOCK:   -2.47 KCAL/MOL
REMARK 922        TOTAL FREE ENERGY PREDICTED BY IDOCK:   -5.82 KCAL/MOL
REMARK 923 INTER-LIGAND FREE ENERGY PREDICTED BY IDOCK:   -5.18 KCAL/MOL
REMARK 924 INTRA-LIGAND FREE ENERGY PREDICTED BY IDOCK:   -0.64 KCAL/MOL
REMARK 927      BINDING AFFINITY PREDICTED BY RF-SCORE:    0.00 PKD
ROOT
HETATM    1  C   UNL     1      -9.641  19.463  68.547  1.00  0.00    -0.472 C  
HETATM    2  C   UNL     1     -10.470  18.913  67.398  1.00  0.00    -0.520 C  
ENDROOT
BRANCH   2   3
HETATM    3  C   UNL     1     -10.034  17.496  67.037  1.00  0.00    -0.311 C  
BRANCH   3   4
HETATM    4  C   UNL     1      -9.960  16.610  68.278  1.00  0.00    -0.261 C  
BRANCH   4   5
HETATM    5  C   UNL     1     -11.220  15.759  68.406  1.00  0.00    -0.362 C  
BRANCH   5   6
HETATM    6  C   UNL     1     -11.684  15.275  67.038  1.00  0.00    -0.020 C  
BRANCH   6   7
HETATM    7  C   UNL     1     -11.948  13.773  67.046  1.00  0.00    -0.452 C  
BRANCH   7   8
HETATM    8  C   UNL     1     -12.142  13.289  68.478  1.00  0.00    -0.256 C  
BRANCH   8   9
HETATM    9  C   UNL     1     -11.426  11.966  68.729  1.00  0.00    -0.347 C  
BRANCH   9  10
HETATM   10  C   UNL     1     -10.685  11.459  67.490  1.00  0.00    -0.266 C  
BRANCH  10  11
HETATM   11  C   UNL     1     -10.594   9.933  67.369  1.00  0.00    -0.338 C  
BRANCH  11  12
HETATM   12  C   UNL     1      -9.175   9.441  67.060  1.00  0.00    -0.142 C  
BRANCH  12  13
HETATM   13  N   UNL     1      -8.666   8.366  68.040  1.00  0.00    -0.138 N  
HETATM   14  C   UNL     1      -7.482   7.614  67.446  1.00  0.00    -0.100 C  
HETATM   15  C   UNL     1      -8.251   8.997  69.365  1.00  0.00    -0.117 C  
BRANCH  13  16
HETATM   16  C   UNL     1      -9.856   7.379  68.293  1.00  0.00    -0.160 C  
BRANCH  16  17
HETATM   17  C   UNL     1      -9.675   5.998  67.713  1.00  0.00    -0.119 A  
HETATM   18  C   UNL     1      -9.226   4.938  68.519  1.00  0.00    -0.157 A  
HETATM   19  C   UNL     1      -8.861   3.722  67.944  1.00  0.00    -0.138 A  
HETATM   20  C   UNL     1      -8.967   3.542  66.566  1.00  0.00    -0.154 A  
HETATM   21  C   UNL     1      -9.483   4.558  65.767  1.00  0.00    -0.172 A  
HETATM   22  C   UNL     1      -9.851   5.777  66.338  1.00  0.00    -0.174 A  
ENDBRANCH  16  17
ENDBRANCH  13  16
ENDBRANCH  12  13
ENDBRANCH  11  12
ENDBRANCH  10  11
ENDBRANCH   9  10
ENDBRANCH   8   9
ENDBRANCH   7   8
ENDBRANCH   6   7
ENDBRANCH   5   6
ENDBRANCH   4   5
ENDBRANCH   3   4
ENDBRANCH   2   3
TORSDOF 13
ENDMDL
MODEL      361
REMARK 921   NORMALIZED FREE ENERGY PREDICTED BY IDOCK:   -2.45 KCAL/MOL
REMARK 922        TOTAL FREE ENERGY PREDICTED BY IDOCK:   -5.79 KCAL/MOL
REMARK 923 INTER-LIGAND FREE ENERGY PREDICTED BY IDOCK:   -4.56 KCAL/MOL
REMARK 924 INTRA-LIGAND FREE ENERGY PREDICTED BY IDOCK:   -1.23 KCAL/MOL
REMARK 927      BINDING AFFINITY PREDICTED BY RF-SCORE:    0.00 PKD
ROOT
HETATM    1  C   UNL     1     -12.510  12.100  63.547  1.00  0.00    -0.666 C  
HETATM    2  C   UNL     1     -11.030  11.765  63.458  1.00  0.00    -0.499 C  
ENDROOT
BRANCH   2   3
HETATM    3  C   UNL     1     -10.375  11.810  64.836  1.00  0.00    -0.334 C  
BRANCH   3   4
HETATM    4  C   UNL     1      -9.623  10.516  65.130  1.00  0.00    -0.316 C  
BRANCH   4   5
HETATM    5  C   UNL     1      -9.151  10.487  66.581  1.00  0.00    -0.172 C  
BRANCH   5   6
HETATM    6  C   UNL     1      -8.303   9.251  66.846  1.00  0.00    -0.123 C  
BRANCH   6   7
HETATM    7  C   UNL     1      -8.776   8.515  68.096  1.00  0.00    -0.142 C  
BRANCH   7   8
HETATM    8  C   UNL     1     -10.240   8.125  67.944  1.00  0.00    -0.274 C  
BRANCH   8   9
HETATM    9  C   UNL     1     -10.662   7.094  68.986  1.00  0.00    -0.204 C  
BRANCH   9  10
HETATM   10  C   UNL     1     -11.354   7.732  70.191  1.00  0.00    -0.121 C  
BRANCH  10  11
HETATM   11  C   UNL     1     -10.505   7.794  71.467  1.00  0.00    -0.239 C  
BRANCH  11  12
HETATM   12  C   UNL     1      -9.201   6.994  71.358  1.00  0.00    -0.151 C  
BRANCH  12  13
HETATM   13  N   UNL     1      -8.824   6.247  72.653  1.00  0.00    -0.127 N  
HETATM   14  C   UNL     1      -7.615   6.896  73.314  1.00  0.00    -0.084 C  
HETATM   15  C   UNL     1      -9.992   6.240  73.631  1.00  0.00    -0.207 C  
BRANCH  13  16
HETATM   16  C   UNL     1      -8.485   4.773  72.246  1.00  0.00    -0.119 C  
BRANCH  16  17
HETATM   17  C   UNL     1      -8.327   4.537  70.764  1.00  0.00    -0.095 A  
HETATM   18  C   UNL     1      -7.230   5.072  70.069  1.00  0.00    -0.058 A  
HETATM   19  C   UNL     1      -7.192   5.035  68.676  1.00  0.00    -0.062 A  
HETATM   20  C   UNL     1      -8.232   4.439  67.966  1.00  0.00    -0.094 A  
HETATM   21  C   UNL     1      -9.287   3.838  68.647  1.00  0.00    -0.226 A  
HETATM   22  C   UNL     1      -9.328   3.871  70.041  1.00  0.00    -0.247 A  
ENDBRANCH  16  17
ENDBRANCH  13  16
ENDBRANCH  12  13
ENDBRANCH  11  12
ENDBRANCH  10  11
ENDBRANCH   9  10
ENDBRANCH   8   9
ENDBRANCH   7   8
ENDBRANCH   6   7
ENDBRANCH   5   6
ENDBRANCH   4   5
ENDBRANCH   3   4
ENDBRANCH   2   3
TORSDOF 13
ENDMDL
MODEL      362
REMARK 921   NORMALIZED FREE ENERGY PREDICTED BY IDOCK:   -2.45 KCAL/MOL
REMARK 922        TOTAL FREE ENERGY PREDICTED BY IDOCK:   -5.79 KCAL/MOL
REMARK 923 INTER-LIGAND FREE ENERGY PREDICTED BY IDOCK:   -4.65 KCAL/MOL
REMARK 924 INTRA-LIGAND FREE ENERGY PREDICTED BY IDOCK:   -1.14 KCAL/MOL
REMARK 927      BINDING AFFINITY PREDICTED BY RF-SCORE:    0.00 PKD
ROOT
HETATM    1  C   UNL     1     -11.931  13.655  63.892  1.00  0.00    -0.455 C  
HETATM    2  C   UNL     1     -11.288  13.405  65.246  1.00  0.00    -0.313 C  
ENDROOT
BRANCH   2   3
HETATM    3  C   UNL     1     -12.254  12.687  66.185  1.00  0.00    -0.279 C  
BRANCH   3   4
HETATM    4  C   UNL     1     -11.511  11.725  67.107  1.00  0.00    -0.366 C  
BRANCH   4   5
HETATM    5  C   UNL     1     -10.655  10.756  66.296  1.00  0.00    -0.257 C  
BRANCH   5   6
HETATM    6  C   UNL     1      -9.437  10.315  67.096  1.00  0.00    -0.184 C  
BRANCH   6   7
HETATM    7  C   UNL     1      -9.424   8.802  67.289  1.00  0.00    -0.200 C  
BRANCH   7   8
HETATM    8  C   UNL     1     -10.832   8.306  67.593  1.00  0.00    -0.083 C  
BRANCH   8   9
HETATM    9  C   UNL     1     -10.960   6.801  67.381  1.00  0.00    -0.407 C  
BRANCH   9  10
HETATM   10  C   UNL     1      -9.944   6.266  66.371  1.00  0.00    -0.112 C  
BRANCH  10  11
HETATM   11  C   UNL     1      -9.272   4.945  66.766  1.00  0.00    -0.122 C  
BRANCH  11  12
HETATM   12  C   UNL     1      -9.645   4.484  68.180  1.00  0.00    -0.146 C  
BRANCH  12  13
HETATM   13  N   UNL     1      -8.485   3.804  68.934  1.00  0.00    -0.076 N  
HETATM   14  C   UNL     1      -8.850   2.371  69.303  1.00  0.00    -0.094 C  
HETATM   15  C   UNL     1      -7.218   3.800  68.086  1.00  0.00    -0.055 C  
BRANCH  13  16
HETATM   16  C   UNL     1      -8.231   4.643  70.233  1.00  0.00    -0.075 C  
BRANCH  16  17
HETATM   17  C   UNL     1      -9.344   5.589  70.611  1.00  0.00    -0.195 A  
HETATM   18  C   UNL     1      -9.240   6.962  70.330  1.00  0.00    -0.156 A  
HETATM   19  C   UNL     1     -10.163   7.861  70.862  1.00  0.00    -0.213 A  
HETATM   20  C   UNL     1     -11.212   7.398  71.652  1.00  0.00    -0.276 A  
HETATM   21  C   UNL     1     -11.369   6.033  71.874  1.00  0.00    -0.335 A  
HETATM   22  C   UNL     1     -10.449   5.129  71.343  1.00  0.00    -0.249 A  
ENDBRANCH  16  17
ENDBRANCH  13  16
ENDBRANCH  12  13
ENDBRANCH  11  12
ENDBRANCH  10  11
ENDBRANCH   9  10
ENDBRANCH   8   9
ENDBRANCH   7   8
ENDBRANCH   6   7
ENDBRANCH   5   6
ENDBRANCH   4   5
ENDBRANCH   3   4
ENDBRANCH   2   3
TORSDOF 13
ENDMDL
MODEL      363
REMARK 921   NORMALIZED FREE ENERGY PREDICTED BY IDOCK:   -2.45 KCAL/MOL
REMARK 922        TOTAL FREE ENERGY PREDICTED BY IDOCK:   -5.79 KCAL/MOL
REMARK 923 INTER-LIGAND FREE ENERGY PREDICTED BY IDOCK:   -5.02 KCAL/MOL
REMARK 924 INTRA-LIGAND FREE ENERGY PREDICTED BY IDOCK:   -0.77 KCAL/MOL
REMARK 927      BINDING AFFINITY PREDICTED BY RF-SCORE:    0.00 PKD
ROOT
HETATM    1  C   UNL     1     -12.048   7.278  71.986  1.00  0.00    -0.327 C  
HETATM    2  C   UNL     1     -11.265   6.119  71.392  1.00  0.00    -0.346 C  
ENDROOT
BRANCH   2   3
HETATM    3  C   UNL     1     -10.245   6.614  70.370  1.00  0.00    -0.215 C  
BRANCH   3   4
HETATM    4  C   UNL     1      -8.938   5.834  70.476  1.00  0.00    -0.152 C  
BRANCH   4   5
HETATM    5  C   UNL     1      -7.831   6.532  69.691  1.00  0.00    -0.111 C  
BRANCH   5   6
HETATM    6  C   UNL     1      -7.261   5.605  68.625  1.00  0.00    -0.078 C  
BRANCH   6   7
HETATM    7  C   UNL     1      -8.373   4.916  67.842  1.00  0.00    -0.103 C  
BRANCH   7   8
HETATM    8  C   UNL     1      -8.144   5.099  66.347  1.00  0.00    -0.108 C  
BRANCH   8   9
HETATM    9  C   UNL     1      -7.494   6.442  66.035  1.00  0.00    -0.082 C  
BRANCH   9  10
HETATM   10  C   UNL     1      -8.214   7.193  64.914  1.00  0.00    -0.073 C  
BRANCH  10  11
HETATM   11  C   UNL     1      -8.756   8.573  65.303  1.00  0.00    -0.175 C  
BRANCH  11  12
HETATM   12  C   UNL     1      -8.363   8.992  66.725  1.00  0.00    -0.115 C  
BRANCH  12  13
HETATM   13  N   UNL     1      -9.105  10.245  67.229  1.00  0.00    -0.138 N  
HETATM   14  C   UNL     1     -10.591   9.958  67.398  1.00  0.00    -0.277 C  
HETATM   15  C   UNL     1      -8.526  10.718  68.557  1.00  0.00    -0.143 C  
BRANCH  13  16
HETATM   16  C   UNL     1      -8.894  11.363  66.151  1.00  0.00    -0.184 C  
BRANCH  16  17
HETATM   17  C   UNL     1     -10.126  12.167  65.813  1.00  0.00    -0.272 A  
HETATM   18  C   UNL     1     -10.553  13.207  66.655  1.00  0.00    -0.284 A  
HETATM   19  C   UNL     1     -11.796  13.807  66.459  1.00  0.00    -0.438 A  
HETATM   20  C   UNL     1     -12.610  13.395  65.407  1.00  0.00    -0.528 A  
HETATM   21  C   UNL     1     -12.165  12.419  64.520  1.00  0.00    -0.509 A  
HETATM   22  C   UNL     1     -10.922  11.817  64.712  1.00  0.00    -0.360 A  
ENDBRANCH  16  17
ENDBRANCH  13  16
ENDBRANCH  12  13
ENDBRANCH  11  12
ENDBRANCH  10  11
ENDBRANCH   9  10
ENDBRANCH   8   9
ENDBRANCH   7   8
ENDBRANCH   6   7
ENDBRANCH   5   6
ENDBRANCH   4   5
ENDBRANCH   3   4
ENDBRANCH   2   3
TORSDOF 13
ENDMDL
MODEL      364
REMARK 921   NORMALIZED FREE ENERGY PREDICTED BY IDOCK:   -2.44 KCAL/MOL
REMARK 922        TOTAL FREE ENERGY PREDICTED BY IDOCK:   -5.77 KCAL/MOL
REMARK 923 INTER-LIGAND FREE ENERGY PREDICTED BY IDOCK:   -5.25 KCAL/MOL
REMARK 924 INTRA-LIGAND FREE ENERGY PREDICTED BY IDOCK:   -0.52 KCAL/MOL
REMARK 927      BINDING AFFINITY PREDICTED BY RF-SCORE:    0.00 PKD
ROOT
HETATM    1  C   UNL     1     -11.823  15.633  70.813  1.00  0.00    -0.421 C  
HETATM    2  C   UNL     1     -12.200  14.320  70.149  1.00  0.00    -0.407 C  
ENDROOT
BRANCH   2   3
HETATM    3  C   UNL     1     -12.102  14.428  68.629  1.00  0.00    -0.274 C  
BRANCH   3   4
HETATM    4  C   UNL     1     -11.105  13.417  68.069  1.00  0.00    -0.281 C  
BRANCH   4   5
HETATM    5  C   UNL     1     -11.827  12.342  67.263  1.00  0.00    -0.330 C  
BRANCH   5   6
HETATM    6  C   UNL     1     -11.395  10.952  67.712  1.00  0.00    -0.366 C  
BRANCH   6   7
HETATM    7  C   UNL     1      -9.899  10.908  68.006  1.00  0.00    -0.185 C  
BRANCH   7   8
HETATM    8  C   UNL     1      -9.659  10.291  69.378  1.00  0.00    -0.237 C  
BRANCH   8   9
HETATM    9  C   UNL     1     -10.958   9.809  70.016  1.00  0.00    -0.319 C  
BRANCH   9  10
HETATM   10  C   UNL     1     -11.027   8.284  70.116  1.00  0.00    -0.222 C  
BRANCH  10  11
HETATM   11  C   UNL     1     -11.711   7.749  71.380  1.00  0.00    -0.310 C  
BRANCH  11  12
HETATM   12  C   UNL     1     -10.802   7.785  72.614  1.00  0.00    -0.354 C  
BRANCH  12  13
HETATM   13  N   UNL     1     -10.250   6.404  73.017  1.00  0.00    -0.189 N  
HETATM   14  C   UNL     1     -10.161   6.282  74.533  1.00  0.00    -0.336 C  
HETATM   15  C   UNL     1     -11.135   5.289  72.472  1.00  0.00    -0.229 C  
BRANCH  13  16
HETATM   16  C   UNL     1      -8.822   6.281  72.385  1.00  0.00    -0.131 C  
BRANCH  16  17
HETATM   17  C   UNL     1      -8.775   5.604  71.037  1.00  0.00    -0.136 A  
HETATM   18  C   UNL     1      -8.642   4.209  70.943  1.00  0.00    -0.106 A  
HETATM   19  C   UNL     1      -8.389   3.607  69.712  1.00  0.00    -0.078 A  
HETATM   20  C   UNL     1      -8.294   4.386  68.561  1.00  0.00    -0.090 A  
HETATM   21  C   UNL     1      -8.499   5.761  68.630  1.00  0.00    -0.107 A  
HETATM   22  C   UNL     1      -8.755   6.368  69.860  1.00  0.00    -0.142 A  
ENDBRANCH  16  17
ENDBRANCH  13  16
ENDBRANCH  12  13
ENDBRANCH  11  12
ENDBRANCH  10  11
ENDBRANCH   9  10
ENDBRANCH   8   9
ENDBRANCH   7   8
ENDBRANCH   6   7
ENDBRANCH   5   6
ENDBRANCH   4   5
ENDBRANCH   3   4
ENDBRANCH   2   3
TORSDOF 13
ENDMDL
MODEL      365
REMARK 921   NORMALIZED FREE ENERGY PREDICTED BY IDOCK:   -2.44 KCAL/MOL
REMARK 922        TOTAL FREE ENERGY PREDICTED BY IDOCK:   -5.76 KCAL/MOL
REMARK 923 INTER-LIGAND FREE ENERGY PREDICTED BY IDOCK:   -3.61 KCAL/MOL
REMARK 924 INTRA-LIGAND FREE ENERGY PREDICTED BY IDOCK:   -2.15 KCAL/MOL
REMARK 927      BINDING AFFINITY PREDICTED BY RF-SCORE:    0.00 PKD
ROOT
HETATM    1  C   UNL     1     -10.185   9.839  67.436  1.00  0.00    -0.284 C  
HETATM    2  C   UNL     1      -9.754   8.647  66.598  1.00  0.00    -0.315 C  
ENDROOT
BRANCH   2   3
HETATM    3  C   UNL     1      -8.291   8.774  66.179  1.00  0.00    -0.126 C  
BRANCH   3   4
HETATM    4  C   UNL     1      -7.822   7.528  65.434  1.00  0.00    -0.117 C  
BRANCH   4   5
HETATM    5  C   UNL     1      -6.669   6.860  66.177  1.00  0.00    -0.052 C  
BRANCH   5   6
HETATM    6  C   UNL     1      -7.089   5.496  66.710  1.00  0.00    -0.070 C  
BRANCH   6   7
HETATM    7  C   UNL     1      -8.384   5.026  66.057  1.00  0.00    -0.114 C  
BRANCH   7   8
HETATM    8  C   UNL     1      -9.348   4.521  67.123  1.00  0.00    -0.163 C  
BRANCH   8   9
HETATM    9  C   UNL     1      -9.583   5.563  68.212  1.00  0.00    -0.148 C  
BRANCH   9  10
HETATM   10  C   UNL     1     -10.991   5.482  68.803  1.00  0.00     0.028 C  
BRANCH  10  11
HETATM   11  C   UNL     1     -11.211   6.320  70.068  1.00  0.00    -0.480 C  
BRANCH  11  12
HETATM   12  C   UNL     1      -9.921   6.554  70.864  1.00  0.00    -0.184 C  
BRANCH  12  13
HETATM   13  N   UNL     1     -10.094   6.387  72.386  1.00  0.00    -0.176 N  
HETATM   14  C   UNL     1      -9.910   7.722  73.097  1.00  0.00    -0.298 C  
HETATM   15  C   UNL     1     -11.472   5.825  72.714  1.00  0.00    -0.255 C  
BRANCH  13  16
HETATM   16  C   UNL     1      -8.999   5.372  72.861  1.00  0.00    -0.120 C  
BRANCH  16  17
HETATM   17  C   UNL     1      -8.701   4.252  71.894  1.00  0.00    -0.128 A  
HETATM   18  C   UNL     1      -7.639   4.362  70.981  1.00  0.00    -0.063 A  
HETATM   19  C   UNL     1      -7.494   3.429  69.955  1.00  0.00    -0.044 A  
HETATM   20  C   UNL     1      -8.387   2.366  69.847  1.00  0.00    -0.077 A  
HETATM   21  C   UNL     1      -9.397   2.205  70.791  1.00  0.00    -0.201 A  
HETATM   22  C   UNL     1      -9.546   3.134  71.821  1.00  0.00    -0.227 A  
ENDBRANCH  16  17
ENDBRANCH  13  16
ENDBRANCH  12  13
ENDBRANCH  11  12
ENDBRANCH  10  11
ENDBRANCH   9  10
ENDBRANCH   8   9
ENDBRANCH   7   8
ENDBRANCH   6   7
ENDBRANCH   5   6
ENDBRANCH   4   5
ENDBRANCH   3   4
ENDBRANCH   2   3
TORSDOF 13
ENDMDL
MODEL      366
REMARK 921   NORMALIZED FREE ENERGY PREDICTED BY IDOCK:   -2.43 KCAL/MOL
REMARK 922        TOTAL FREE ENERGY PREDICTED BY IDOCK:   -5.76 KCAL/MOL
REMARK 923 INTER-LIGAND FREE ENERGY PREDICTED BY IDOCK:   -3.98 KCAL/MOL
REMARK 924 INTRA-LIGAND FREE ENERGY PREDICTED BY IDOCK:   -1.78 KCAL/MOL
REMARK 927      BINDING AFFINITY PREDICTED BY RF-SCORE:    0.00 PKD
ROOT
HETATM    1  C   UNL     1     -12.437   6.960  70.655  1.00  0.00    -0.179 C  
HETATM    2  C   UNL     1     -11.664   6.572  71.904  1.00  0.00    -0.371 C  
ENDROOT
BRANCH   2   3
HETATM    3  C   UNL     1     -11.324   7.802  72.742  1.00  0.00    -0.446 C  
BRANCH   3   4
HETATM    4  C   UNL     1     -10.009   7.611  73.491  1.00  0.00    -0.354 C  
BRANCH   4   5
HETATM    5  C   UNL     1     -10.053   6.342  74.337  1.00  0.00    -0.355 C  
BRANCH   5   6
HETATM    6  C   UNL     1      -8.816   5.488  74.092  1.00  0.00    -0.119 C  
BRANCH   6   7
HETATM    7  C   UNL     1      -7.915   6.116  73.033  1.00  0.00    -0.108 C  
BRANCH   7   8
HETATM    8  C   UNL     1      -7.427   5.044  72.067  1.00  0.00    -0.091 C  
BRANCH   8   9
HETATM    9  C   UNL     1      -7.915   5.301  70.644  1.00  0.00    -0.103 C  
BRANCH   9  10
HETATM   10  C   UNL     1      -9.097   4.410  70.263  1.00  0.00    -0.162 C  
BRANCH  10  11
HETATM   11  C   UNL     1      -9.894   4.880  69.040  1.00  0.00    -0.250 C  
BRANCH  11  12
HETATM   12  C   UNL     1      -9.031   5.623  68.013  1.00  0.00    -0.108 C  
BRANCH  12  13
HETATM   13  N   UNL     1      -9.710   6.877  67.427  1.00  0.00    -0.133 N  
HETATM   14  C   UNL     1      -8.949   7.380  66.206  1.00  0.00    -0.162 C  
HETATM   15  C   UNL     1     -11.152   6.578  67.036  1.00  0.00    -0.339 C  
BRANCH  13  16
HETATM   16  C   UNL     1      -9.698   7.969  68.551  1.00  0.00    -0.159 C  
BRANCH  16  17
HETATM   17  C   UNL     1      -8.554   8.950  68.479  1.00  0.00    -0.133 A  
HETATM   18  C   UNL     1      -7.310   8.640  69.054  1.00  0.00    -0.077 A  
HETATM   19  C   UNL     1      -6.325   9.619  69.173  1.00  0.00    -0.041 A  
HETATM   20  C   UNL     1      -6.561  10.906  68.695  1.00  0.00    -0.057 A  
HETATM   21  C   UNL     1      -7.760  11.204  68.054  1.00  0.00    -0.107 A  
HETATM   22  C   UNL     1      -8.748  10.227  67.932  1.00  0.00    -0.122 A  
ENDBRANCH  16  17
ENDBRANCH  13  16
ENDBRANCH  12  13
ENDBRANCH  11  12
ENDBRANCH  10  11
ENDBRANCH   9  10
ENDBRANCH   8   9
ENDBRANCH   7   8
ENDBRANCH   6   7
ENDBRANCH   5   6
ENDBRANCH   4   5
ENDBRANCH   3   4
ENDBRANCH   2   3
TORSDOF 13
ENDMDL
MODEL      367
REMARK 921   NORMALIZED FREE ENERGY PREDICTED BY IDOCK:   -2.43 KCAL/MOL
REMARK 922        TOTAL FREE ENERGY PREDICTED BY IDOCK:   -5.75 KCAL/MOL
REMARK 923 INTER-LIGAND FREE ENERGY PREDICTED BY IDOCK:   -3.88 KCAL/MOL
REMARK 924 INTRA-LIGAND FREE ENERGY PREDICTED BY IDOCK:   -1.88 KCAL/MOL
REMARK 927      BINDING AFFINITY PREDICTED BY RF-SCORE:    0.00 PKD
ROOT
HETATM    1  C   UNL     1     -11.780   6.713  70.263  1.00  0.00    -0.432 C  
HETATM    2  C   UNL     1     -11.219   5.804  71.344  1.00  0.00    -0.234 C  
ENDROOT
BRANCH   2   3
HETATM    3  C   UNL     1     -11.313   6.464  72.718  1.00  0.00    -0.226 C  
BRANCH   3   4
HETATM    4  C   UNL     1     -10.305   5.858  73.689  1.00  0.00    -0.257 C  
BRANCH   4   5
HETATM    5  C   UNL     1     -10.649   4.400  73.980  1.00  0.00    -0.332 C  
BRANCH   5   6
HETATM    6  C   UNL     1      -9.421   3.514  73.819  1.00  0.00    -0.119 C  
BRANCH   6   7
HETATM    7  C   UNL     1      -8.322   4.233  73.043  1.00  0.00    -0.091 C  
BRANCH   7   8
HETATM    8  C   UNL     1      -7.615   3.252  72.116  1.00  0.00    -0.057 C  
BRANCH   8   9
HETATM    9  C   UNL     1      -8.007   3.470  70.658  1.00  0.00    -0.056 C  
BRANCH   9  10
HETATM   10  C   UNL     1      -9.112   2.516  70.203  1.00  0.00    -0.184 C  
BRANCH  10  11
HETATM   11  C   UNL     1      -9.433   2.566  68.704  1.00  0.00    -0.196 C  
BRANCH  11  12
HETATM   12  C   UNL     1      -8.300   3.174  67.869  1.00  0.00    -0.080 C  
BRANCH  12  13
HETATM   13  N   UNL     1      -8.793   4.066  66.713  1.00  0.00    -0.117 N  
HETATM   14  C   UNL     1      -7.664   4.947  66.194  1.00  0.00    -0.091 C  
HETATM   15  C   UNL     1      -9.337   3.217  65.570  1.00  0.00    -0.117 C  
BRANCH  13  16
HETATM   16  C   UNL     1      -9.948   4.957  67.285  1.00  0.00    -0.184 C  
BRANCH  16  17
HETATM   17  C   UNL     1      -9.551   6.368  67.641  1.00  0.00    -0.126 A  
HETATM   18  C   UNL     1      -8.656   6.614  68.696  1.00  0.00    -0.125 A  
HETATM   19  C   UNL     1      -8.452   7.913  69.159  1.00  0.00    -0.137 A  
HETATM   20  C   UNL     1      -9.116   8.980  68.558  1.00  0.00    -0.133 A  
HETATM   21  C   UNL     1      -9.946   8.757  67.463  1.00  0.00    -0.254 A  
HETATM   22  C   UNL     1     -10.152   7.459  66.994  1.00  0.00    -0.328 A  
ENDBRANCH  16  17
ENDBRANCH  13  16
ENDBRANCH  12  13
ENDBRANCH  11  12
ENDBRANCH  10  11
ENDBRANCH   9  10
ENDBRANCH   8   9
ENDBRANCH   7   8
ENDBRANCH   6   7
ENDBRANCH   5   6
ENDBRANCH   4   5
ENDBRANCH   3   4
ENDBRANCH   2   3
TORSDOF 13
ENDMDL
MODEL      368
REMARK 921   NORMALIZED FREE ENERGY PREDICTED BY IDOCK:   -2.42 KCAL/MOL
REMARK 922        TOTAL FREE ENERGY PREDICTED BY IDOCK:   -5.74 KCAL/MOL
REMARK 923 INTER-LIGAND FREE ENERGY PREDICTED BY IDOCK:   -3.51 KCAL/MOL
REMARK 924 INTRA-LIGAND FREE ENERGY PREDICTED BY IDOCK:   -2.23 KCAL/MOL
REMARK 927      BINDING AFFINITY PREDICTED BY RF-SCORE:    0.00 PKD
ROOT
HETATM    1  C   UNL     1      -8.895  10.443  69.121  1.00  0.00    -0.180 C  
HETATM    2  C   UNL     1     -10.040   9.526  68.726  1.00  0.00    -0.202 C  
ENDROOT
BRANCH   2   3
HETATM    3  C   UNL     1      -9.995   8.221  69.517  1.00  0.00    -0.187 C  
BRANCH   3   4
HETATM    4  C   UNL     1     -10.978   7.201  68.952  1.00  0.00    -0.109 C  
BRANCH   4   5
HETATM    5  C   UNL     1     -11.464   6.259  70.051  1.00  0.00    -0.460 C  
BRANCH   5   6
HETATM    6  C   UNL     1     -10.693   6.495  71.342  1.00  0.00    -0.280 C  
BRANCH   6   7
HETATM    7  C   UNL     1     -10.049   5.206  71.842  1.00  0.00    -0.255 C  
BRANCH   7   8
HETATM    8  C   UNL     1      -8.590   5.153  71.409  1.00  0.00    -0.132 C  
BRANCH   8   9
HETATM    9  C   UNL     1      -8.243   3.822  70.749  1.00  0.00    -0.079 C  
BRANCH   9  10
HETATM   10  C   UNL     1      -9.464   3.146  70.123  1.00  0.00    -0.218 C  
BRANCH  10  11
HETATM   11  C   UNL     1      -9.474   3.119  68.590  1.00  0.00    -0.195 C  
BRANCH  11  12
HETATM   12  C   UNL     1      -8.083   3.323  67.979  1.00  0.00    -0.078 C  
BRANCH  12  13
HETATM   13  N   UNL     1      -8.029   4.445  66.923  1.00  0.00    -0.101 N  
HETATM   14  C   UNL     1      -6.725   4.382  66.137  1.00  0.00    -0.050 C  
HETATM   15  C   UNL     1      -9.205   4.336  65.960  1.00  0.00    -0.145 C  
BRANCH  13  16
HETATM   16  C   UNL     1      -8.124   5.804  67.697  1.00  0.00    -0.102 C  
BRANCH  16  17
HETATM   17  C   UNL     1      -7.867   7.035  66.862  1.00  0.00    -0.107 A  
HETATM   18  C   UNL     1      -6.699   7.793  67.049  1.00  0.00    -0.068 A  
HETATM   19  C   UNL     1      -6.559   9.035  66.433  1.00  0.00    -0.067 A  
HETATM   20  C   UNL     1      -7.569   9.520  65.604  1.00  0.00    -0.101 A  
HETATM   21  C   UNL     1      -8.697   8.744  65.350  1.00  0.00    -0.217 A  
HETATM   22  C   UNL     1      -8.840   7.499  65.964  1.00  0.00    -0.179 A  
ENDBRANCH  16  17
ENDBRANCH  13  16
ENDBRANCH  12  13
ENDBRANCH  11  12
ENDBRANCH  10  11
ENDBRANCH   9  10
ENDBRANCH   8   9
ENDBRANCH   7   8
ENDBRANCH   6   7
ENDBRANCH   5   6
ENDBRANCH   4   5
ENDBRANCH   3   4
ENDBRANCH   2   3
TORSDOF 13
ENDMDL
MODEL      369
REMARK 921   NORMALIZED FREE ENERGY PREDICTED BY IDOCK:   -2.41 KCAL/MOL
REMARK 922        TOTAL FREE ENERGY PREDICTED BY IDOCK:   -5.71 KCAL/MOL
REMARK 923 INTER-LIGAND FREE ENERGY PREDICTED BY IDOCK:   -4.84 KCAL/MOL
REMARK 924 INTRA-LIGAND FREE ENERGY PREDICTED BY IDOCK:   -0.87 KCAL/MOL
REMARK 927      BINDING AFFINITY PREDICTED BY RF-SCORE:    0.00 PKD
ROOT
HETATM    1  C   UNL     1      -9.958  13.117  66.199  1.00  0.00    -0.291 C  
HETATM    2  C   UNL     1      -9.471  11.689  66.380  1.00  0.00    -0.232 C  
ENDROOT
BRANCH   2   3
HETATM    3  C   UNL     1      -8.875  11.486  67.770  1.00  0.00    -0.153 C  
BRANCH   3   4
HETATM    4  C   UNL     1      -7.374  11.760  67.772  1.00  0.00    -0.106 C  
BRANCH   4   5
HETATM    5  C   UNL     1      -6.920  12.254  69.142  1.00  0.00    -0.041 C  
BRANCH   5   6
HETATM    6  C   UNL     1      -5.647  11.541  69.576  1.00  0.00    -0.060 C  
BRANCH   6   7
HETATM    7  C   UNL     1      -5.507  10.190  68.881  1.00  0.00    -0.034 C  
BRANCH   7   8
HETATM    8  C   UNL     1      -5.624   9.067  69.904  1.00  0.00    -0.028 C  
BRANCH   8   9
HETATM    9  C   UNL     1      -6.671   8.037  69.494  1.00  0.00    -0.038 C  
BRANCH   9  10
HETATM   10  C   UNL     1      -8.100   8.537  69.715  1.00  0.00    -0.116 C  
BRANCH  10  11
HETATM   11  C   UNL     1      -8.450   8.875  71.169  1.00  0.00    -0.250 C  
BRANCH  11  12
HETATM   12  C   UNL     1      -8.348   7.664  72.106  1.00  0.00    -0.110 C  
BRANCH  12  13
HETATM   13  N   UNL     1      -9.696   6.959  72.353  1.00  0.00    -0.154 N  
HETATM   14  C   UNL     1      -9.486   5.473  72.613  1.00  0.00    -0.147 C  
HETATM   15  C   UNL     1     -10.421   7.582  73.541  1.00  0.00    -0.306 C  
BRANCH  13  16
HETATM   16  C   UNL     1     -10.560   7.160  71.062  1.00  0.00    -0.221 C  
BRANCH  16  17
HETATM   17  C   UNL     1     -11.934   7.740  71.294  1.00  0.00    -0.324 A  
HETATM   18  C   UNL     1     -12.113   9.130  71.400  1.00  0.00    -0.409 A  
HETATM   19  C   UNL     1     -13.335   9.653  71.820  1.00  0.00    -0.505 A  
HETATM   20  C   UNL     1     -14.396   8.798  72.112  1.00  0.00    -0.481 A  
HETATM   21  C   UNL     1     -14.253   7.424  71.937  1.00  0.00    -0.474 A  
HETATM   22  C   UNL     1     -13.033   6.897  71.515  1.00  0.00    -0.362 A  
ENDBRANCH  16  17
ENDBRANCH  13  16
ENDBRANCH  12  13
ENDBRANCH  11  12
ENDBRANCH  10  11
ENDBRANCH   9  10
ENDBRANCH   8   9
ENDBRANCH   7   8
ENDBRANCH   6   7
ENDBRANCH   5   6
ENDBRANCH   4   5
ENDBRANCH   3   4
ENDBRANCH   2   3
TORSDOF 13
ENDMDL
MODEL      370
REMARK 921   NORMALIZED FREE ENERGY PREDICTED BY IDOCK:   -2.41 KCAL/MOL
REMARK 922        TOTAL FREE ENERGY PREDICTED BY IDOCK:   -5.71 KCAL/MOL
REMARK 923 INTER-LIGAND FREE ENERGY PREDICTED BY IDOCK:   -4.92 KCAL/MOL
REMARK 924 INTRA-LIGAND FREE ENERGY PREDICTED BY IDOCK:   -0.79 KCAL/MOL
REMARK 927      BINDING AFFINITY PREDICTED BY RF-SCORE:    0.00 PKD
ROOT
HETATM    1  C   UNL     1     -10.854   6.082  69.414  1.00  0.00    -0.433 C  
HETATM    2  C   UNL     1     -10.976   6.400  67.933  1.00  0.00    -0.416 C  
ENDROOT
BRANCH   2   3
HETATM    3  C   UNL     1      -9.872   5.714  67.133  1.00  0.00    -0.167 C  
BRANCH   3   4
HETATM    4  C   UNL     1      -9.108   4.714  67.995  1.00  0.00    -0.144 C  
BRANCH   4   5
HETATM    5  C   UNL     1      -7.608   4.815  67.734  1.00  0.00    -0.082 C  
BRANCH   5   6
HETATM    6  C   UNL     1      -6.824   4.643  69.028  1.00  0.00    -0.050 C  
BRANCH   6   7
HETATM    7  C   UNL     1      -6.401   5.992  69.599  1.00  0.00    -0.037 C  
BRANCH   7   8
HETATM    8  C   UNL     1      -7.245   6.324  70.823  1.00  0.00    -0.074 C  
BRANCH   8   9
HETATM    9  C   UNL     1      -7.392   7.830  71.017  1.00  0.00    -0.072 C  
BRANCH   9  10
HETATM   10  C   UNL     1      -7.664   8.563  69.703  1.00  0.00    -0.093 C  
BRANCH  10  11
HETATM   11  C   UNL     1      -8.364   9.920  69.851  1.00  0.00    -0.200 C  
BRANCH  11  12
HETATM   12  C   UNL     1      -9.893   9.812  69.812  1.00  0.00    -0.234 C  
BRANCH  12  13
HETATM   13  N   UNL     1     -10.566  10.880  68.927  1.00  0.00    -0.198 N  
HETATM   14  C   UNL     1      -9.626  12.057  68.697  1.00  0.00    -0.080 C  
HETATM   15  C   UNL     1     -10.975  10.289  67.583  1.00  0.00    -0.294 C  
BRANCH  13  16
HETATM   16  C   UNL     1     -11.849  11.360  69.688  1.00  0.00    -0.362 C  
BRANCH  16  17
HETATM   17  C   UNL     1     -11.945  12.851  69.903  1.00  0.00    -0.377 A  
HETATM   18  C   UNL     1     -12.181  13.373  71.186  1.00  0.00    -0.243 A  
HETATM   19  C   UNL     1     -12.477  14.725  71.352  1.00  0.00    -0.401 A  
HETATM   20  C   UNL     1     -12.513  15.572  70.247  1.00  0.00    -0.403 A  
HETATM   21  C   UNL     1     -12.206  15.081  68.981  1.00  0.00    -0.160 A  
HETATM   22  C   UNL     1     -11.907  13.730  68.810  1.00  0.00    -0.398 A  
ENDBRANCH  16  17
ENDBRANCH  13  16
ENDBRANCH  12  13
ENDBRANCH  11  12
ENDBRANCH  10  11
ENDBRANCH   9  10
ENDBRANCH   8   9
ENDBRANCH   7   8
ENDBRANCH   6   7
ENDBRANCH   5   6
ENDBRANCH   4   5
ENDBRANCH   3   4
ENDBRANCH   2   3
TORSDOF 13
ENDMDL
MODEL      371
REMARK 921   NORMALIZED FREE ENERGY PREDICTED BY IDOCK:   -2.40 KCAL/MOL
REMARK 922        TOTAL FREE ENERGY PREDICTED BY IDOCK:   -5.69 KCAL/MOL
REMARK 923 INTER-LIGAND FREE ENERGY PREDICTED BY IDOCK:   -5.36 KCAL/MOL
REMARK 924 INTRA-LIGAND FREE ENERGY PREDICTED BY IDOCK:   -0.33 KCAL/MOL
REMARK 927      BINDING AFFINITY PREDICTED BY RF-SCORE:    0.00 PKD
ROOT
HETATM    1  C   UNL     1     -10.724   8.657  71.925  1.00  0.00    -0.414 C  
HETATM    2  C   UNL     1     -10.330   8.327  70.494  1.00  0.00    -0.217 C  
ENDROOT
BRANCH   2   3
HETATM    3  C   UNL     1      -9.454   9.427  69.900  1.00  0.00    -0.235 C  
BRANCH   3   4
HETATM    4  C   UNL     1      -7.994   9.244  70.302  1.00  0.00    -0.155 C  
BRANCH   4   5
HETATM    5  C   UNL     1      -7.173  10.472  69.917  1.00  0.00    -0.136 C  
BRANCH   5   6
HETATM    6  C   UNL     1      -6.500  10.268  68.567  1.00  0.00    -0.052 C  
BRANCH   6   7
HETATM    7  C   UNL     1      -7.514  10.330  67.430  1.00  0.00    -0.094 C  
BRANCH   7   8
HETATM    8  C   UNL     1      -7.437  11.686  66.740  1.00  0.00    -0.091 C  
BRANCH   8   9
HETATM    9  C   UNL     1      -6.570  12.669  67.521  1.00  0.00    -0.156 C  
BRANCH   9  10
HETATM   10  C   UNL     1      -7.118  14.096  67.473  1.00  0.00    -0.184 C  
BRANCH  10  11
HETATM   11  C   UNL     1      -7.159  14.819  68.824  1.00  0.00    -0.114 C  
BRANCH  11  12
HETATM   12  C   UNL     1      -6.092  15.913  68.950  1.00  0.00    -0.118 C  
BRANCH  12  13
HETATM   13  N   UNL     1      -6.577  17.305  68.498  1.00  0.00    -0.167 N  
HETATM   14  C   UNL     1      -5.923  18.399  69.333  1.00  0.00    -0.249 C  
HETATM   15  C   UNL     1      -6.259  17.535  67.026  1.00  0.00    -0.162 C  
BRANCH  13  16
HETATM   16  C   UNL     1      -8.130  17.334  68.699  1.00  0.00    -0.261 C  
BRANCH  16  17
HETATM   17  C   UNL     1      -8.883  18.227  67.743  1.00  0.00    -0.270 A  
HETATM   18  C   UNL     1      -8.913  19.617  67.938  1.00  0.00    -0.385 A  
HETATM   19  C   UNL     1      -9.772  20.416  67.186  1.00  0.00    -0.601 A  
HETATM   20  C   UNL     1     -10.586  19.840  66.213  1.00  0.00    -0.572 A  
HETATM   21  C   UNL     1     -10.509  18.474  65.958  1.00  0.00    -0.433 A  
HETATM   22  C   UNL     1      -9.650  17.671  66.707  1.00  0.00    -0.297 A  
ENDBRANCH  16  17
ENDBRANCH  13  16
ENDBRANCH  12  13
ENDBRANCH  11  12
ENDBRANCH  10  11
ENDBRANCH   9  10
ENDBRANCH   8   9
ENDBRANCH   7   8
ENDBRANCH   6   7
ENDBRANCH   5   6
ENDBRANCH   4   5
ENDBRANCH   3   4
ENDBRANCH   2   3
TORSDOF 13
ENDMDL
MODEL      372
REMARK 921   NORMALIZED FREE ENERGY PREDICTED BY IDOCK:   -2.39 KCAL/MOL
REMARK 922        TOTAL FREE ENERGY PREDICTED BY IDOCK:   -5.69 KCAL/MOL
REMARK 923 INTER-LIGAND FREE ENERGY PREDICTED BY IDOCK:   -4.84 KCAL/MOL
REMARK 924 INTRA-LIGAND FREE ENERGY PREDICTED BY IDOCK:   -0.84 KCAL/MOL
REMARK 927      BINDING AFFINITY PREDICTED BY RF-SCORE:    0.00 PKD
ROOT
HETATM    1  C   UNL     1      -6.793   8.935  71.293  1.00  0.00    -0.090 C  
HETATM    2  C   UNL     1      -6.864   7.426  71.457  1.00  0.00    -0.054 C  
ENDROOT
BRANCH   2   3
HETATM    3  C   UNL     1      -7.557   7.050  72.764  1.00  0.00    -0.086 C  
BRANCH   3   4
HETATM    4  C   UNL     1      -9.062   7.285  72.676  1.00  0.00    -0.169 C  
BRANCH   4   5
HETATM    5  C   UNL     1      -9.636   6.629  71.424  1.00  0.00    -0.174 C  
BRANCH   5   6
HETATM    6  C   UNL     1      -9.566   5.111  71.531  1.00  0.00    -0.208 C  
BRANCH   6   7
HETATM    7  C   UNL     1      -9.486   4.464  70.152  1.00  0.00    -0.245 C  
BRANCH   7   8
HETATM    8  C   UNL     1      -9.222   5.529  69.095  1.00  0.00    -0.142 C  
BRANCH   8   9
HETATM    9  C   UNL     1      -9.962   5.232  67.795  1.00  0.00    -0.204 C  
BRANCH   9  10
HETATM   10  C   UNL     1     -11.122   6.199  67.551  1.00  0.00    -0.318 C  
BRANCH  10  11
HETATM   11  C   UNL     1     -10.959   7.581  68.193  1.00  0.00     0.031 C  
BRANCH  11  12
HETATM   12  C   UNL     1     -10.081   8.527  67.364  1.00  0.00    -0.234 C  
BRANCH  12  13
HETATM   13  N   UNL     1     -10.001   9.956  67.935  1.00  0.00    -0.154 N  
HETATM   14  C   UNL     1      -9.305   9.955  69.291  1.00  0.00    -0.206 C  
HETATM   15  C   UNL     1      -9.248  10.877  66.981  1.00  0.00    -0.152 C  
BRANCH  13  16
HETATM   16  C   UNL     1     -11.473  10.469  68.089  1.00  0.00    -0.179 C  
BRANCH  16  17
HETATM   17  C   UNL     1     -11.611  11.852  68.677  1.00  0.00    -0.366 A  
HETATM   18  C   UNL     1     -11.952  12.022  70.029  1.00  0.00    -0.400 A  
HETATM   19  C   UNL     1     -12.283  13.284  70.519  1.00  0.00    -0.416 A  
HETATM   20  C   UNL     1     -12.250  14.391  69.674  1.00  0.00    -0.353 A  
HETATM   21  C   UNL     1     -11.839  14.247  68.352  1.00  0.00    -0.373 A  
HETATM   22  C   UNL     1     -11.506  12.986  67.857  1.00  0.00    -0.352 A  
ENDBRANCH  16  17
ENDBRANCH  13  16
ENDBRANCH  12  13
ENDBRANCH  11  12
ENDBRANCH  10  11
ENDBRANCH   9  10
ENDBRANCH   8   9
ENDBRANCH   7   8
ENDBRANCH   6   7
ENDBRANCH   5   6
ENDBRANCH   4   5
ENDBRANCH   3   4
ENDBRANCH   2   3
TORSDOF 13
ENDMDL
MODEL      373
REMARK 921   NORMALIZED FREE ENERGY PREDICTED BY IDOCK:   -2.39 KCAL/MOL
REMARK 922        TOTAL FREE ENERGY PREDICTED BY IDOCK:   -5.68 KCAL/MOL
REMARK 923 INTER-LIGAND FREE ENERGY PREDICTED BY IDOCK:   -4.45 KCAL/MOL
REMARK 924 INTRA-LIGAND FREE ENERGY PREDICTED BY IDOCK:   -1.24 KCAL/MOL
REMARK 927      BINDING AFFINITY PREDICTED BY RF-SCORE:    0.00 PKD
ROOT
HETATM    1  C   UNL     1      -7.320   4.665  73.836  1.00  0.00    -0.078 C  
HETATM    2  C   UNL     1      -6.566   5.885  74.338  1.00  0.00    -0.076 C  
ENDROOT
BRANCH   2   3
HETATM    3  C   UNL     1      -7.472   7.113  74.370  1.00  0.00    -0.130 C  
BRANCH   3   4
HETATM    4  C   UNL     1      -8.786   6.847  73.642  1.00  0.00    -0.168 C  
BRANCH   4   5
HETATM    5  C   UNL     1      -9.190   8.055  72.803  1.00  0.00    -0.318 C  
BRANCH   5   6
HETATM    6  C   UNL     1      -9.256   7.687  71.327  1.00  0.00    -0.155 C  
BRANCH   6   7
HETATM    7  C   UNL     1      -7.979   6.984  70.877  1.00  0.00    -0.097 C  
BRANCH   7   8
HETATM    8  C   UNL     1      -7.755   7.219  69.389  1.00  0.00    -0.107 C  
BRANCH   8   9
HETATM    9  C   UNL     1      -8.251   8.594  68.953  1.00  0.00    -0.123 C  
BRANCH   9  10
HETATM   10  C   UNL     1      -7.108   9.587  68.744  1.00  0.00    -0.068 C  
BRANCH  10  11
HETATM   11  C   UNL     1      -7.547  11.025  68.442  1.00  0.00    -0.108 C  
BRANCH  11  12
HETATM   12  C   UNL     1      -9.011  11.294  68.812  1.00  0.00    -0.111 C  
BRANCH  12  13
HETATM   13  N   UNL     1      -9.902  11.631  67.600  1.00  0.00    -0.183 N  
HETATM   14  C   UNL     1      -9.990  13.139  67.400  1.00  0.00    -0.229 C  
HETATM   15  C   UNL     1      -9.357  10.984  66.333  1.00  0.00    -0.183 C  
BRANCH  13  16
HETATM   16  C   UNL     1     -11.324  11.048  67.905  1.00  0.00    -0.311 C  
BRANCH  16  17
HETATM   17  C   UNL     1     -11.724  11.062  69.359  1.00  0.00    -0.394 A  
HETATM   18  C   UNL     1     -12.035   9.865  70.026  1.00  0.00    -0.076 A  
HETATM   19  C   UNL     1     -12.603   9.895  71.299  1.00  0.00    -0.480 A  
HETATM   20  C   UNL     1     -12.839  11.114  71.929  1.00  0.00    -0.400 A  
HETATM   21  C   UNL     1     -12.464  12.304  71.310  1.00  0.00    -0.281 A  
HETATM   22  C   UNL     1     -11.894  12.279  70.037  1.00  0.00    -0.372 A  
ENDBRANCH  16  17
ENDBRANCH  13  16
ENDBRANCH  12  13
ENDBRANCH  11  12
ENDBRANCH  10  11
ENDBRANCH   9  10
ENDBRANCH   8   9
ENDBRANCH   7   8
ENDBRANCH   6   7
ENDBRANCH   5   6
ENDBRANCH   4   5
ENDBRANCH   3   4
ENDBRANCH   2   3
TORSDOF 13
ENDMDL
MODEL      374
REMARK 921   NORMALIZED FREE ENERGY PREDICTED BY IDOCK:   -2.39 KCAL/MOL
REMARK 922        TOTAL FREE ENERGY PREDICTED BY IDOCK:   -5.68 KCAL/MOL
REMARK 923 INTER-LIGAND FREE ENERGY PREDICTED BY IDOCK:   -4.65 KCAL/MOL
REMARK 924 INTRA-LIGAND FREE ENERGY PREDICTED BY IDOCK:   -1.03 KCAL/MOL
REMARK 927      BINDING AFFINITY PREDICTED BY RF-SCORE:    0.00 PKD
ROOT
HETATM    1  C   UNL     1      -8.104  15.243  67.114  1.00  0.00    -0.248 C  
HETATM    2  C   UNL     1      -8.633  16.204  66.063  1.00  0.00    -0.231 C  
ENDROOT
BRANCH   2   3
HETATM    3  C   UNL     1     -10.147  16.365  66.182  1.00  0.00    -0.364 C  
BRANCH   3   4
HETATM    4  C   UNL     1     -10.846  15.963  64.888  1.00  0.00    -0.420 C  
BRANCH   4   5
HETATM    5  C   UNL     1     -10.692  14.465  64.638  1.00  0.00    -0.357 C  
BRANCH   5   6
HETATM    6  C   UNL     1     -12.041  13.763  64.724  1.00  0.00    -0.438 C  
BRANCH   6   7
HETATM    7  C   UNL     1     -12.390  13.418  66.168  1.00  0.00    -0.440 C  
BRANCH   7   8
HETATM    8  C   UNL     1     -11.183  12.796  66.858  1.00  0.00    -0.339 C  
BRANCH   8   9
HETATM    9  C   UNL     1     -11.557  11.522  67.610  1.00  0.00    -0.320 C  
BRANCH   9  10
HETATM   10  C   UNL     1     -10.339  10.650  67.920  1.00  0.00    -0.231 C  
BRANCH  10  11
HETATM   11  C   UNL     1     -10.298   9.307  67.181  1.00  0.00    -0.330 C  
BRANCH  11  12
HETATM   12  C   UNL     1      -9.138   8.411  67.631  1.00  0.00    -0.135 C  
BRANCH  12  13
HETATM   13  N   UNL     1      -8.074   8.182  66.539  1.00  0.00    -0.103 N  
HETATM   14  C   UNL     1      -7.734   6.701  66.422  1.00  0.00    -0.102 C  
HETATM   15  C   UNL     1      -8.565   8.696  65.191  1.00  0.00    -0.173 C  
BRANCH  13  16
HETATM   16  C   UNL     1      -6.802   8.991  66.965  1.00  0.00    -0.077 C  
BRANCH  16  17
HETATM   17  C   UNL     1      -6.538   9.034  68.450  1.00  0.00    -0.059 A  
HETATM   18  C   UNL     1      -6.979  10.121  69.222  1.00  0.00    -0.068 A  
HETATM   19  C   UNL     1      -6.558  10.264  70.543  1.00  0.00    -0.094 A  
HETATM   20  C   UNL     1      -5.718   9.311  71.114  1.00  0.00    -0.060 A  
HETATM   21  C   UNL     1      -5.336   8.190  70.383  1.00  0.00    -0.022 A  
HETATM   22  C   UNL     1      -5.756   8.042  69.061  1.00  0.00    -0.034 A  
ENDBRANCH  16  17
ENDBRANCH  13  16
ENDBRANCH  12  13
ENDBRANCH  11  12
ENDBRANCH  10  11
ENDBRANCH   9  10
ENDBRANCH   8   9
ENDBRANCH   7   8
ENDBRANCH   6   7
ENDBRANCH   5   6
ENDBRANCH   4   5
ENDBRANCH   3   4
ENDBRANCH   2   3
TORSDOF 13
ENDMDL
MODEL      375
REMARK 921   NORMALIZED FREE ENERGY PREDICTED BY IDOCK:   -2.35 KCAL/MOL
REMARK 922        TOTAL FREE ENERGY PREDICTED BY IDOCK:   -5.61 KCAL/MOL
REMARK 923 INTER-LIGAND FREE ENERGY PREDICTED BY IDOCK:   -5.12 KCAL/MOL
REMARK 924 INTRA-LIGAND FREE ENERGY PREDICTED BY IDOCK:   -0.49 KCAL/MOL
REMARK 927      BINDING AFFINITY PREDICTED BY RF-SCORE:    0.00 PKD
ROOT
HETATM    1  C   UNL     1      -7.225  19.219  68.892  1.00  0.00    -0.393 C  
HETATM    2  C   UNL     1      -7.843  18.215  67.934  1.00  0.00    -0.247 C  
ENDROOT
BRANCH   2   3
HETATM    3  C   UNL     1      -8.778  17.259  68.670  1.00  0.00    -0.268 C  
BRANCH   3   4
HETATM    4  C   UNL     1     -10.220  17.753  68.621  1.00  0.00    -0.377 C  
BRANCH   4   5
HETATM    5  C   UNL     1     -11.192  16.577  68.642  1.00  0.00    -0.297 C  
BRANCH   5   6
HETATM    6  C   UNL     1     -10.879  15.642  69.803  1.00  0.00    -0.310 C  
BRANCH   6   7
HETATM    7  C   UNL     1     -11.777  14.410  69.775  1.00  0.00    -0.361 C  
BRANCH   7   8
HETATM    8  C   UNL     1     -11.882  13.877  68.352  1.00  0.00    -0.409 C  
BRANCH   8   9
HETATM    9  C   UNL     1     -11.095  12.582  68.174  1.00  0.00    -0.282 C  
BRANCH   9  10
HETATM   10  C   UNL     1     -11.872  11.357  68.656  1.00  0.00    -0.377 C  
BRANCH  10  11
HETATM   11  C   UNL     1     -11.257  10.007  68.269  1.00  0.00    -0.195 C  
BRANCH  11  12
HETATM   12  C   UNL     1      -9.927   9.729  68.981  1.00  0.00    -0.184 C  
BRANCH  12  13
HETATM   13  N   UNL     1      -9.851   8.331  69.626  1.00  0.00    -0.181 N  
HETATM   14  C   UNL     1      -8.408   7.967  69.953  1.00  0.00    -0.122 C  
HETATM   15  C   UNL     1     -10.686   8.279  70.901  1.00  0.00    -0.218 C  
BRANCH  13  16
HETATM   16  C   UNL     1     -10.438   7.316  68.587  1.00  0.00    -0.194 C  
BRANCH  16  17
HETATM   17  C   UNL     1      -9.431   6.723  67.633  1.00  0.00    -0.126 A  
HETATM   18  C   UNL     1      -8.868   5.460  67.883  1.00  0.00    -0.105 A  
HETATM   19  C   UNL     1      -7.792   5.005  67.123  1.00  0.00    -0.096 A  
HETATM   20  C   UNL     1      -7.286   5.791  66.090  1.00  0.00    -0.076 A  
HETATM   21  C   UNL     1      -7.884   7.010  65.784  1.00  0.00    -0.109 A  
HETATM   22  C   UNL     1      -8.962   7.469  66.540  1.00  0.00    -0.189 A  
ENDBRANCH  16  17
ENDBRANCH  13  16
ENDBRANCH  12  13
ENDBRANCH  11  12
ENDBRANCH  10  11
ENDBRANCH   9  10
ENDBRANCH   8   9
ENDBRANCH   7   8
ENDBRANCH   6   7
ENDBRANCH   5   6
ENDBRANCH   4   5
ENDBRANCH   3   4
ENDBRANCH   2   3
TORSDOF 13
ENDMDL
MODEL      376
REMARK 921   NORMALIZED FREE ENERGY PREDICTED BY IDOCK:   -2.35 KCAL/MOL
REMARK 922        TOTAL FREE ENERGY PREDICTED BY IDOCK:   -5.61 KCAL/MOL
REMARK 923 INTER-LIGAND FREE ENERGY PREDICTED BY IDOCK:   -5.33 KCAL/MOL
REMARK 924 INTRA-LIGAND FREE ENERGY PREDICTED BY IDOCK:   -0.27 KCAL/MOL
REMARK 927      BINDING AFFINITY PREDICTED BY RF-SCORE:    0.00 PKD
ROOT
HETATM    1  C   UNL     1      -5.845  19.266  70.052  1.00  0.00    -0.285 C  
HETATM    2  C   UNL     1      -6.621  19.588  68.786  1.00  0.00    -0.330 C  
ENDROOT
BRANCH   2   3
HETATM    3  C   UNL     1      -7.937  18.817  68.739  1.00  0.00    -0.335 C  
BRANCH   3   4
HETATM    4  C   UNL     1      -9.104  19.692  69.187  1.00  0.00    -0.120 C  
BRANCH   4   5
HETATM    5  C   UNL     1     -10.274  19.565  68.216  1.00  0.00    -0.552 C  
BRANCH   5   6
HETATM    6  C   UNL     1     -10.393  18.137  67.700  1.00  0.00    -0.411 C  
BRANCH   6   7
HETATM    7  C   UNL     1     -10.035  18.054  66.220  1.00  0.00    -0.338 C  
BRANCH   7   8
HETATM    8  C   UNL     1      -8.935  17.021  66.011  1.00  0.00    -0.168 C  
BRANCH   8   9
HETATM    9  C   UNL     1      -9.442  15.601  66.242  1.00  0.00    -0.351 C  
BRANCH   9  10
HETATM   10  C   UNL     1     -10.304  15.094  65.085  1.00  0.00    -0.416 C  
BRANCH  10  11
HETATM   11  C   UNL     1     -10.662  13.604  65.148  1.00  0.00    -0.359 C  
BRANCH  11  12
HETATM   12  C   UNL     1      -9.873  12.844  66.221  1.00  0.00    -0.273 C  
BRANCH  12  13
HETATM   13  N   UNL     1     -10.370  11.403  66.449  1.00  0.00    -0.234 N  
HETATM   14  C   UNL     1     -11.501  11.379  67.469  1.00  0.00    -0.260 C  
HETATM   15  C   UNL     1     -10.854  10.786  65.142  1.00  0.00     0.013 C  
BRANCH  13  16
HETATM   16  C   UNL     1      -9.149  10.579  66.984  1.00  0.00    -0.143 C  
BRANCH  16  17
HETATM   17  C   UNL     1      -8.451   9.727  65.953  1.00  0.00    -0.136 A  
HETATM   18  C   UNL     1      -7.553  10.304  65.040  1.00  0.00    -0.124 A  
HETATM   19  C   UNL     1      -7.071   9.563  63.962  1.00  0.00    -0.109 A  
HETATM   20  C   UNL     1      -7.457   8.234  63.801  1.00  0.00    -0.121 A  
HETATM   21  C   UNL     1      -8.286   7.630  64.742  1.00  0.00    -0.081 A  
HETATM   22  C   UNL     1      -8.769   8.367  65.823  1.00  0.00    -0.199 A  
ENDBRANCH  16  17
ENDBRANCH  13  16
ENDBRANCH  12  13
ENDBRANCH  11  12
ENDBRANCH  10  11
ENDBRANCH   9  10
ENDBRANCH   8   9
ENDBRANCH   7   8
ENDBRANCH   6   7
ENDBRANCH   5   6
ENDBRANCH   4   5
ENDBRANCH   3   4
ENDBRANCH   2   3
TORSDOF 13
ENDMDL
MODEL      377
REMARK 921   NORMALIZED FREE ENERGY PREDICTED BY IDOCK:   -2.35 KCAL/MOL
REMARK 922        TOTAL FREE ENERGY PREDICTED BY IDOCK:   -5.60 KCAL/MOL
REMARK 923 INTER-LIGAND FREE ENERGY PREDICTED BY IDOCK:   -5.08 KCAL/MOL
REMARK 924 INTRA-LIGAND FREE ENERGY PREDICTED BY IDOCK:   -0.53 KCAL/MOL
REMARK 927      BINDING AFFINITY PREDICTED BY RF-SCORE:    0.00 PKD
ROOT
HETATM    1  C   UNL     1     -10.434  19.741  68.080  1.00  0.00    -0.523 C  
HETATM    2  C   UNL     1      -9.102  19.055  67.826  1.00  0.00    -0.331 C  
ENDROOT
BRANCH   2   3
HETATM    3  C   UNL     1      -9.304  17.698  67.158  1.00  0.00    -0.245 C  
BRANCH   3   4
HETATM    4  C   UNL     1      -8.343  16.657  67.725  1.00  0.00    -0.184 C  
BRANCH   4   5
HETATM    5  C   UNL     1      -8.890  15.249  67.511  1.00  0.00    -0.188 C  
BRANCH   5   6
HETATM    6  C   UNL     1     -10.406  15.233  67.648  1.00  0.00    -0.250 C  
BRANCH   6   7
HETATM    7  C   UNL     1     -10.986  13.892  67.209  1.00  0.00    -0.299 C  
BRANCH   7   8
HETATM    8  C   UNL     1     -11.005  13.810  65.689  1.00  0.00    -0.288 C  
BRANCH   8   9
HETATM    9  C   UNL     1     -10.562  12.437  65.191  1.00  0.00    -0.324 C  
BRANCH   9  10
HETATM   10  C   UNL     1     -10.711  12.290  63.676  1.00  0.00    -0.513 C  
BRANCH  10  11
HETATM   11  C   UNL     1      -9.748  11.290  63.025  1.00  0.00    -0.389 C  
BRANCH  11  12
HETATM   12  C   UNL     1      -9.121  10.319  64.034  1.00  0.00    -0.251 C  
BRANCH  12  13
HETATM   13  N   UNL     1      -7.838   9.638  63.520  1.00  0.00    -0.129 N  
HETATM   14  C   UNL     1      -8.168   8.602  62.453  1.00  0.00    -0.182 C  
HETATM   15  C   UNL     1      -6.873  10.668  62.944  1.00  0.00     0.023 C  
BRANCH  13  16
HETATM   16  C   UNL     1      -7.167   8.941  64.753  1.00  0.00    -0.092 C  
BRANCH  16  17
HETATM   17  C   UNL     1      -8.013   8.896  66.002  1.00  0.00    -0.106 A  
HETATM   18  C   UNL     1      -7.602   9.563  67.167  1.00  0.00    -0.091 A  
HETATM   19  C   UNL     1      -8.269   9.352  68.373  1.00  0.00    -0.117 A  
HETATM   20  C   UNL     1      -9.368   8.498  68.421  1.00  0.00    -0.137 A  
HETATM   21  C   UNL     1      -9.831   7.890  67.257  1.00  0.00    -0.256 A  
HETATM   22  C   UNL     1      -9.168   8.100  66.049  1.00  0.00    -0.207 A  
ENDBRANCH  16  17
ENDBRANCH  13  16
ENDBRANCH  12  13
ENDBRANCH  11  12
ENDBRANCH  10  11
ENDBRANCH   9  10
ENDBRANCH   8   9
ENDBRANCH   7   8
ENDBRANCH   6   7
ENDBRANCH   5   6
ENDBRANCH   4   5
ENDBRANCH   3   4
ENDBRANCH   2   3
TORSDOF 13
ENDMDL
MODEL      378
REMARK 921   NORMALIZED FREE ENERGY PREDICTED BY IDOCK:   -2.32 KCAL/MOL
REMARK 922        TOTAL FREE ENERGY PREDICTED BY IDOCK:   -5.56 KCAL/MOL
REMARK 923 INTER-LIGAND FREE ENERGY PREDICTED BY IDOCK:   -5.34 KCAL/MOL
REMARK 924 INTRA-LIGAND FREE ENERGY PREDICTED BY IDOCK:   -0.22 KCAL/MOL
REMARK 927      BINDING AFFINITY PREDICTED BY RF-SCORE:    0.00 PKD
ROOT
HETATM    1  C   UNL     1      -9.236  16.967  65.718  1.00  0.00     0.036 C  
HETATM    2  C   UNL     1     -10.031  16.779  67.000  1.00  0.00    -0.269 C  
ENDROOT
BRANCH   2   3
HETATM    3  C   UNL     1      -9.295  17.382  68.193  1.00  0.00    -0.277 C  
BRANCH   3   4
HETATM    4  C   UNL     1      -9.474  16.523  69.441  1.00  0.00    -0.068 C  
BRANCH   4   5
HETATM    5  C   UNL     1     -10.929  16.088  69.590  1.00  0.00    -0.326 C  
BRANCH   5   6
HETATM    6  C   UNL     1     -11.061  14.581  69.413  1.00  0.00    -0.297 C  
BRANCH   6   7
HETATM    7  C   UNL     1     -12.480  14.113  69.722  1.00  0.00    -0.266 C  
BRANCH   7   8
HETATM    8  C   UNL     1     -12.685  14.046  71.230  1.00  0.00    -0.439 C  
BRANCH   8   9
HETATM    9  C   UNL     1     -13.109  12.652  71.682  1.00  0.00    -0.421 C  
BRANCH   9  10
HETATM   10  C   UNL     1     -12.621  11.557  70.731  1.00  0.00    -0.390 C  
BRANCH  10  11
HETATM   11  C   UNL     1     -12.976  10.127  71.155  1.00  0.00    -0.488 C  
BRANCH  11  12
HETATM   12  C   UNL     1     -12.150   9.063  70.421  1.00  0.00     0.168 C  
BRANCH  12  13
HETATM   13  N   UNL     1     -11.402   8.101  71.364  1.00  0.00    -0.252 N  
HETATM   14  C   UNL     1      -9.896   8.222  71.172  1.00  0.00    -0.175 C  
HETATM   15  C   UNL     1     -11.751   8.392  72.819  1.00  0.00    -0.174 C  
BRANCH  13  16
HETATM   16  C   UNL     1     -11.873   6.651  71.004  1.00  0.00    -0.372 C  
BRANCH  16  17
HETATM   17  C   UNL     1     -10.971   5.545  71.493  1.00  0.00    -0.220 A  
HETATM   18  C   UNL     1     -11.061   5.083  72.817  1.00  0.00    -0.310 A  
HETATM   19  C   UNL     1     -10.096   4.216  73.328  1.00  0.00    -0.200 A  
HETATM   20  C   UNL     1      -9.051   3.780  72.516  1.00  0.00    -0.135 A  
HETATM   21  C   UNL     1      -8.994   4.170  71.181  1.00  0.00    -0.168 A  
HETATM   22  C   UNL     1      -9.959   5.036  70.665  1.00  0.00    -0.300 A  
ENDBRANCH  16  17
ENDBRANCH  13  16
ENDBRANCH  12  13
ENDBRANCH  11  12
ENDBRANCH  10  11
ENDBRANCH   9  10
ENDBRANCH   8   9
ENDBRANCH   7   8
ENDBRANCH   6   7
ENDBRANCH   5   6
ENDBRANCH   4   5
ENDBRANCH   3   4
ENDBRANCH   2   3
TORSDOF 13
ENDMDL
MODEL      379
REMARK 921   NORMALIZED FREE ENERGY PREDICTED BY IDOCK:   -2.31 KCAL/MOL
REMARK 922        TOTAL FREE ENERGY PREDICTED BY IDOCK:   -5.54 KCAL/MOL
REMARK 923 INTER-LIGAND FREE ENERGY PREDICTED BY IDOCK:   -5.54 KCAL/MOL
REMARK 924 INTRA-LIGAND FREE ENERGY PREDICTED BY IDOCK:   -0.00 KCAL/MOL
REMARK 927      BINDING AFFINITY PREDICTED BY RF-SCORE:    0.00 PKD
ROOT
HETATM    1  C   UNL     1      -7.527  18.897  68.942  1.00  0.00    -0.338 C  
HETATM    2  C   UNL     1      -8.097  17.849  68.002  1.00  0.00    -0.252 C  
ENDROOT
BRANCH   2   3
HETATM    3  C   UNL     1      -9.019  16.888  68.748  1.00  0.00    -0.256 C  
BRANCH   3   4
HETATM    4  C   UNL     1     -10.445  17.426  68.806  1.00  0.00    -0.333 C  
BRANCH   4   5
HETATM    5  C   UNL     1     -11.450  16.279  68.870  1.00  0.00    -0.282 C  
BRANCH   5   6
HETATM    6  C   UNL     1     -11.050  15.272  69.940  1.00  0.00    -0.303 C  
BRANCH   6   7
HETATM    7  C   UNL     1     -11.928  14.027  69.880  1.00  0.00    -0.399 C  
BRANCH   7   8
HETATM    8  C   UNL     1     -12.105  13.587  68.432  1.00  0.00    -0.293 C  
BRANCH   8   9
HETATM    9  C   UNL     1     -11.646  12.148  68.218  1.00  0.00    -0.382 C  
BRANCH   9  10
HETATM   10  C   UNL     1     -10.194  11.930  68.646  1.00  0.00    -0.202 C  
BRANCH  10  11
HETATM   11  C   UNL     1      -9.829  10.478  68.980  1.00  0.00    -0.224 C  
BRANCH  11  12
HETATM   12  C   UNL     1     -10.709   9.456  68.251  1.00  0.00    -0.171 C  
BRANCH  12  13
HETATM   13  N   UNL     1      -9.911   8.333  67.560  1.00  0.00    -0.177 N  
HETATM   14  C   UNL     1     -10.825   7.170  67.196  1.00  0.00    -0.333 C  
HETATM   15  C   UNL     1      -9.229   8.853  66.300  1.00  0.00    -0.207 C  
BRANCH  13  16
HETATM   16  C   UNL     1      -8.818   7.858  68.577  1.00  0.00    -0.134 C  
BRANCH  16  17
HETATM   17  C   UNL     1      -9.345   7.125  69.786  1.00  0.00    -0.146 A  
HETATM   18  C   UNL     1     -10.321   6.125  69.645  1.00  0.00    -0.277 A  
HETATM   19  C   UNL     1     -10.956   5.597  70.768  1.00  0.00    -0.257 A  
HETATM   20  C   UNL     1     -10.604   6.040  72.041  1.00  0.00    -0.267 A  
HETATM   21  C   UNL     1      -9.584   6.975  72.197  1.00  0.00    -0.160 A  
HETATM   22  C   UNL     1      -8.945   7.505  71.077  1.00  0.00    -0.147 A  
ENDBRANCH  16  17
ENDBRANCH  13  16
ENDBRANCH  12  13
ENDBRANCH  11  12
ENDBRANCH  10  11
ENDBRANCH   9  10
ENDBRANCH   8   9
ENDBRANCH   7   8
ENDBRANCH   6   7
ENDBRANCH   5   6
ENDBRANCH   4   5
ENDBRANCH   3   4
ENDBRANCH   2   3
TORSDOF 13
ENDMDL
MODEL      380
REMARK 921   NORMALIZED FREE ENERGY PREDICTED BY IDOCK:   -2.31 KCAL/MOL
REMARK 922        TOTAL FREE ENERGY PREDICTED BY IDOCK:   -5.53 KCAL/MOL
REMARK 923 INTER-LIGAND FREE ENERGY PREDICTED BY IDOCK:   -4.95 KCAL/MOL
REMARK 924 INTRA-LIGAND FREE ENERGY PREDICTED BY IDOCK:   -0.58 KCAL/MOL
REMARK 927      BINDING AFFINITY PREDICTED BY RF-SCORE:    0.00 PKD
ROOT
HETATM    1  C   UNL     1     -12.100  12.816  63.231  1.00  0.00    -0.524 C  
HETATM    2  C   UNL     1     -11.005  11.798  63.506  1.00  0.00    -0.499 C  
ENDROOT
BRANCH   2   3
HETATM    3  C   UNL     1     -10.288  12.107  64.818  1.00  0.00    -0.320 C  
BRANCH   3   4
HETATM    4  C   UNL     1     -10.500  10.991  65.836  1.00  0.00    -0.300 C  
BRANCH   4   5
HETATM    5  C   UNL     1     -11.164  11.535  67.098  1.00  0.00    -0.365 C  
BRANCH   5   6
HETATM    6  C   UNL     1     -10.270  11.319  68.312  1.00  0.00    -0.198 C  
BRANCH   6   7
HETATM    7  C   UNL     1     -11.030  10.629  69.440  1.00  0.00    -0.304 C  
BRANCH   7   8
HETATM    8  C   UNL     1     -11.117   9.133  69.167  1.00  0.00     0.036 C  
BRANCH   8   9
HETATM    9  C   UNL     1     -11.007   8.317  70.450  1.00  0.00    -0.244 C  
BRANCH   9  10
HETATM   10  C   UNL     1     -10.516   9.152  71.633  1.00  0.00    -0.403 C  
BRANCH  10  11
HETATM   11  C   UNL     1      -9.217   8.658  72.280  1.00  0.00    -0.297 C  
BRANCH  11  12
HETATM   12  C   UNL     1      -8.635   7.421  71.585  1.00  0.00    -0.116 C  
BRANCH  12  13
HETATM   13  N   UNL     1      -7.155   7.158  71.927  1.00  0.00    -0.071 N  
HETATM   14  C   UNL     1      -6.468   6.402  70.797  1.00  0.00    -0.048 C  
HETATM   15  C   UNL     1      -6.418   8.468  72.181  1.00  0.00    -0.076 C  
BRANCH  13  16
HETATM   16  C   UNL     1      -7.137   6.297  73.236  1.00  0.00    -0.086 C  
BRANCH  16  17
HETATM   17  C   UNL     1      -8.288   5.333  73.385  1.00  0.00    -0.114 A  
HETATM   18  C   UNL     1      -8.330   4.148  72.632  1.00  0.00    -0.100 A  
HETATM   19  C   UNL     1      -9.483   3.366  72.612  1.00  0.00    -0.165 A  
HETATM   20  C   UNL     1     -10.594   3.743  73.363  1.00  0.00    -0.279 A  
HETATM   21  C   UNL     1     -10.538   4.874  74.173  1.00  0.00    -0.345 A  
HETATM   22  C   UNL     1      -9.385   5.658  74.198  1.00  0.00    -0.136 A  
ENDBRANCH  16  17
ENDBRANCH  13  16
ENDBRANCH  12  13
ENDBRANCH  11  12
ENDBRANCH  10  11
ENDBRANCH   9  10
ENDBRANCH   8   9
ENDBRANCH   7   8
ENDBRANCH   6   7
ENDBRANCH   5   6
ENDBRANCH   4   5
ENDBRANCH   3   4
ENDBRANCH   2   3
TORSDOF 13
ENDMDL
MODEL      381
REMARK 921   NORMALIZED FREE ENERGY PREDICTED BY IDOCK:   -2.30 KCAL/MOL
REMARK 922        TOTAL FREE ENERGY PREDICTED BY IDOCK:   -5.52 KCAL/MOL
REMARK 923 INTER-LIGAND FREE ENERGY PREDICTED BY IDOCK:   -3.51 KCAL/MOL
REMARK 924 INTRA-LIGAND FREE ENERGY PREDICTED BY IDOCK:   -2.01 KCAL/MOL
REMARK 927      BINDING AFFINITY PREDICTED BY RF-SCORE:    0.00 PKD
ROOT
HETATM    1  C   UNL     1     -10.114   9.488  66.435  1.00  0.00    -0.328 C  
HETATM    2  C   UNL     1     -10.028   7.995  66.702  1.00  0.00    -0.326 C  
ENDROOT
BRANCH   2   3
HETATM    3  C   UNL     1      -8.817   7.383  66.003  1.00  0.00    -0.173 C  
BRANCH   3   4
HETATM    4  C   UNL     1      -8.823   5.862  66.123  1.00  0.00    -0.149 C  
BRANCH   4   5
HETATM    5  C   UNL     1      -7.490   5.362  66.674  1.00  0.00    -0.087 C  
BRANCH   5   6
HETATM    6  C   UNL     1      -7.605   3.912  67.126  1.00  0.00    -0.080 C  
BRANCH   6   7
HETATM    7  C   UNL     1      -9.065   3.489  67.254  1.00  0.00    -0.194 C  
BRANCH   7   8
HETATM    8  C   UNL     1      -9.384   3.165  68.708  1.00  0.00    -0.231 C  
BRANCH   8   9
HETATM    9  C   UNL     1      -9.128   4.359  69.622  1.00  0.00    -0.174 C  
BRANCH   9  10
HETATM   10  C   UNL     1     -10.402   4.850  70.312  1.00  0.00    -0.252 C  
BRANCH  10  11
HETATM   11  C   UNL     1     -10.743   6.325  70.069  1.00  0.00    -0.346 C  
BRANCH  11  12
HETATM   12  C   UNL     1      -9.505   7.229  70.042  1.00  0.00    -0.161 C  
BRANCH  12  13
HETATM   13  N   UNL     1      -9.178   7.871  71.404  1.00  0.00    -0.133 N  
HETATM   14  C   UNL     1     -10.404   8.572  71.977  1.00  0.00    -0.338 C  
HETATM   15  C   UNL     1      -8.689   6.819  72.393  1.00  0.00    -0.127 C  
BRANCH  13  16
HETATM   16  C   UNL     1      -8.034   8.912  71.155  1.00  0.00    -0.144 C  
BRANCH  16  17
HETATM   17  C   UNL     1      -7.211   8.675  69.913  1.00  0.00    -0.051 A  
HETATM   18  C   UNL     1      -6.248   7.653  69.879  1.00  0.00    -0.027 A  
HETATM   19  C   UNL     1      -5.348   7.567  68.818  1.00  0.00    -0.022 A  
HETATM   20  C   UNL     1      -5.420   8.480  67.768  1.00  0.00    -0.035 A  
HETATM   21  C   UNL     1      -6.419   9.449  67.753  1.00  0.00    -0.059 A  
HETATM   22  C   UNL     1      -7.322   9.538  68.812  1.00  0.00    -0.074 A  
ENDBRANCH  16  17
ENDBRANCH  13  16
ENDBRANCH  12  13
ENDBRANCH  11  12
ENDBRANCH  10  11
ENDBRANCH   9  10
ENDBRANCH   8   9
ENDBRANCH   7   8
ENDBRANCH   6   7
ENDBRANCH   5   6
ENDBRANCH   4   5
ENDBRANCH   3   4
ENDBRANCH   2   3
TORSDOF 13
ENDMDL
MODEL      382
REMARK 921   NORMALIZED FREE ENERGY PREDICTED BY IDOCK:   -2.29 KCAL/MOL
REMARK 922        TOTAL FREE ENERGY PREDICTED BY IDOCK:   -5.51 KCAL/MOL
REMARK 923 INTER-LIGAND FREE ENERGY PREDICTED BY IDOCK:   -4.39 KCAL/MOL
REMARK 924 INTRA-LIGAND FREE ENERGY PREDICTED BY IDOCK:   -1.12 KCAL/MOL
REMARK 927      BINDING AFFINITY PREDICTED BY RF-SCORE:    0.00 PKD
ROOT
HETATM    1  C   UNL     1      -9.061   7.759  73.180  1.00  0.00    -0.280 C  
HETATM    2  C   UNL     1      -8.332   8.006  71.870  1.00  0.00    -0.167 C  
ENDROOT
BRANCH   2   3
HETATM    3  C   UNL     1      -9.136   8.936  70.964  1.00  0.00    -0.303 C  
BRANCH   3   4
HETATM    4  C   UNL     1     -10.497   8.335  70.627  1.00  0.00    -0.224 C  
BRANCH   4   5
HETATM    5  C   UNL     1     -11.299   9.285  69.743  1.00  0.00    -0.029 C  
BRANCH   5   6
HETATM    6  C   UNL     1     -11.244  10.705  70.290  1.00  0.00    -0.365 C  
BRANCH   6   7
HETATM    7  C   UNL     1     -10.638  11.665  69.272  1.00  0.00    -0.088 C  
BRANCH   7   8
HETATM    8  C   UNL     1     -11.743  12.295  68.434  1.00  0.00    -0.390 C  
BRANCH   8   9
HETATM    9  C   UNL     1     -11.676  11.844  66.978  1.00  0.00    -0.304 C  
BRANCH   9  10
HETATM   10  C   UNL     1     -10.487  12.452  66.233  1.00  0.00    -0.271 C  
BRANCH  10  11
HETATM   11  C   UNL     1      -9.553  11.436  65.565  1.00  0.00    -0.256 C  
BRANCH  11  12
HETATM   12  C   UNL     1      -9.354  10.166  66.401  1.00  0.00    -0.169 C  
BRANCH  12  13
HETATM   13  N   UNL     1      -8.145   9.318  65.959  1.00  0.00    -0.109 N  
HETATM   14  C   UNL     1      -7.320  10.060  64.915  1.00  0.00    -0.140 C  
HETATM   15  C   UNL     1      -7.260   8.976  67.153  1.00  0.00    -0.083 C  
BRANCH  13  16
HETATM   16  C   UNL     1      -8.716   7.993  65.348  1.00  0.00    -0.068 C  
BRANCH  16  17
HETATM   17  C   UNL     1      -8.984   6.892  66.343  1.00  0.00    -0.172 A  
HETATM   18  C   UNL     1      -8.221   5.712  66.325  1.00  0.00    -0.108 A  
HETATM   19  C   UNL     1      -8.600   4.616  67.099  1.00  0.00    -0.104 A  
HETATM   20  C   UNL     1      -9.724   4.696  67.918  1.00  0.00    -0.198 A  
HETATM   21  C   UNL     1     -10.444   5.885  68.001  1.00  0.00    -0.294 A  
HETATM   22  C   UNL     1     -10.067   6.985  67.230  1.00  0.00    -0.265 A  
ENDBRANCH  16  17
ENDBRANCH  13  16
ENDBRANCH  12  13
ENDBRANCH  11  12
ENDBRANCH  10  11
ENDBRANCH   9  10
ENDBRANCH   8   9
ENDBRANCH   7   8
ENDBRANCH   6   7
ENDBRANCH   5   6
ENDBRANCH   4   5
ENDBRANCH   3   4
ENDBRANCH   2   3
TORSDOF 13
ENDMDL
MODEL      383
REMARK 921   NORMALIZED FREE ENERGY PREDICTED BY IDOCK:   -2.28 KCAL/MOL
REMARK 922        TOTAL FREE ENERGY PREDICTED BY IDOCK:   -5.49 KCAL/MOL
REMARK 923 INTER-LIGAND FREE ENERGY PREDICTED BY IDOCK:   -4.06 KCAL/MOL
REMARK 924 INTRA-LIGAND FREE ENERGY PREDICTED BY IDOCK:   -1.43 KCAL/MOL
REMARK 927      BINDING AFFINITY PREDICTED BY RF-SCORE:    0.00 PKD
ROOT
HETATM    1  C   UNL     1     -11.420  11.706  67.256  1.00  0.00    -0.350 C  
HETATM    2  C   UNL     1     -11.068  12.688  68.361  1.00  0.00    -0.297 C  
ENDROOT
BRANCH   2   3
HETATM    3  C   UNL     1     -10.728  14.060  67.786  1.00  0.00    -0.248 C  
BRANCH   3   4
HETATM    4  C   UNL     1      -9.754  13.941  66.617  1.00  0.00    -0.295 C  
BRANCH   4   5
HETATM    5  C   UNL     1      -8.599  14.926  66.779  1.00  0.00    -0.256 C  
BRANCH   5   6
HETATM    6  C   UNL     1      -8.254  15.113  68.250  1.00  0.00    -0.144 C  
BRANCH   6   7
HETATM    7  C   UNL     1      -6.917  14.460  68.589  1.00  0.00    -0.102 C  
BRANCH   7   8
HETATM    8  C   UNL     1      -7.154  13.153  69.334  1.00  0.00     0.166 C  
BRANCH   8   9
HETATM    9  C   UNL     1      -6.686  11.948  68.524  1.00  0.00    -0.068 C  
BRANCH   9  10
HETATM   10  C   UNL     1      -7.853  11.131  67.967  1.00  0.00    -0.114 C  
BRANCH  10  11
HETATM   11  C   UNL     1      -7.980   9.713  68.537  1.00  0.00    -0.089 C  
BRANCH  11  12
HETATM   12  C   UNL     1      -8.855   8.797  67.672  1.00  0.00    -0.135 C  
BRANCH  12  13
HETATM   13  N   UNL     1      -8.679   7.298  67.985  1.00  0.00    -0.127 N  
HETATM   14  C   UNL     1      -8.157   6.552  66.763  1.00  0.00    -0.109 C  
HETATM   15  C   UNL     1      -7.714   7.100  69.148  1.00  0.00    -0.109 C  
BRANCH  13  16
HETATM   16  C   UNL     1     -10.089   6.747  68.387  1.00  0.00    -0.162 C  
BRANCH  16  17
HETATM   17  C   UNL     1     -10.438   6.887  69.848  1.00  0.00    -0.239 A  
HETATM   18  C   UNL     1     -10.949   8.096  70.348  1.00  0.00    -0.248 A  
HETATM   19  C   UNL     1     -11.074   8.294  71.722  1.00  0.00    -0.342 A  
HETATM   20  C   UNL     1     -10.716   7.280  72.608  1.00  0.00    -0.318 A  
HETATM   21  C   UNL     1     -10.281   6.050  72.122  1.00  0.00    -0.222 A  
HETATM   22  C   UNL     1     -10.157   5.847  70.748  1.00  0.00    -0.253 A  
ENDBRANCH  16  17
ENDBRANCH  13  16
ENDBRANCH  12  13
ENDBRANCH  11  12
ENDBRANCH  10  11
ENDBRANCH   9  10
ENDBRANCH   8   9
ENDBRANCH   7   8
ENDBRANCH   6   7
ENDBRANCH   5   6
ENDBRANCH   4   5
ENDBRANCH   3   4
ENDBRANCH   2   3
TORSDOF 13
ENDMDL
MODEL      384
REMARK 921   NORMALIZED FREE ENERGY PREDICTED BY IDOCK:   -2.27 KCAL/MOL
REMARK 922        TOTAL FREE ENERGY PREDICTED BY IDOCK:   -5.47 KCAL/MOL
REMARK 923 INTER-LIGAND FREE ENERGY PREDICTED BY IDOCK:   -5.13 KCAL/MOL
REMARK 924 INTRA-LIGAND FREE ENERGY PREDICTED BY IDOCK:   -0.34 KCAL/MOL
REMARK 927      BINDING AFFINITY PREDICTED BY RF-SCORE:    0.00 PKD
ROOT
HETATM    1  C   UNL     1      -9.616   7.506  73.468  1.00  0.00    -0.339 C  
HETATM    2  C   UNL     1      -9.353   6.062  73.074  1.00  0.00    -0.139 C  
ENDROOT
BRANCH   2   3
HETATM    3  C   UNL     1     -10.438   5.545  72.134  1.00  0.00    -0.272 C  
BRANCH   3   4
HETATM    4  C   UNL     1     -11.480   6.623  71.850  1.00  0.00    -0.332 C  
BRANCH   4   5
HETATM    5  C   UNL     1     -11.985   6.517  70.414  1.00  0.00    -0.295 C  
BRANCH   5   6
HETATM    6  C   UNL     1     -10.832   6.638  69.427  1.00  0.00    -0.340 C  
BRANCH   6   7
HETATM    7  C   UNL     1     -10.960   5.617  68.301  1.00  0.00    -0.030 C  
BRANCH   7   8
HETATM    8  C   UNL     1     -10.863   6.319  66.953  1.00  0.00    -0.428 C  
BRANCH   8   9
HETATM    9  C   UNL     1     -10.173   7.674  67.069  1.00  0.00    -0.371 C  
BRANCH   9  10
HETATM   10  C   UNL     1      -8.699   7.615  66.665  1.00  0.00    -0.150 C  
BRANCH  10  11
HETATM   11  C   UNL     1      -8.010   8.977  66.525  1.00  0.00    -0.103 C  
BRANCH  11  12
HETATM   12  C   UNL     1      -8.981  10.103  66.147  1.00  0.00    -0.150 C  
BRANCH  12  13
HETATM   13  N   UNL     1      -8.922  11.316  67.096  1.00  0.00    -0.152 N  
HETATM   14  C   UNL     1      -9.224  10.893  68.528  1.00  0.00    -0.181 C  
HETATM   15  C   UNL     1      -7.550  11.976  67.042  1.00  0.00    -0.111 C  
BRANCH  13  16
HETATM   16  C   UNL     1     -10.003  12.336  66.599  1.00  0.00    -0.215 C  
BRANCH  16  17
HETATM   17  C   UNL     1     -10.309  13.461  67.558  1.00  0.00    -0.226 A  
HETATM   18  C   UNL     1     -11.639  13.818  67.837  1.00  0.00    -0.376 A  
HETATM   19  C   UNL     1     -11.920  14.981  68.552  1.00  0.00    -0.257 A  
HETATM   20  C   UNL     1     -10.880  15.782  69.017  1.00  0.00    -0.248 A  
HETATM   21  C   UNL     1      -9.558  15.398  68.813  1.00  0.00    -0.209 A  
HETATM   22  C   UNL     1      -9.271  14.234  68.100  1.00  0.00    -0.202 A  
ENDBRANCH  16  17
ENDBRANCH  13  16
ENDBRANCH  12  13
ENDBRANCH  11  12
ENDBRANCH  10  11
ENDBRANCH   9  10
ENDBRANCH   8   9
ENDBRANCH   7   8
ENDBRANCH   6   7
ENDBRANCH   5   6
ENDBRANCH   4   5
ENDBRANCH   3   4
ENDBRANCH   2   3
TORSDOF 13
ENDMDL
MODEL      385
REMARK 921   NORMALIZED FREE ENERGY PREDICTED BY IDOCK:   -2.25 KCAL/MOL
REMARK 922        TOTAL FREE ENERGY PREDICTED BY IDOCK:   -5.44 KCAL/MOL
REMARK 923 INTER-LIGAND FREE ENERGY PREDICTED BY IDOCK:   -4.24 KCAL/MOL
REMARK 924 INTRA-LIGAND FREE ENERGY PREDICTED BY IDOCK:   -1.20 KCAL/MOL
REMARK 927      BINDING AFFINITY PREDICTED BY RF-SCORE:    0.00 PKD
ROOT
HETATM    1  C   UNL     1     -11.541  14.496  66.493  1.00  0.00    -0.379 C  
HETATM    2  C   UNL     1     -10.948  15.342  67.607  1.00  0.00    -0.311 C  
ENDROOT
BRANCH   2   3
HETATM    3  C   UNL     1     -10.256  16.581  67.045  1.00  0.00    -0.288 C  
BRANCH   3   4
HETATM    4  C   UNL     1      -9.118  16.196  66.105  1.00  0.00    -0.382 C  
BRANCH   4   5
HETATM    5  C   UNL     1      -7.801  16.805  66.579  1.00  0.00    -0.338 C  
BRANCH   5   6
HETATM    6  C   UNL     1      -7.569  16.503  68.054  1.00  0.00    -0.166 C  
BRANCH   6   7
HETATM    7  C   UNL     1      -6.405  15.535  68.241  1.00  0.00    -0.121 C  
BRANCH   7   8
HETATM    8  C   UNL     1      -6.935  14.153  68.602  1.00  0.00    -0.107 C  
BRANCH   8   9
HETATM    9  C   UNL     1      -6.966  13.226  67.391  1.00  0.00    -0.105 C  
BRANCH   9  10
HETATM   10  C   UNL     1      -8.346  12.604  67.168  1.00  0.00    -0.172 C  
BRANCH  10  11
HETATM   11  C   UNL     1      -8.348  11.082  66.983  1.00  0.00    -0.137 C  
BRANCH  11  12
HETATM   12  C   UNL     1      -7.277  10.376  67.823  1.00  0.00    -0.086 C  
BRANCH  12  13
HETATM   13  N   UNL     1      -7.850   9.572  69.006  1.00  0.00    -0.075 N  
HETATM   14  C   UNL     1      -7.279  10.075  70.326  1.00  0.00    -0.147 C  
HETATM   15  C   UNL     1      -9.370   9.673  69.042  1.00  0.00    -0.159 C  
BRANCH  13  16
HETATM   16  C   UNL     1      -7.441   8.076  68.782  1.00  0.00    -0.091 C  
BRANCH  16  17
HETATM   17  C   UNL     1      -8.529   7.191  68.227  1.00  0.00    -0.124 A  
HETATM   18  C   UNL     1      -8.776   7.144  66.845  1.00  0.00    -0.126 A  
HETATM   19  C   UNL     1      -9.907   6.495  66.353  1.00  0.00    -0.112 A  
HETATM   20  C   UNL     1     -10.786   5.863  67.230  1.00  0.00    -0.380 A  
HETATM   21  C   UNL     1     -10.511   5.837  68.595  1.00  0.00    -0.298 A  
HETATM   22  C   UNL     1      -9.379   6.484  69.092  1.00  0.00    -0.133 A  
ENDBRANCH  16  17
ENDBRANCH  13  16
ENDBRANCH  12  13
ENDBRANCH  11  12
ENDBRANCH  10  11
ENDBRANCH   9  10
ENDBRANCH   8   9
ENDBRANCH   7   8
ENDBRANCH   6   7
ENDBRANCH   5   6
ENDBRANCH   4   5
ENDBRANCH   3   4
ENDBRANCH   2   3
TORSDOF 13
ENDMDL
MODEL      386
REMARK 921   NORMALIZED FREE ENERGY PREDICTED BY IDOCK:   -2.23 KCAL/MOL
REMARK 922        TOTAL FREE ENERGY PREDICTED BY IDOCK:   -5.41 KCAL/MOL
REMARK 923 INTER-LIGAND FREE ENERGY PREDICTED BY IDOCK:   -4.69 KCAL/MOL
REMARK 924 INTRA-LIGAND FREE ENERGY PREDICTED BY IDOCK:   -0.72 KCAL/MOL
REMARK 927      BINDING AFFINITY PREDICTED BY RF-SCORE:    0.00 PKD
ROOT
HETATM    1  C   UNL     1      -9.222   3.558  71.193  1.00  0.00    -0.192 C  
HETATM    2  C   UNL     1      -8.375   3.393  69.942  1.00  0.00    -0.081 C  
ENDROOT
BRANCH   2   3
HETATM    3  C   UNL     1      -8.842   4.336  68.836  1.00  0.00    -0.139 C  
BRANCH   3   4
HETATM    4  C   UNL     1      -8.392   5.768  69.108  1.00  0.00    -0.105 C  
BRANCH   4   5
HETATM    5  C   UNL     1      -9.380   6.764  68.508  1.00  0.00    -0.126 C  
BRANCH   5   6
HETATM    6  C   UNL     1      -8.662   7.751  67.596  1.00  0.00    -0.126 C  
BRANCH   6   7
HETATM    7  C   UNL     1      -9.627   8.798  67.051  1.00  0.00    -0.236 C  
BRANCH   7   8
HETATM    8  C   UNL     1     -10.633   9.186  68.127  1.00  0.00    -0.235 C  
BRANCH   8   9
HETATM    9  C   UNL     1     -10.295  10.533  68.757  1.00  0.00    -0.208 C  
BRANCH   9  10
HETATM   10  C   UNL     1      -8.859  10.971  68.464  1.00  0.00    -0.159 C  
BRANCH  10  11
HETATM   11  C   UNL     1      -8.689  12.460  68.140  1.00  0.00    -0.190 C  
BRANCH  11  12
HETATM   12  C   UNL     1     -10.003  13.246  68.229  1.00  0.00    -0.236 C  
BRANCH  12  13
HETATM   13  N   UNL     1      -9.961  14.605  67.504  1.00  0.00    -0.223 N  
HETATM   14  C   UNL     1     -11.333  15.268  67.524  1.00  0.00    -0.297 C  
HETATM   15  C   UNL     1      -8.942  15.533  68.156  1.00  0.00    -0.179 C  
BRANCH  13  16
HETATM   16  C   UNL     1      -9.525  14.322  66.026  1.00  0.00    -0.182 C  
BRANCH  16  17
HETATM   17  C   UNL     1     -10.496  13.496  65.220  1.00  0.00    -0.345 A  
HETATM   18  C   UNL     1     -11.613  14.097  64.614  1.00  0.00    -0.414 A  
HETATM   19  C   UNL     1     -12.616  13.311  64.050  1.00  0.00    -0.219 A  
HETATM   20  C   UNL     1     -12.502  11.922  64.059  1.00  0.00    -0.418 A  
HETATM   21  C   UNL     1     -11.364  11.319  64.587  1.00  0.00    -0.066 A  
HETATM   22  C   UNL     1     -10.357  12.101  65.151  1.00  0.00    -0.311 A  
ENDBRANCH  16  17
ENDBRANCH  13  16
ENDBRANCH  12  13
ENDBRANCH  11  12
ENDBRANCH  10  11
ENDBRANCH   9  10
ENDBRANCH   8   9
ENDBRANCH   7   8
ENDBRANCH   6   7
ENDBRANCH   5   6
ENDBRANCH   4   5
ENDBRANCH   3   4
ENDBRANCH   2   3
TORSDOF 13
ENDMDL
MODEL      387
REMARK 921   NORMALIZED FREE ENERGY PREDICTED BY IDOCK:   -2.23 KCAL/MOL
REMARK 922        TOTAL FREE ENERGY PREDICTED BY IDOCK:   -5.40 KCAL/MOL
REMARK 923 INTER-LIGAND FREE ENERGY PREDICTED BY IDOCK:   -4.05 KCAL/MOL
REMARK 924 INTRA-LIGAND FREE ENERGY PREDICTED BY IDOCK:   -1.35 KCAL/MOL
REMARK 927      BINDING AFFINITY PREDICTED BY RF-SCORE:    0.00 PKD
ROOT
HETATM    1  C   UNL     1      -8.778   8.131  73.237  1.00  0.00    -0.313 C  
HETATM    2  C   UNL     1      -8.812   8.527  71.770  1.00  0.00    -0.278 C  
ENDROOT
BRANCH   2   3
HETATM    3  C   UNL     1     -10.203   8.318  71.179  1.00  0.00    -0.244 C  
BRANCH   3   4
HETATM    4  C   UNL     1     -11.276   8.956  72.057  1.00  0.00    -0.422 C  
BRANCH   4   5
HETATM    5  C   UNL     1     -12.667   8.669  71.499  1.00  0.00    -0.351 C  
BRANCH   5   6
HETATM    6  C   UNL     1     -13.325   9.952  71.009  1.00  0.00    -0.322 C  
BRANCH   6   7
HETATM    7  C   UNL     1     -12.574  10.536  69.817  1.00  0.00    -0.038 C  
BRANCH   7   8
HETATM    8  C   UNL     1     -12.086  11.940  70.150  1.00  0.00    -0.382 C  
BRANCH   8   9
HETATM    9  C   UNL     1     -10.965  12.385  69.216  1.00  0.00    -0.145 C  
BRANCH   9  10
HETATM   10  C   UNL     1     -10.147  11.207  68.683  1.00  0.00    -0.208 C  
BRANCH  10  11
HETATM   11  C   UNL     1     -10.048  11.126  67.155  1.00  0.00    -0.223 C  
BRANCH  11  12
HETATM   12  C   UNL     1      -8.606  11.221  66.643  1.00  0.00    -0.167 C  
BRANCH  12  13
HETATM   13  N   UNL     1      -8.340  10.374  65.383  1.00  0.00    -0.162 N  
HETATM   14  C   UNL     1      -9.165  10.883  64.208  1.00  0.00    -0.197 C  
HETATM   15  C   UNL     1      -6.861  10.405  65.014  1.00  0.00    -0.065 C  
BRANCH  13  16
HETATM   16  C   UNL     1      -8.752   8.902  65.729  1.00  0.00    -0.176 C  
BRANCH  16  17
HETATM   17  C   UNL     1      -7.704   8.098  66.459  1.00  0.00    -0.093 A  
HETATM   18  C   UNL     1      -6.893   7.184  65.765  1.00  0.00    -0.056 A  
HETATM   19  C   UNL     1      -6.076   6.296  66.462  1.00  0.00    -0.029 A  
HETATM   20  C   UNL     1      -6.038   6.331  67.855  1.00  0.00    -0.024 A  
HETATM   21  C   UNL     1      -6.779   7.283  68.550  1.00  0.00    -0.057 A  
HETATM   22  C   UNL     1      -7.596   8.174  67.856  1.00  0.00    -0.102 A  
ENDBRANCH  16  17
ENDBRANCH  13  16
ENDBRANCH  12  13
ENDBRANCH  11  12
ENDBRANCH  10  11
ENDBRANCH   9  10
ENDBRANCH   8   9
ENDBRANCH   7   8
ENDBRANCH   6   7
ENDBRANCH   5   6
ENDBRANCH   4   5
ENDBRANCH   3   4
ENDBRANCH   2   3
TORSDOF 13
ENDMDL
MODEL      388
REMARK 921   NORMALIZED FREE ENERGY PREDICTED BY IDOCK:   -2.23 KCAL/MOL
REMARK 922        TOTAL FREE ENERGY PREDICTED BY IDOCK:   -5.40 KCAL/MOL
REMARK 923 INTER-LIGAND FREE ENERGY PREDICTED BY IDOCK:   -4.75 KCAL/MOL
REMARK 924 INTRA-LIGAND FREE ENERGY PREDICTED BY IDOCK:   -0.65 KCAL/MOL
REMARK 927      BINDING AFFINITY PREDICTED BY RF-SCORE:    0.00 PKD
ROOT
HETATM    1  C   UNL     1      -9.275   8.216  71.545  1.00  0.00    -0.209 C  
HETATM    2  C   UNL     1      -8.224   7.198  71.954  1.00  0.00    -0.104 C  
ENDROOT
BRANCH   2   3
HETATM    3  C   UNL     1      -6.820   7.786  71.842  1.00  0.00    -0.060 C  
BRANCH   3   4
HETATM    4  C   UNL     1      -6.487   8.146  70.398  1.00  0.00    -0.036 C  
BRANCH   4   5
HETATM    5  C   UNL     1      -6.693   6.941  69.484  1.00  0.00    -0.050 C  
BRANCH   5   6
HETATM    6  C   UNL     1      -6.597   7.353  68.021  1.00  0.00    -0.054 C  
BRANCH   6   7
HETATM    7  C   UNL     1      -7.929   7.155  67.304  1.00  0.00    -0.111 C  
BRANCH   7   8
HETATM    8  C   UNL     1      -8.636   8.495  67.145  1.00  0.00    -0.123 C  
BRANCH   8   9
HETATM    9  C   UNL     1      -9.917   8.560  67.969  1.00  0.00    -0.221 C  
BRANCH   9  10
HETATM   10  C   UNL     1     -10.971   9.472  67.339  1.00  0.00    -0.103 C  
BRANCH  10  11
HETATM   11  C   UNL     1     -10.489  10.891  67.015  1.00  0.00    -0.291 C  
BRANCH  11  12
HETATM   12  C   UNL     1     -10.526  11.827  68.228  1.00  0.00    -0.206 C  
BRANCH  12  13
HETATM   13  N   UNL     1     -11.078  13.231  67.910  1.00  0.00    -0.252 N  
HETATM   14  C   UNL     1     -11.857  13.218  66.601  1.00  0.00    -0.395 C  
HETATM   15  C   UNL     1     -11.984  13.722  69.033  1.00  0.00    -0.360 C  
BRANCH  13  16
HETATM   16  C   UNL     1      -9.844  14.189  67.790  1.00  0.00    -0.231 C  
BRANCH  16  17
HETATM   17  C   UNL     1     -10.178  15.627  67.479  1.00  0.00    -0.263 A  
HETATM   18  C   UNL     1     -10.189  16.087  66.151  1.00  0.00    -0.340 A  
HETATM   19  C   UNL     1     -10.290  17.450  65.878  1.00  0.00    -0.276 A  
HETATM   20  C   UNL     1     -10.410  18.363  66.923  1.00  0.00    -0.417 A  
HETATM   21  C   UNL     1     -10.478  17.913  68.239  1.00  0.00    -0.362 A  
HETATM   22  C   UNL     1     -10.379  16.550  68.517  1.00  0.00    -0.289 A  
ENDBRANCH  16  17
ENDBRANCH  13  16
ENDBRANCH  12  13
ENDBRANCH  11  12
ENDBRANCH  10  11
ENDBRANCH   9  10
ENDBRANCH   8   9
ENDBRANCH   7   8
ENDBRANCH   6   7
ENDBRANCH   5   6
ENDBRANCH   4   5
ENDBRANCH   3   4
ENDBRANCH   2   3
TORSDOF 13
ENDMDL
MODEL      389
REMARK 921   NORMALIZED FREE ENERGY PREDICTED BY IDOCK:   -2.22 KCAL/MOL
REMARK 922        TOTAL FREE ENERGY PREDICTED BY IDOCK:   -5.38 KCAL/MOL
REMARK 923 INTER-LIGAND FREE ENERGY PREDICTED BY IDOCK:   -4.76 KCAL/MOL
REMARK 924 INTRA-LIGAND FREE ENERGY PREDICTED BY IDOCK:   -0.62 KCAL/MOL
REMARK 927      BINDING AFFINITY PREDICTED BY RF-SCORE:    0.00 PKD
ROOT
HETATM    1  C   UNL     1     -12.485  12.101  63.477  1.00  0.00    -0.666 C  
HETATM    2  C   UNL     1     -10.997  11.962  63.751  1.00  0.00    -0.494 C  
ENDROOT
BRANCH   2   3
HETATM    3  C   UNL     1     -10.728  11.805  65.246  1.00  0.00    -0.338 C  
BRANCH   3   4
HETATM    4  C   UNL     1     -10.215  10.405  65.569  1.00  0.00    -0.316 C  
BRANCH   4   5
HETATM    5  C   UNL     1      -9.941  10.266  67.063  1.00  0.00    -0.249 C  
BRANCH   5   6
HETATM    6  C   UNL     1      -9.834  11.635  67.721  1.00  0.00    -0.186 C  
BRANCH   6   7
HETATM    7  C   UNL     1      -8.535  11.768  68.509  1.00  0.00    -0.125 C  
BRANCH   7   8
HETATM    8  C   UNL     1      -7.344  11.679  67.564  1.00  0.00    -0.119 C  
BRANCH   8   9
HETATM    9  C   UNL     1      -6.629  13.019  67.428  1.00  0.00    -0.115 C  
BRANCH   9  10
HETATM   10  C   UNL     1      -5.882  13.413  68.703  1.00  0.00    -0.084 C  
BRANCH  10  11
HETATM   11  C   UNL     1      -6.671  14.309  69.666  1.00  0.00    -0.118 C  
BRANCH  11  12
HETATM   12  C   UNL     1      -7.529  15.354  68.943  1.00  0.00    -0.152 C  
BRANCH  12  13
HETATM   13  N   UNL     1      -6.710  16.492  68.303  1.00  0.00    -0.134 N  
HETATM   14  C   UNL     1      -7.154  17.845  68.846  1.00  0.00    -0.264 C  
HETATM   15  C   UNL     1      -5.222  16.303  68.573  1.00  0.00    -0.102 C  
BRANCH  13  16
HETATM   16  C   UNL     1      -6.965  16.425  66.759  1.00  0.00    -0.177 C  
BRANCH  16  17
HETATM   17  C   UNL     1      -8.415  16.354  66.352  1.00  0.00    -0.364 A  
HETATM   18  C   UNL     1      -9.201  17.517  66.300  1.00  0.00    -0.228 A  
HETATM   19  C   UNL     1     -10.581  17.429  66.130  1.00  0.00    -0.208 A  
HETATM   20  C   UNL     1     -11.187  16.183  65.982  1.00  0.00     0.205 A  
HETATM   21  C   UNL     1     -10.410  15.028  65.954  1.00  0.00    -0.329 A  
HETATM   22  C   UNL     1      -9.028  15.112  66.122  1.00  0.00    -0.201 A  
ENDBRANCH  16  17
ENDBRANCH  13  16
ENDBRANCH  12  13
ENDBRANCH  11  12
ENDBRANCH  10  11
ENDBRANCH   9  10
ENDBRANCH   8   9
ENDBRANCH   7   8
ENDBRANCH   6   7
ENDBRANCH   5   6
ENDBRANCH   4   5
ENDBRANCH   3   4
ENDBRANCH   2   3
TORSDOF 13
ENDMDL
MODEL      390
REMARK 921   NORMALIZED FREE ENERGY PREDICTED BY IDOCK:   -2.22 KCAL/MOL
REMARK 922        TOTAL FREE ENERGY PREDICTED BY IDOCK:   -5.38 KCAL/MOL
REMARK 923 INTER-LIGAND FREE ENERGY PREDICTED BY IDOCK:   -5.12 KCAL/MOL
REMARK 924 INTRA-LIGAND FREE ENERGY PREDICTED BY IDOCK:   -0.26 KCAL/MOL
REMARK 927      BINDING AFFINITY PREDICTED BY RF-SCORE:    0.00 PKD
ROOT
HETATM    1  C   UNL     1      -9.216  17.012  65.711  1.00  0.00     0.074 C  
HETATM    2  C   UNL     1      -9.997  16.869  67.006  1.00  0.00    -0.279 C  
ENDROOT
BRANCH   2   3
HETATM    3  C   UNL     1      -9.254  17.522  68.168  1.00  0.00    -0.277 C  
BRANCH   3   4
HETATM    4  C   UNL     1      -9.421  16.714  69.452  1.00  0.00    -0.028 C  
BRANCH   4   5
HETATM    5  C   UNL     1     -10.872  16.275  69.625  1.00  0.00    -0.345 C  
BRANCH   5   6
HETATM    6  C   UNL     1     -11.021  14.785  69.349  1.00  0.00    -0.282 C  
BRANCH   6   7
HETATM    7  C   UNL     1     -12.418  14.294  69.714  1.00  0.00    -0.264 C  
BRANCH   7   8
HETATM    8  C   UNL     1     -12.513  14.075  71.218  1.00  0.00    -0.448 C  
BRANCH   8   9
HETATM    9  C   UNL     1     -12.813  12.619  71.560  1.00  0.00    -0.368 C  
BRANCH   9  10
HETATM   10  C   UNL     1     -12.380  11.659  70.451  1.00  0.00    -0.373 C  
BRANCH  10  11
HETATM   11  C   UNL     1     -12.500  10.171  70.800  1.00  0.00    -0.417 C  
BRANCH  11  12
HETATM   12  C   UNL     1     -11.726   9.265  69.834  1.00  0.00     0.199 C  
BRANCH  12  13
HETATM   13  N   UNL     1     -10.633   8.421  70.518  1.00  0.00    -0.211 N  
HETATM   14  C   UNL     1     -10.900   6.934  70.323  1.00  0.00    -0.257 C  
HETATM   15  C   UNL     1      -9.257   8.765  69.960  1.00  0.00    -0.168 C  
BRANCH  13  16
HETATM   16  C   UNL     1     -10.671   8.776  72.044  1.00  0.00    -0.347 C  
BRANCH  16  17
HETATM   17  C   UNL     1     -10.034   7.756  72.955  1.00  0.00    -0.341 A  
HETATM   18  C   UNL     1      -8.643   7.742  73.149  1.00  0.00    -0.230 A  
HETATM   19  C   UNL     1      -8.035   6.680  73.817  1.00  0.00    -0.109 A  
HETATM   20  C   UNL     1      -8.811   5.638  74.321  1.00  0.00    -0.121 A  
HETATM   21  C   UNL     1     -10.197   5.679  74.202  1.00  0.00    -0.283 A  
HETATM   22  C   UNL     1     -10.809   6.741  73.536  1.00  0.00    -0.242 A  
ENDBRANCH  16  17
ENDBRANCH  13  16
ENDBRANCH  12  13
ENDBRANCH  11  12
ENDBRANCH  10  11
ENDBRANCH   9  10
ENDBRANCH   8   9
ENDBRANCH   7   8
ENDBRANCH   6   7
ENDBRANCH   5   6
ENDBRANCH   4   5
ENDBRANCH   3   4
ENDBRANCH   2   3
TORSDOF 13
ENDMDL
MODEL      391
REMARK 921   NORMALIZED FREE ENERGY PREDICTED BY IDOCK:   -2.20 KCAL/MOL
REMARK 922        TOTAL FREE ENERGY PREDICTED BY IDOCK:   -5.34 KCAL/MOL
REMARK 923 INTER-LIGAND FREE ENERGY PREDICTED BY IDOCK:   -4.62 KCAL/MOL
REMARK 924 INTRA-LIGAND FREE ENERGY PREDICTED BY IDOCK:   -0.72 KCAL/MOL
REMARK 927      BINDING AFFINITY PREDICTED BY RF-SCORE:    0.00 PKD
ROOT
HETATM    1  C   UNL     1     -11.819   9.767  70.661  1.00  0.00    -0.360 C  
HETATM    2  C   UNL     1     -12.793   9.125  71.635  1.00  0.00    -0.431 C  
ENDROOT
BRANCH   2   3
HETATM    3  C   UNL     1     -12.101   8.058  72.479  1.00  0.00    -0.338 C  
BRANCH   3   4
HETATM    4  C   UNL     1     -10.599   8.314  72.565  1.00  0.00    -0.407 C  
BRANCH   4   5
HETATM    5  C   UNL     1      -9.825   7.001  72.485  1.00  0.00    -0.175 C  
BRANCH   5   6
HETATM    6  C   UNL     1     -10.282   6.179  71.287  1.00  0.00    -0.252 C  
BRANCH   6   7
HETATM    7  C   UNL     1      -9.101   5.786  70.406  1.00  0.00    -0.160 C  
BRANCH   7   8
HETATM    8  C   UNL     1      -9.555   4.796  69.342  1.00  0.00    -0.249 C  
BRANCH   8   9
HETATM    9  C   UNL     1      -8.877   5.056  68.001  1.00  0.00    -0.109 C  
BRANCH   9  10
HETATM   10  C   UNL     1      -8.841   6.543  67.644  1.00  0.00    -0.112 C  
BRANCH  10  11
HETATM   11  C   UNL     1      -8.063   6.883  66.367  1.00  0.00    -0.113 C  
BRANCH  11  12
HETATM   12  C   UNL     1      -8.859   7.766  65.398  1.00  0.00     0.049 C  
BRANCH  12  13
HETATM   13  N   UNL     1      -7.981   8.495  64.362  1.00  0.00    -0.140 N  
HETATM   14  C   UNL     1      -6.614   7.831  64.254  1.00  0.00    -0.056 C  
HETATM   15  C   UNL     1      -8.651   8.498  62.993  1.00  0.00     0.005 C  
BRANCH  13  16
HETATM   16  C   UNL     1      -7.821   9.972  64.858  1.00  0.00    -0.141 C  
BRANCH  16  17
HETATM   17  C   UNL     1      -9.061  10.582  65.464  1.00  0.00    -0.214 A  
HETATM   18  C   UNL     1      -9.788  11.562  64.768  1.00  0.00    -0.286 A  
HETATM   19  C   UNL     1     -10.803  12.272  65.405  1.00  0.00    -0.324 A  
HETATM   20  C   UNL     1     -11.122  11.993  66.732  1.00  0.00    -0.353 A  
HETATM   21  C   UNL     1     -10.461  10.971  67.409  1.00  0.00    -0.255 A  
HETATM   22  C   UNL     1      -9.445  10.257  66.774  1.00  0.00    -0.198 A  
ENDBRANCH  16  17
ENDBRANCH  13  16
ENDBRANCH  12  13
ENDBRANCH  11  12
ENDBRANCH  10  11
ENDBRANCH   9  10
ENDBRANCH   8   9
ENDBRANCH   7   8
ENDBRANCH   6   7
ENDBRANCH   5   6
ENDBRANCH   4   5
ENDBRANCH   3   4
ENDBRANCH   2   3
TORSDOF 13
ENDMDL
MODEL      392
REMARK 921   NORMALIZED FREE ENERGY PREDICTED BY IDOCK:   -2.17 KCAL/MOL
REMARK 922        TOTAL FREE ENERGY PREDICTED BY IDOCK:   -5.30 KCAL/MOL
REMARK 923 INTER-LIGAND FREE ENERGY PREDICTED BY IDOCK:   -5.07 KCAL/MOL
REMARK 924 INTRA-LIGAND FREE ENERGY PREDICTED BY IDOCK:   -0.23 KCAL/MOL
REMARK 927      BINDING AFFINITY PREDICTED BY RF-SCORE:    0.00 PKD
ROOT
HETATM    1  C   UNL     1      -9.626  13.568  66.757  1.00  0.00    -0.268 C  
HETATM    2  C   UNL     1     -10.614  14.411  67.545  1.00  0.00    -0.265 C  
ENDROOT
BRANCH   2   3
HETATM    3  C   UNL     1     -11.892  13.628  67.835  1.00  0.00    -0.402 C  
BRANCH   3   4
HETATM    4  C   UNL     1     -11.576  12.206  68.288  1.00  0.00    -0.382 C  
BRANCH   4   5
HETATM    5  C   UNL     1     -11.795  12.060  69.791  1.00  0.00    -0.401 C  
BRANCH   5   6
HETATM    6  C   UNL     1     -12.075  10.608  70.156  1.00  0.00    -0.414 C  
BRANCH   6   7
HETATM    7  C   UNL     1     -12.488  10.478  71.618  1.00  0.00    -0.443 C  
BRANCH   7   8
HETATM    8  C   UNL     1     -12.346   9.030  72.069  1.00  0.00    -0.455 C  
BRANCH   8   9
HETATM    9  C   UNL     1     -12.182   8.082  70.885  1.00  0.00    -0.122 C  
BRANCH   9  10
HETATM   10  C   UNL     1     -11.941   6.637  71.323  1.00  0.00    -0.409 C  
BRANCH  10  11
HETATM   11  C   UNL     1     -10.610   6.393  72.045  1.00  0.00    -0.244 C  
BRANCH  11  12
HETATM   12  C   UNL     1      -9.938   5.077  71.634  1.00  0.00    -0.187 C  
BRANCH  12  13
HETATM   13  N   UNL     1      -8.921   5.234  70.487  1.00  0.00    -0.134 N  
HETATM   14  C   UNL     1      -8.828   6.690  70.046  1.00  0.00    -0.141 C  
HETATM   15  C   UNL     1      -7.543   4.747  70.917  1.00  0.00    -0.069 C  
BRANCH  13  16
HETATM   16  C   UNL     1      -9.432   4.347  69.300  1.00  0.00    -0.179 C  
BRANCH  16  17
HETATM   17  C   UNL     1      -8.707   4.548  67.992  1.00  0.00    -0.115 A  
HETATM   18  C   UNL     1      -7.439   3.981  67.785  1.00  0.00    -0.068 A  
HETATM   19  C   UNL     1      -6.683   4.336  66.669  1.00  0.00    -0.051 A  
HETATM   20  C   UNL     1      -7.195   5.236  65.737  1.00  0.00    -0.069 A  
HETATM   21  C   UNL     1      -8.481   5.745  65.892  1.00  0.00    -0.139 A  
HETATM   22  C   UNL     1      -9.242   5.391  67.007  1.00  0.00    -0.113 A  
ENDBRANCH  16  17
ENDBRANCH  13  16
ENDBRANCH  12  13
ENDBRANCH  11  12
ENDBRANCH  10  11
ENDBRANCH   9  10
ENDBRANCH   8   9
ENDBRANCH   7   8
ENDBRANCH   6   7
ENDBRANCH   5   6
ENDBRANCH   4   5
ENDBRANCH   3   4
ENDBRANCH   2   3
TORSDOF 13
ENDMDL
MODEL      393
REMARK 921   NORMALIZED FREE ENERGY PREDICTED BY IDOCK:   -2.17 KCAL/MOL
REMARK 922        TOTAL FREE ENERGY PREDICTED BY IDOCK:   -5.29 KCAL/MOL
REMARK 923 INTER-LIGAND FREE ENERGY PREDICTED BY IDOCK:   -4.38 KCAL/MOL
REMARK 924 INTRA-LIGAND FREE ENERGY PREDICTED BY IDOCK:   -0.91 KCAL/MOL
REMARK 927      BINDING AFFINITY PREDICTED BY RF-SCORE:    0.00 PKD
ROOT
HETATM    1  C   UNL     1     -12.100  12.816  63.231  1.00  0.00    -0.524 C  
HETATM    2  C   UNL     1     -11.005  11.798  63.506  1.00  0.00    -0.499 C  
ENDROOT
BRANCH   2   3
HETATM    3  C   UNL     1     -10.288  12.107  64.818  1.00  0.00    -0.320 C  
BRANCH   3   4
HETATM    4  C   UNL     1     -10.500  10.991  65.836  1.00  0.00    -0.300 C  
BRANCH   4   5
HETATM    5  C   UNL     1     -11.164  11.535  67.098  1.00  0.00    -0.365 C  
BRANCH   5   6
HETATM    6  C   UNL     1     -10.270  11.319  68.312  1.00  0.00    -0.198 C  
BRANCH   6   7
HETATM    7  C   UNL     1     -11.030  10.629  69.440  1.00  0.00    -0.304 C  
BRANCH   7   8
HETATM    8  C   UNL     1     -11.117   9.133  69.167  1.00  0.00     0.036 C  
BRANCH   8   9
HETATM    9  C   UNL     1     -11.007   8.317  70.450  1.00  0.00    -0.244 C  
BRANCH   9  10
HETATM   10  C   UNL     1     -10.516   9.152  71.633  1.00  0.00    -0.403 C  
BRANCH  10  11
HETATM   11  C   UNL     1      -9.217   8.658  72.280  1.00  0.00    -0.297 C  
BRANCH  11  12
HETATM   12  C   UNL     1      -8.635   7.421  71.585  1.00  0.00    -0.116 C  
BRANCH  12  13
HETATM   13  N   UNL     1      -7.155   7.158  71.927  1.00  0.00    -0.071 N  
HETATM   14  C   UNL     1      -6.311   8.396  71.653  1.00  0.00    -0.055 C  
HETATM   15  C   UNL     1      -7.003   6.756  73.390  1.00  0.00    -0.075 C  
BRANCH  13  16
HETATM   16  C   UNL     1      -6.680   5.973  71.018  1.00  0.00    -0.061 C  
BRANCH  16  17
HETATM   17  C   UNL     1      -7.319   5.919  69.652  1.00  0.00    -0.075 A  
HETATM   18  C   UNL     1      -6.931   6.819  68.646  1.00  0.00    -0.080 A  
HETATM   19  C   UNL     1      -7.659   6.908  67.461  1.00  0.00    -0.109 A  
HETATM   20  C   UNL     1      -8.763   6.083  67.257  1.00  0.00    -0.105 A  
HETATM   21  C   UNL     1      -9.111   5.134  68.215  1.00  0.00    -0.128 A  
HETATM   22  C   UNL     1      -8.384   5.040  69.401  1.00  0.00    -0.085 A  
ENDBRANCH  16  17
ENDBRANCH  13  16
ENDBRANCH  12  13
ENDBRANCH  11  12
ENDBRANCH  10  11
ENDBRANCH   9  10
ENDBRANCH   8   9
ENDBRANCH   7   8
ENDBRANCH   6   7
ENDBRANCH   5   6
ENDBRANCH   4   5
ENDBRANCH   3   4
ENDBRANCH   2   3
TORSDOF 13
ENDMDL
MODEL      394
REMARK 921   NORMALIZED FREE ENERGY PREDICTED BY IDOCK:   -2.13 KCAL/MOL
REMARK 922        TOTAL FREE ENERGY PREDICTED BY IDOCK:   -5.23 KCAL/MOL
REMARK 923 INTER-LIGAND FREE ENERGY PREDICTED BY IDOCK:   -4.57 KCAL/MOL
REMARK 924 INTRA-LIGAND FREE ENERGY PREDICTED BY IDOCK:   -0.66 KCAL/MOL
REMARK 927      BINDING AFFINITY PREDICTED BY RF-SCORE:    0.00 PKD
ROOT
HETATM    1  C   UNL     1     -10.073   5.753  69.382  1.00  0.00    -0.277 C  
HETATM    2  C   UNL     1      -9.093   6.328  70.391  1.00  0.00    -0.157 C  
ENDROOT
BRANCH   2   3
HETATM    3  C   UNL     1      -8.668   7.741  69.998  1.00  0.00    -0.141 C  
BRANCH   3   4
HETATM    4  C   UNL     1      -9.828   8.722  70.136  1.00  0.00    -0.192 C  
BRANCH   4   5
HETATM    5  C   UNL     1      -9.832   9.714  68.976  1.00  0.00    -0.183 C  
BRANCH   5   6
HETATM    6  C   UNL     1     -11.017   9.460  68.054  1.00  0.00    -0.119 C  
BRANCH   6   7
HETATM    7  C   UNL     1     -11.035  10.450  66.894  1.00  0.00    -0.167 C  
BRANCH   7   8
HETATM    8  C   UNL     1     -11.528  11.807  67.378  1.00  0.00    -0.375 C  
BRANCH   8   9
HETATM    9  C   UNL     1     -10.575  12.930  66.981  1.00  0.00    -0.261 C  
BRANCH   9  10
HETATM   10  C   UNL     1      -9.304  12.406  66.311  1.00  0.00    -0.189 C  
BRANCH  10  11
HETATM   11  C   UNL     1      -8.012  12.632  67.106  1.00  0.00    -0.123 C  
BRANCH  11  12
HETATM   12  C   UNL     1      -8.265  13.178  68.517  1.00  0.00    -0.076 C  
BRANCH  12  13
HETATM   13  N   UNL     1      -7.384  14.389  68.878  1.00  0.00    -0.124 N  
HETATM   14  C   UNL     1      -6.491  14.068  70.071  1.00  0.00    -0.080 C  
HETATM   15  C   UNL     1      -6.517  14.799  67.693  1.00  0.00    -0.139 C  
BRANCH  13  16
HETATM   16  C   UNL     1      -8.353  15.568  69.237  1.00  0.00    -0.257 C  
BRANCH  16  17
HETATM   17  C   UNL     1      -7.852  16.942  68.869  1.00  0.00    -0.233 A  
HETATM   18  C   UNL     1      -6.595  17.386  69.311  1.00  0.00    -0.240 A  
HETATM   19  C   UNL     1      -6.222  18.720  69.152  1.00  0.00    -0.271 A  
HETATM   20  C   UNL     1      -7.087  19.615  68.526  1.00  0.00    -0.356 A  
HETATM   21  C   UNL     1      -8.302  19.170  68.015  1.00  0.00    -0.340 A  
HETATM   22  C   UNL     1      -8.679  17.836  68.170  1.00  0.00    -0.266 A  
ENDBRANCH  16  17
ENDBRANCH  13  16
ENDBRANCH  12  13
ENDBRANCH  11  12
ENDBRANCH  10  11
ENDBRANCH   9  10
ENDBRANCH   8   9
ENDBRANCH   7   8
ENDBRANCH   6   7
ENDBRANCH   5   6
ENDBRANCH   4   5
ENDBRANCH   3   4
ENDBRANCH   2   3
TORSDOF 13
ENDMDL
MODEL      395
REMARK 921   NORMALIZED FREE ENERGY PREDICTED BY IDOCK:   -2.12 KCAL/MOL
REMARK 922        TOTAL FREE ENERGY PREDICTED BY IDOCK:   -5.21 KCAL/MOL
REMARK 923 INTER-LIGAND FREE ENERGY PREDICTED BY IDOCK:   -4.29 KCAL/MOL
REMARK 924 INTRA-LIGAND FREE ENERGY PREDICTED BY IDOCK:   -0.92 KCAL/MOL
REMARK 927      BINDING AFFINITY PREDICTED BY RF-SCORE:    0.00 PKD
ROOT
HETATM    1  C   UNL     1      -9.126   2.539  71.113  1.00  0.00    -0.179 C  
HETATM    2  C   UNL     1      -7.658   2.489  70.724  1.00  0.00    -0.036 C  
ENDROOT
BRANCH   2   3
HETATM    3  C   UNL     1      -7.351   3.492  69.614  1.00  0.00    -0.045 C  
BRANCH   3   4
HETATM    4  C   UNL     1      -7.436   4.925  70.129  1.00  0.00    -0.059 C  
BRANCH   4   5
HETATM    5  C   UNL     1      -7.965   5.856  69.042  1.00  0.00    -0.099 C  
BRANCH   5   6
HETATM    6  C   UNL     1      -7.481   7.281  69.271  1.00  0.00    -0.096 C  
BRANCH   6   7
HETATM    7  C   UNL     1      -8.231   8.267  68.381  1.00  0.00    -0.132 C  
BRANCH   7   8
HETATM    8  C   UNL     1      -9.676   7.817  68.212  1.00  0.00    -0.169 C  
BRANCH   8   9
HETATM    9  C   UNL     1     -10.660   8.907  68.627  1.00  0.00    -0.182 C  
BRANCH   9  10
HETATM   10  C   UNL     1      -9.967  10.090  69.305  1.00  0.00    -0.226 C  
BRANCH  10  11
HETATM   11  C   UNL     1     -10.363  11.469  68.764  1.00  0.00    -0.213 C  
BRANCH  11  12
HETATM   12  C   UNL     1     -11.419  11.396  67.653  1.00  0.00    -0.273 C  
BRANCH  12  13
HETATM   13  N   UNL     1     -11.374  12.588  66.678  1.00  0.00    -0.314 N  
HETATM   14  C   UNL     1     -12.261  12.326  65.467  1.00  0.00    -0.168 C  
HETATM   15  C   UNL     1     -11.830  13.868  67.370  1.00  0.00    -0.402 C  
BRANCH  13  16
HETATM   16  C   UNL     1      -9.883  12.752  66.225  1.00  0.00    -0.267 C  
BRANCH  16  17
HETATM   17  C   UNL     1      -9.431  11.793  65.152  1.00  0.00    -0.109 A  
HETATM   18  C   UNL     1      -9.812  11.987  63.814  1.00  0.00    -0.294 A  
HETATM   19  C   UNL     1      -9.574  10.997  62.863  1.00  0.00    -0.369 A  
HETATM   20  C   UNL     1      -8.929   9.818  63.230  1.00  0.00    -0.274 A  
HETATM   21  C   UNL     1      -8.478   9.647  64.536  1.00  0.00    -0.186 A  
HETATM   22  C   UNL     1      -8.713  10.636  65.491  1.00  0.00    -0.199 A  
ENDBRANCH  16  17
ENDBRANCH  13  16
ENDBRANCH  12  13
ENDBRANCH  11  12
ENDBRANCH  10  11
ENDBRANCH   9  10
ENDBRANCH   8   9
ENDBRANCH   7   8
ENDBRANCH   6   7
ENDBRANCH   5   6
ENDBRANCH   4   5
ENDBRANCH   3   4
ENDBRANCH   2   3
TORSDOF 13
ENDMDL
MODEL      396
REMARK 921   NORMALIZED FREE ENERGY PREDICTED BY IDOCK:   -2.09 KCAL/MOL
REMARK 922        TOTAL FREE ENERGY PREDICTED BY IDOCK:   -5.15 KCAL/MOL
REMARK 923 INTER-LIGAND FREE ENERGY PREDICTED BY IDOCK:   -3.71 KCAL/MOL
REMARK 924 INTRA-LIGAND FREE ENERGY PREDICTED BY IDOCK:   -1.44 KCAL/MOL
REMARK 927      BINDING AFFINITY PREDICTED BY RF-SCORE:    0.00 PKD
ROOT
HETATM    1  C   UNL     1      -9.288   5.765  68.273  1.00  0.00    -0.123 C  
HETATM    2  C   UNL     1     -10.402   6.662  68.785  1.00  0.00    -0.214 C  
ENDROOT
BRANCH   2   3
HETATM    3  C   UNL     1     -10.009   7.326  70.102  1.00  0.00    -0.184 C  
BRANCH   3   4
HETATM    4  C   UNL     1     -10.066   8.847  69.990  1.00  0.00    -0.207 C  
BRANCH   4   5
HETATM    5  C   UNL     1      -8.658   9.434  69.937  1.00  0.00    -0.201 C  
BRANCH   5   6
HETATM    6  C   UNL     1      -8.675  10.815  69.296  1.00  0.00    -0.044 C  
BRANCH   6   7
HETATM    7  C   UNL     1     -10.091  11.222  68.901  1.00  0.00    -0.185 C  
BRANCH   7   8
HETATM    8  C   UNL     1     -10.164  12.732  68.717  1.00  0.00    -0.094 C  
BRANCH   8   9
HETATM    9  C   UNL     1      -9.011  13.254  67.866  1.00  0.00    -0.199 C  
BRANCH   9  10
HETATM   10  C   UNL     1      -9.473  14.265  66.815  1.00  0.00    -0.287 C  
BRANCH  10  11
HETATM   11  C   UNL     1     -10.990  14.336  66.609  1.00  0.00    -0.310 C  
BRANCH  11  12
HETATM   12  C   UNL     1     -11.574  13.052  66.006  1.00  0.00    -0.365 C  
BRANCH  12  13
HETATM   13  N   UNL     1     -11.759  13.115  64.477  1.00  0.00    -0.352 N  
HETATM   14  C   UNL     1     -12.867  12.170  64.031  1.00  0.00    -0.272 C  
HETATM   15  C   UNL     1     -12.094  14.534  64.032  1.00  0.00    -0.240 C  
BRANCH  13  16
HETATM   16  C   UNL     1     -10.396  12.684  63.835  1.00  0.00    -0.377 C  
BRANCH  16  17
HETATM   17  C   UNL     1      -9.733  11.492  64.480  1.00  0.00    -0.236 A  
HETATM   18  C   UNL     1     -10.497  10.385  64.889  1.00  0.00    -0.116 A  
HETATM   19  C   UNL     1      -9.922   9.382  65.667  1.00  0.00    -0.210 A  
HETATM   20  C   UNL     1      -8.577   9.458  66.020  1.00  0.00    -0.154 A  
HETATM   21  C   UNL     1      -7.792  10.510  65.557  1.00  0.00    -0.138 A  
HETATM   22  C   UNL     1      -8.362  11.516  64.776  1.00  0.00     0.798 A  
ENDBRANCH  16  17
ENDBRANCH  13  16
ENDBRANCH  12  13
ENDBRANCH  11  12
ENDBRANCH  10  11
ENDBRANCH   9  10
ENDBRANCH   8   9
ENDBRANCH   7   8
ENDBRANCH   6   7
ENDBRANCH   5   6
ENDBRANCH   4   5
ENDBRANCH   3   4
ENDBRANCH   2   3
TORSDOF 13
ENDMDL
MODEL      397
REMARK 921   NORMALIZED FREE ENERGY PREDICTED BY IDOCK:   -2.08 KCAL/MOL
REMARK 922        TOTAL FREE ENERGY PREDICTED BY IDOCK:   -5.14 KCAL/MOL
REMARK 923 INTER-LIGAND FREE ENERGY PREDICTED BY IDOCK:   -5.02 KCAL/MOL
REMARK 924 INTRA-LIGAND FREE ENERGY PREDICTED BY IDOCK:   -0.12 KCAL/MOL
REMARK 927      BINDING AFFINITY PREDICTED BY RF-SCORE:    0.00 PKD
ROOT
HETATM    1  C   UNL     1      -7.319   8.933  72.336  1.00  0.00     0.169 C  
HETATM    2  C   UNL     1      -7.180   8.011  71.137  1.00  0.00    -0.056 C  
ENDROOT
BRANCH   2   3
HETATM    3  C   UNL     1      -7.792   6.642  71.424  1.00  0.00    -0.099 C  
BRANCH   3   4
HETATM    4  C   UNL     1      -9.233   6.774  71.906  1.00  0.00    -0.142 C  
BRANCH   4   5
HETATM    5  C   UNL     1     -10.165   5.919  71.052  1.00  0.00    -0.266 C  
BRANCH   5   6
HETATM    6  C   UNL     1     -10.754   6.739  69.912  1.00  0.00    -0.290 C  
BRANCH   6   7
HETATM    7  C   UNL     1     -10.733   8.229  70.238  1.00  0.00    -0.237 C  
BRANCH   7   8
HETATM    8  C   UNL     1     -12.108   8.674  70.719  1.00  0.00    -0.087 C  
BRANCH   8   9
HETATM    9  C   UNL     1     -12.160  10.178  70.969  1.00  0.00    -0.476 C  
BRANCH   9  10
HETATM   10  C   UNL     1     -12.565  10.963  69.721  1.00  0.00    -0.150 C  
BRANCH  10  11
HETATM   11  C   UNL     1     -12.305  12.472  69.793  1.00  0.00    -0.085 C  
BRANCH  11  12
HETATM   12  C   UNL     1     -11.186  12.933  68.850  1.00  0.00    -0.279 C  
BRANCH  12  13
HETATM   13  N   UNL     1     -11.254  14.431  68.494  1.00  0.00    -0.253 N  
HETATM   14  C   UNL     1     -12.055  15.196  69.540  1.00  0.00    -0.283 C  
HETATM   15  C   UNL     1      -9.854  15.026  68.394  1.00  0.00    -0.222 C  
BRANCH  13  16
HETATM   16  C   UNL     1     -11.957  14.536  67.098  1.00  0.00    -0.345 C  
BRANCH  16  17
HETATM   17  C   UNL     1     -11.499  13.529  66.073  1.00  0.00    -0.345 A  
HETATM   18  C   UNL     1     -11.588  12.152  66.335  1.00  0.00    -0.429 A  
HETATM   19  C   UNL     1     -10.977  11.231  65.485  1.00  0.00    -0.199 A  
HETATM   20  C   UNL     1     -10.298  11.673  64.352  1.00  0.00    -0.362 A  
HETATM   21  C   UNL     1     -10.269  13.029  64.040  1.00  0.00    -0.166 A  
HETATM   22  C   UNL     1     -10.880  13.954  64.887  1.00  0.00    -0.413 A  
ENDBRANCH  16  17
ENDBRANCH  13  16
ENDBRANCH  12  13
ENDBRANCH  11  12
ENDBRANCH  10  11
ENDBRANCH   9  10
ENDBRANCH   8   9
ENDBRANCH   7   8
ENDBRANCH   6   7
ENDBRANCH   5   6
ENDBRANCH   4   5
ENDBRANCH   3   4
ENDBRANCH   2   3
TORSDOF 13
ENDMDL
MODEL      398
REMARK 921   NORMALIZED FREE ENERGY PREDICTED BY IDOCK:   -2.03 KCAL/MOL
REMARK 922        TOTAL FREE ENERGY PREDICTED BY IDOCK:   -5.04 KCAL/MOL
REMARK 923 INTER-LIGAND FREE ENERGY PREDICTED BY IDOCK:   -4.53 KCAL/MOL
REMARK 924 INTRA-LIGAND FREE ENERGY PREDICTED BY IDOCK:   -0.51 KCAL/MOL
REMARK 927      BINDING AFFINITY PREDICTED BY RF-SCORE:    0.00 PKD
ROOT
HETATM    1  C   UNL     1     -11.548  15.272  70.772  1.00  0.00    -0.371 C  
HETATM    2  C   UNL     1     -11.300  14.308  69.624  1.00  0.00    -0.292 C  
ENDROOT
BRANCH   2   3
HETATM    3  C   UNL     1     -10.953  15.060  68.342  1.00  0.00    -0.266 C  
BRANCH   3   4
HETATM    4  C   UNL     1     -10.484  14.102  67.251  1.00  0.00    -0.272 C  
BRANCH   4   5
HETATM    5  C   UNL     1     -11.595  13.123  66.883  1.00  0.00    -0.417 C  
BRANCH   5   6
HETATM    6  C   UNL     1     -11.532  12.770  65.403  1.00  0.00    -0.363 C  
BRANCH   6   7
HETATM    7  C   UNL     1     -11.035  11.343  65.198  1.00  0.00    -0.259 C  
BRANCH   7   8
HETATM    8  C   UNL     1     -10.995  10.612  66.533  1.00  0.00    -0.098 C  
BRANCH   8   9
HETATM    9  C   UNL     1     -10.034   9.428  66.501  1.00  0.00    -0.339 C  
BRANCH   9  10
HETATM   10  C   UNL     1      -8.735   9.751  65.760  1.00  0.00    -0.160 C  
BRANCH  10  11
HETATM   11  C   UNL     1      -7.517   8.932  66.202  1.00  0.00    -0.090 C  
BRANCH  11  12
HETATM   12  C   UNL     1      -7.558   8.551  67.687  1.00  0.00    -0.098 C  
BRANCH  12  13
HETATM   13  N   UNL     1      -6.736   7.292  68.026  1.00  0.00    -0.056 N  
HETATM   14  C   UNL     1      -5.456   7.247  67.200  1.00  0.00    -0.025 C  
HETATM   15  C   UNL     1      -6.383   7.260  69.508  1.00  0.00    -0.035 C  
BRANCH  13  16
HETATM   16  C   UNL     1      -7.635   6.054  67.686  1.00  0.00    -0.090 C  
BRANCH  16  17
HETATM   17  C   UNL     1      -8.818   5.852  68.600  1.00  0.00    -0.111 A  
HETATM   18  C   UNL     1      -9.792   6.855  68.740  1.00  0.00    -0.149 A  
HETATM   19  C   UNL     1     -10.765   6.759  69.734  1.00  0.00    -0.288 A  
HETATM   20  C   UNL     1     -10.793   5.651  70.577  1.00  0.00    -0.315 A  
HETATM   21  C   UNL     1      -9.880   4.615  70.398  1.00  0.00    -0.306 A  
HETATM   22  C   UNL     1      -8.906   4.706  69.404  1.00  0.00    -0.124 A  
ENDBRANCH  16  17
ENDBRANCH  13  16
ENDBRANCH  12  13
ENDBRANCH  11  12
ENDBRANCH  10  11
ENDBRANCH   9  10
ENDBRANCH   8   9
ENDBRANCH   7   8
ENDBRANCH   6   7
ENDBRANCH   5   6
ENDBRANCH   4   5
ENDBRANCH   3   4
ENDBRANCH   2   3
TORSDOF 13
ENDMDL
MODEL      399
REMARK 921   NORMALIZED FREE ENERGY PREDICTED BY IDOCK:   -2.00 KCAL/MOL
REMARK 922        TOTAL FREE ENERGY PREDICTED BY IDOCK:   -5.00 KCAL/MOL
REMARK 923 INTER-LIGAND FREE ENERGY PREDICTED BY IDOCK:   -3.83 KCAL/MOL
REMARK 924 INTRA-LIGAND FREE ENERGY PREDICTED BY IDOCK:   -1.16 KCAL/MOL
REMARK 927      BINDING AFFINITY PREDICTED BY RF-SCORE:    0.00 PKD
ROOT
HETATM    1  C   UNL     1     -12.306  12.677  63.353  1.00  0.00    -0.553 C  
HETATM    2  C   UNL     1     -11.052  11.824  63.269  1.00  0.00    -0.370 C  
ENDROOT
BRANCH   2   3
HETATM    3  C   UNL     1     -10.337  11.766  64.617  1.00  0.00    -0.336 C  
BRANCH   3   4
HETATM    4  C   UNL     1     -10.030  10.326  65.016  1.00  0.00    -0.393 C  
BRANCH   4   5
HETATM    5  C   UNL     1     -10.673   9.992  66.359  1.00  0.00    -0.063 C  
BRANCH   5   6
HETATM    6  C   UNL     1      -9.609   9.657  67.396  1.00  0.00    -0.183 C  
BRANCH   6   7
HETATM    7  C   UNL     1      -9.980   8.402  68.179  1.00  0.00    -0.224 C  
BRANCH   7   8
HETATM    8  C   UNL     1      -9.891   7.181  67.273  1.00  0.00    -0.217 C  
BRANCH   8   9
HETATM    9  C   UNL     1      -9.627   5.905  68.067  1.00  0.00    -0.122 C  
BRANCH   9  10
HETATM   10  C   UNL     1     -10.749   5.593  69.058  1.00  0.00    -0.307 C  
BRANCH  10  11
HETATM   11  C   UNL     1     -10.284   5.030  70.407  1.00  0.00    -0.324 C  
BRANCH  11  12
HETATM   12  C   UNL     1      -8.986   5.675  70.908  1.00  0.00    -0.140 C  
BRANCH  12  13
HETATM   13  N   UNL     1      -8.089   4.714  71.712  1.00  0.00    -0.101 N  
HETATM   14  C   UNL     1      -8.506   4.688  73.178  1.00  0.00    -0.103 C  
HETATM   15  C   UNL     1      -8.162   3.303  71.141  1.00  0.00    -0.062 C  
BRANCH  13  16
HETATM   16  C   UNL     1      -6.620   5.245  71.583  1.00  0.00    -0.040 C  
BRANCH  16  17
HETATM   17  C   UNL     1      -6.495   6.672  71.108  1.00  0.00    -0.049 A  
HETATM   18  C   UNL     1      -6.687   7.740  72.000  1.00  0.00    -0.057 A  
HETATM   19  C   UNL     1      -6.779   9.047  71.525  1.00  0.00    -0.058 A  
HETATM   20  C   UNL     1      -6.652   9.303  70.161  1.00  0.00    -0.052 A  
HETATM   21  C   UNL     1      -6.386   8.261  69.277  1.00  0.00    -0.039 A  
HETATM   22  C   UNL     1      -6.291   6.952  69.749  1.00  0.00    -0.039 A  
ENDBRANCH  16  17
ENDBRANCH  13  16
ENDBRANCH  12  13
ENDBRANCH  11  12
ENDBRANCH  10  11
ENDBRANCH   9  10
ENDBRANCH   8   9
ENDBRANCH   7   8
ENDBRANCH   6   7
ENDBRANCH   5   6
ENDBRANCH   4   5
ENDBRANCH   3   4
ENDBRANCH   2   3
TORSDOF 13
ENDMDL
MODEL      400
REMARK 921   NORMALIZED FREE ENERGY PREDICTED BY IDOCK:   -1.93 KCAL/MOL
REMARK 922        TOTAL FREE ENERGY PREDICTED BY IDOCK:   -4.86 KCAL/MOL
REMARK 923 INTER-LIGAND FREE ENERGY PREDICTED BY IDOCK:   -4.76 KCAL/MOL
REMARK 924 INTRA-LIGAND FREE ENERGY PREDICTED BY IDOCK:   -0.11 KCAL/MOL
REMARK 927      BINDING AFFINITY PREDICTED BY RF-SCORE:    0.00 PKD
ROOT
HETATM    1  C   UNL     1      -9.058   5.855  69.874  1.00  0.00    -0.156 C  
HETATM    2  C   UNL     1      -9.841   7.029  70.436  1.00  0.00    -0.184 C  
ENDROOT
BRANCH   2   3
HETATM    3  C   UNL     1      -8.951   7.916  71.303  1.00  0.00    -0.155 C  
BRANCH   3   4
HETATM    4  C   UNL     1      -8.575   9.201  70.571  1.00  0.00    -0.252 C  
BRANCH   4   5
HETATM    5  C   UNL     1      -7.129   9.139  70.086  1.00  0.00    -0.059 C  
BRANCH   5   6
HETATM    6  C   UNL     1      -6.971   9.884  68.768  1.00  0.00    -0.062 C  
BRANCH   6   7
HETATM    7  C   UNL     1      -8.325  10.150  68.119  1.00  0.00    -0.117 C  
BRANCH   7   8
HETATM    8  C   UNL     1      -8.466  11.634  67.805  1.00  0.00    -0.144 C  
BRANCH   8   9
HETATM    9  C   UNL     1      -7.567  12.488  68.693  1.00  0.00    -0.080 C  
BRANCH   9  10
HETATM   10  C   UNL     1      -6.623  13.378  67.883  1.00  0.00    -0.149 C  
BRANCH  10  11
HETATM   11  C   UNL     1      -6.521  14.827  68.373  1.00  0.00    -0.103 C  
BRANCH  11  12
HETATM   12  C   UNL     1      -7.831  15.350  68.974  1.00  0.00    -0.194 C  
BRANCH  12  13
HETATM   13  N   UNL     1      -8.554  16.378  68.082  1.00  0.00    -0.188 N  
HETATM   14  C   UNL     1      -9.908  16.747  68.675  1.00  0.00    -0.261 C  
HETATM   15  C   UNL     1      -7.713  17.639  67.920  1.00  0.00    -0.216 C  
BRANCH  13  16
HETATM   16  C   UNL     1      -8.749  15.707  66.679  1.00  0.00    -0.298 C  
BRANCH  16  17
HETATM   17  C   UNL     1     -10.002  14.879  66.534  1.00  0.00    -0.277 A  
HETATM   18  C   UNL     1     -10.415  14.426  65.270  1.00  0.00    -0.410 A  
HETATM   19  C   UNL     1     -11.672  13.845  65.107  1.00  0.00    -0.357 A  
HETATM   20  C   UNL     1     -12.514  13.685  66.204  1.00  0.00    -0.449 A  
HETATM   21  C   UNL     1     -12.085  14.061  67.474  1.00  0.00    -0.361 A  
HETATM   22  C   UNL     1     -10.827  14.641  67.643  1.00  0.00    -0.284 A  
ENDBRANCH  16  17
ENDBRANCH  13  16
ENDBRANCH  12  13
ENDBRANCH  11  12
ENDBRANCH  10  11
ENDBRANCH   9  10
ENDBRANCH   8   9
ENDBRANCH   7   8
ENDBRANCH   6   7
ENDBRANCH   5   6
ENDBRANCH   4   5
ENDBRANCH   3   4
ENDBRANCH   2   3
TORSDOF 13
ENDMDL
MODEL      401
REMARK 921   NORMALIZED FREE ENERGY PREDICTED BY IDOCK:   -1.92 KCAL/MOL
REMARK 922        TOTAL FREE ENERGY PREDICTED BY IDOCK:   -4.85 KCAL/MOL
REMARK 923 INTER-LIGAND FREE ENERGY PREDICTED BY IDOCK:   -4.12 KCAL/MOL
REMARK 924 INTRA-LIGAND FREE ENERGY PREDICTED BY IDOCK:   -0.74 KCAL/MOL
REMARK 927      BINDING AFFINITY PREDICTED BY RF-SCORE:    0.00 PKD
ROOT
HETATM    1  C   UNL     1     -11.570   6.153  70.569  1.00  0.00    -0.261 C  
HETATM    2  C   UNL     1     -10.134   6.423  70.985  1.00  0.00    -0.212 C  
ENDROOT
BRANCH   2   3
HETATM    3  C   UNL     1     -10.009   7.778  71.676  1.00  0.00    -0.213 C  
BRANCH   3   4
HETATM    4  C   UNL     1     -11.349   8.508  71.701  1.00  0.00    -0.362 C  
BRANCH   4   5
HETATM    5  C   UNL     1     -11.183   9.952  71.236  1.00  0.00    -0.356 C  
BRANCH   5   6
HETATM    6  C   UNL     1      -9.920  10.105  70.398  1.00  0.00     0.015 C  
BRANCH   6   7
HETATM    7  C   UNL     1     -10.032  11.291  69.446  1.00  0.00     0.134 C  
BRANCH   7   8
HETATM    8  C   UNL     1     -10.434  10.805  68.059  1.00  0.00    -0.225 C  
BRANCH   8   9
HETATM    9  C   UNL     1     -11.655  11.551  67.530  1.00  0.00    -0.322 C  
BRANCH   9  10
HETATM   10  C   UNL     1     -11.617  11.728  66.012  1.00  0.00    -0.206 C  
BRANCH  10  11
HETATM   11  C   UNL     1     -12.630  12.734  65.452  1.00  0.00    -0.387 C  
BRANCH  11  12
HETATM   12  C   UNL     1     -12.040  13.634  64.360  1.00  0.00    -0.427 C  
BRANCH  12  13
HETATM   13  N   UNL     1     -11.204  14.807  64.910  1.00  0.00    -0.393 N  
HETATM   14  C   UNL     1      -9.715  14.528  64.749  1.00  0.00     0.556 C  
HETATM   15  C   UNL     1     -11.556  16.104  64.191  1.00  0.00     0.078 C  
BRANCH  13  16
HETATM   16  C   UNL     1     -11.562  14.949  66.429  1.00  0.00    -0.238 C  
BRANCH  16  17
HETATM   17  C   UNL     1     -10.412  15.345  67.323  1.00  0.00    -0.282 A  
HETATM   18  C   UNL     1      -9.909  14.446  68.278  1.00  0.00    -0.229 A  
HETATM   19  C   UNL     1      -8.996  14.878  69.239  1.00  0.00    -0.099 A  
HETATM   20  C   UNL     1      -8.556  16.200  69.238  1.00  0.00    -0.191 A  
HETATM   21  C   UNL     1      -8.989  17.079  68.250  1.00  0.00    -0.242 A  
HETATM   22  C   UNL     1      -9.901  16.651  67.285  1.00  0.00    -0.255 A  
ENDBRANCH  16  17
ENDBRANCH  13  16
ENDBRANCH  12  13
ENDBRANCH  11  12
ENDBRANCH  10  11
ENDBRANCH   9  10
ENDBRANCH   8   9
ENDBRANCH   7   8
ENDBRANCH   6   7
ENDBRANCH   5   6
ENDBRANCH   4   5
ENDBRANCH   3   4
ENDBRANCH   2   3
TORSDOF 13
ENDMDL
MODEL      402
REMARK 921   NORMALIZED FREE ENERGY PREDICTED BY IDOCK:   -1.75 KCAL/MOL
REMARK 922        TOTAL FREE ENERGY PREDICTED BY IDOCK:   -4.55 KCAL/MOL
REMARK 923 INTER-LIGAND FREE ENERGY PREDICTED BY IDOCK:   -3.14 KCAL/MOL
REMARK 924 INTRA-LIGAND FREE ENERGY PREDICTED BY IDOCK:   -1.41 KCAL/MOL
REMARK 927      BINDING AFFINITY PREDICTED BY RF-SCORE:    0.00 PKD
ROOT
HETATM    1  C   UNL     1      -6.599  15.923  68.034  1.00  0.00    -0.143 C  
HETATM    2  C   UNL     1      -6.341  17.403  68.263  1.00  0.00    -0.170 C  
ENDROOT
BRANCH   2   3
HETATM    3  C   UNL     1      -6.794  18.230  67.063  1.00  0.00    -0.206 C  
BRANCH   3   4
HETATM    4  C   UNL     1      -6.749  19.722  67.375  1.00  0.00    -0.238 C  
BRANCH   4   5
HETATM    5  C   UNL     1      -8.081  20.383  67.032  1.00  0.00    -0.351 C  
BRANCH   5   6
HETATM    6  C   UNL     1      -9.073  19.353  66.506  1.00  0.00    -0.397 C  
BRANCH   6   7
HETATM    7  C   UNL     1     -10.207  19.124  67.500  1.00  0.00    -0.493 C  
BRANCH   7   8
HETATM    8  C   UNL     1      -9.666  18.465  68.762  1.00  0.00    -0.369 C  
BRANCH   8   9
HETATM    9  C   UNL     1     -10.156  17.028  68.905  1.00  0.00    -0.307 C  
BRANCH   9  10
HETATM   10  C   UNL     1     -11.683  16.934  68.939  1.00  0.00     0.664 C  
BRANCH  10  11
HETATM   11  C   UNL     1     -12.277  16.540  70.296  1.00  0.00     1.038 C  
BRANCH  11  12
HETATM   12  C   UNL     1     -13.017  15.198  70.259  1.00  0.00    -0.183 C  
BRANCH  12  13
HETATM   13  N   UNL     1     -12.295  14.071  71.024  1.00  0.00    -0.352 N  
HETATM   14  C   UNL     1     -11.028  14.598  71.687  1.00  0.00     0.860 C  
HETATM   15  C   UNL     1     -13.207  13.468  72.085  1.00  0.00    -0.458 C  
BRANCH  13  16
HETATM   16  C   UNL     1     -11.930  12.968  69.973  1.00  0.00    -0.312 C  
BRANCH  16  17
HETATM   17  C   UNL     1     -11.261  13.474  68.719  1.00  0.00    -0.311 A  
HETATM   18  C   UNL     1     -12.029  13.901  67.623  1.00  0.00    -0.403 A  
HETATM   19  C   UNL     1     -11.421  14.168  66.398  1.00  0.00    -0.362 A  
HETATM   20  C   UNL     1     -10.040  14.041  66.262  1.00  0.00    -0.307 A  
HETATM   21  C   UNL     1      -9.260  13.693  67.362  1.00  0.00    -0.222 A  
HETATM   22  C   UNL     1      -9.865  13.426  68.590  1.00  0.00    -0.116 A  
ENDBRANCH  16  17
ENDBRANCH  13  16
ENDBRANCH  12  13
ENDBRANCH  11  12
ENDBRANCH  10  11
ENDBRANCH   9  10
ENDBRANCH   8   9
ENDBRANCH   7   8
ENDBRANCH   6   7
ENDBRANCH   5   6
ENDBRANCH   4   5
ENDBRANCH   3   4
ENDBRANCH   2   3
TORSDOF 13
ENDMDL
MODEL      403
REMARK 921   NORMALIZED FREE ENERGY PREDICTED BY IDOCK:   -1.75 KCAL/MOL
REMARK 922        TOTAL FREE ENERGY PREDICTED BY IDOCK:   -4.54 KCAL/MOL
REMARK 923 INTER-LIGAND FREE ENERGY PREDICTED BY IDOCK:   -5.07 KCAL/MOL
REMARK 924 INTRA-LIGAND FREE ENERGY PREDICTED BY IDOCK:    0.53 KCAL/MOL
REMARK 927      BINDING AFFINITY PREDICTED BY RF-SCORE:    0.00 PKD
ROOT
HETATM    1  C   UNL     1      -6.557  19.890  69.642  1.00  0.00    -0.373 C  
HETATM    2  C   UNL     1      -7.068  19.446  68.282  1.00  0.00    -0.319 C  
ENDROOT
BRANCH   2   3
HETATM    3  C   UNL     1      -8.293  18.545  68.425  1.00  0.00    -0.355 C  
BRANCH   3   4
HETATM    4  C   UNL     1      -9.571  19.292  68.058  1.00  0.00    -0.413 C  
BRANCH   4   5
HETATM    5  C   UNL     1     -10.695  18.310  67.742  1.00  0.00    -0.358 C  
BRANCH   5   6
HETATM    6  C   UNL     1     -10.579  17.063  68.608  1.00  0.00    -0.362 C  
BRANCH   6   7
HETATM    7  C   UNL     1     -11.211  15.856  67.923  1.00  0.00    -0.297 C  
BRANCH   7   8
HETATM    8  C   UNL     1     -10.536  15.611  66.580  1.00  0.00    -0.307 C  
BRANCH   8   9
HETATM    9  C   UNL     1      -9.969  14.198  66.481  1.00  0.00    -0.289 C  
BRANCH   9  10
HETATM   10  C   UNL     1     -11.010  13.183  66.007  1.00  0.00    -0.295 C  
BRANCH  10  11
HETATM   11  C   UNL     1     -10.432  11.892  65.416  1.00  0.00    -0.312 C  
BRANCH  11  12
HETATM   12  C   UNL     1      -9.155  11.426  66.126  1.00  0.00    -0.207 C  
BRANCH  12  13
HETATM   13  N   UNL     1      -9.309  10.076  66.853  1.00  0.00    -0.156 N  
HETATM   14  C   UNL     1     -10.234  10.215  68.055  1.00  0.00    -0.173 C  
HETATM   15  C   UNL     1      -9.862   9.015  65.909  1.00  0.00    -0.187 C  
BRANCH  13  16
HETATM   16  C   UNL     1      -7.878   9.647  67.325  1.00  0.00    -0.095 C  
BRANCH  16  17
HETATM   17  C   UNL     1      -7.828   8.387  68.154  1.00  0.00    -0.111 A  
HETATM   18  C   UNL     1      -8.999   7.654  68.410  1.00  0.00    -0.128 A  
HETATM   19  C   UNL     1      -8.992   6.617  69.340  1.00  0.00    -0.133 A  
HETATM   20  C   UNL     1      -7.812   6.282  70.002  1.00  0.00    -0.106 A  
HETATM   21  C   UNL     1      -6.629   6.950  69.700  1.00  0.00    -0.048 A  
HETATM   22  C   UNL     1      -6.632   7.988  68.768  1.00  0.00    -0.049 A  
ENDBRANCH  16  17
ENDBRANCH  13  16
ENDBRANCH  12  13
ENDBRANCH  11  12
ENDBRANCH  10  11
ENDBRANCH   9  10
ENDBRANCH   8   9
ENDBRANCH   7   8
ENDBRANCH   6   7
ENDBRANCH   5   6
ENDBRANCH   4   5
ENDBRANCH   3   4
ENDBRANCH   2   3
TORSDOF 13
ENDMDL
MODEL      404
REMARK 921   NORMALIZED FREE ENERGY PREDICTED BY IDOCK:   -1.52 KCAL/MOL
REMARK 922        TOTAL FREE ENERGY PREDICTED BY IDOCK:   -4.15 KCAL/MOL
REMARK 923 INTER-LIGAND FREE ENERGY PREDICTED BY IDOCK:   -2.88 KCAL/MOL
REMARK 924 INTRA-LIGAND FREE ENERGY PREDICTED BY IDOCK:   -1.27 KCAL/MOL
REMARK 927      BINDING AFFINITY PREDICTED BY RF-SCORE:    0.00 PKD
ROOT
HETATM    1  C   UNL     1      -8.613   7.848  66.754  1.00  0.00    -0.133 C  
HETATM    2  C   UNL     1      -9.929   7.088  66.757  1.00  0.00    -0.266 C  
ENDROOT
BRANCH   2   3
HETATM    3  C   UNL     1      -9.825   5.815  67.592  1.00  0.00    -0.142 C  
BRANCH   3   4
HETATM    4  C   UNL     1      -8.532   5.792  68.401  1.00  0.00    -0.110 C  
BRANCH   4   5
HETATM    5  C   UNL     1      -7.742   4.518  68.116  1.00  0.00    -0.080 C  
BRANCH   5   6
HETATM    6  C   UNL     1      -8.569   3.547  67.285  1.00  0.00    -0.119 C  
BRANCH   6   7
HETATM    7  C   UNL     1      -8.451   2.124  67.821  1.00  0.00    -0.091 C  
BRANCH   7   8
HETATM    8  C   UNL     1      -9.169   2.013  69.160  1.00  0.00    -0.193 C  
BRANCH   8   9
HETATM    9  C   UNL     1      -8.246   1.488  70.255  1.00  0.00    -0.058 C  
BRANCH   9  10
HETATM   10  C   UNL     1      -6.768   1.619  69.885  1.00  0.00    -0.029 C  
BRANCH  10  11
HETATM   11  C   UNL     1      -5.938   2.492  70.833  1.00  0.00    -0.018 C  
BRANCH  11  12
HETATM   12  C   UNL     1      -6.725   2.953  72.066  1.00  0.00    -0.015 C  
BRANCH  12  13
HETATM   13  N   UNL     1      -7.048   4.460  72.066  1.00  0.00    -0.057 N  
HETATM   14  C   UNL     1      -6.798   5.063  73.443  1.00  0.00    -0.074 C  
HETATM   15  C   UNL     1      -6.203   5.193  71.032  1.00  0.00    -0.023 C  
BRANCH  13  16
HETATM   16  C   UNL     1      -8.562   4.601  71.686  1.00  0.00    -0.117 C  
BRANCH  16  17
HETATM   17  C   UNL     1      -9.243   5.837  72.221  1.00  0.00    -0.151 A  
HETATM   18  C   UNL     1     -10.231   5.734  73.214  1.00  0.00    -0.217 A  
HETATM   19  C   UNL     1     -11.004   6.842  73.556  1.00  0.00    -0.153 A  
HETATM   20  C   UNL     1     -10.780   8.068  72.933  1.00  0.00    -0.403 A  
HETATM   21  C   UNL     1      -9.753   8.200  72.002  1.00  0.00    -0.292 A  
HETATM   22  C   UNL     1      -8.976   7.094  71.658  1.00  0.00    -0.136 A  
ENDBRANCH  16  17
ENDBRANCH  13  16
ENDBRANCH  12  13
ENDBRANCH  11  12
ENDBRANCH  10  11
ENDBRANCH   9  10
ENDBRANCH   8   9
ENDBRANCH   7   8
ENDBRANCH   6   7
ENDBRANCH   5   6
ENDBRANCH   4   5
ENDBRANCH   3   4
ENDBRANCH   2   3
TORSDOF 13
ENDMDL
MODEL      405
REMARK 921   NORMALIZED FREE ENERGY PREDICTED BY IDOCK:   -1.36 KCAL/MOL
REMARK 922        TOTAL FREE ENERGY PREDICTED BY IDOCK:   -3.87 KCAL/MOL
REMARK 923 INTER-LIGAND FREE ENERGY PREDICTED BY IDOCK:   -3.67 KCAL/MOL
REMARK 924 INTRA-LIGAND FREE ENERGY PREDICTED BY IDOCK:   -0.20 KCAL/MOL
REMARK 927      BINDING AFFINITY PREDICTED BY RF-SCORE:    0.00 PKD
ROOT
HETATM    1  C   UNL     1     -11.726  15.487  64.380  1.00  0.00    -0.243 C  
HETATM    2  C   UNL     1     -11.540  14.777  65.711  1.00  0.00    -0.290 C  
ENDROOT
BRANCH   2   3
HETATM    3  C   UNL     1     -12.751  13.907  66.041  1.00  0.00    -0.410 C  
BRANCH   3   4
HETATM    4  C   UNL     1     -12.709  13.434  67.491  1.00  0.00     0.872 C  
BRANCH   4   5
HETATM    5  C   UNL     1     -11.370  12.773  67.802  1.00  0.00    -0.342 C  
BRANCH   5   6
HETATM    6  C   UNL     1     -11.466  11.931  69.067  1.00  0.00    -0.355 C  
BRANCH   6   7
HETATM    7  C   UNL     1     -11.581  10.447  68.734  1.00  0.00    -0.188 C  
BRANCH   7   8
HETATM    8  C   UNL     1     -10.489  10.051  67.748  1.00  0.00    -0.282 C  
BRANCH   8   9
HETATM    9  C   UNL     1      -9.254   9.509  68.460  1.00  0.00    -0.131 C  
BRANCH   9  10
HETATM   10  C   UNL     1      -9.168   9.975  69.914  1.00  0.00    -0.195 C  
BRANCH  10  11
HETATM   11  C   UNL     1      -9.886   9.075  70.926  1.00  0.00    -0.330 C  
BRANCH  11  12
HETATM   12  C   UNL     1      -9.652   7.581  70.671  1.00  0.00    -0.171 C  
BRANCH  12  13
HETATM   13  N   UNL     1     -10.950   6.753  70.608  1.00  0.00    -0.252 N  
HETATM   14  C   UNL     1     -11.001   5.745  71.749  1.00  0.00    -0.256 C  
HETATM   15  C   UNL     1     -12.173   7.660  70.681  1.00  0.00     0.012 C  
BRANCH  13  16
HETATM   16  C   UNL     1     -10.948   6.004  69.232  1.00  0.00    -0.366 C  
BRANCH  16  17
HETATM   17  C   UNL     1      -9.636   5.360  68.856  1.00  0.00    -0.188 A  
HETATM   18  C   UNL     1      -8.896   5.834  67.760  1.00  0.00    -0.105 A  
HETATM   19  C   UNL     1      -7.800   5.116  67.286  1.00  0.00    -0.096 A  
HETATM   20  C   UNL     1      -7.415   3.935  67.917  1.00  0.00    -0.067 A  
HETATM   21  C   UNL     1      -8.094   3.495  69.050  1.00  0.00    -0.071 A  
HETATM   22  C   UNL     1      -9.190   4.212  69.529  1.00  0.00    -0.214 A  
ENDBRANCH  16  17
ENDBRANCH  13  16
ENDBRANCH  12  13
ENDBRANCH  11  12
ENDBRANCH  10  11
ENDBRANCH   9  10
ENDBRANCH   8   9
ENDBRANCH   7   8
ENDBRANCH   6   7
ENDBRANCH   5   6
ENDBRANCH   4   5
ENDBRANCH   3   4
ENDBRANCH   2   3
TORSDOF 13
ENDMDL
MODEL      406
REMARK 921   NORMALIZED FREE ENERGY PREDICTED BY IDOCK:   -1.28 KCAL/MOL
REMARK 922        TOTAL FREE ENERGY PREDICTED BY IDOCK:   -3.73 KCAL/MOL
REMARK 923 INTER-LIGAND FREE ENERGY PREDICTED BY IDOCK:   -4.76 KCAL/MOL
REMARK 924 INTRA-LIGAND FREE ENERGY PREDICTED BY IDOCK:    1.03 KCAL/MOL
REMARK 927      BINDING AFFINITY PREDICTED BY RF-SCORE:    0.00 PKD
ROOT
HETATM    1  C   UNL     1      -5.320  11.644  68.916  1.00  0.00    -0.049 C  
HETATM    2  C   UNL     1      -5.786  11.162  67.552  1.00  0.00    -0.048 C  
ENDROOT
BRANCH   2   3
HETATM    3  C   UNL     1      -6.474  12.286  66.781  1.00  0.00     0.230 C  
BRANCH   3   4
HETATM    4  C   UNL     1      -7.778  12.699  67.456  1.00  0.00    -0.161 C  
BRANCH   4   5
HETATM    5  C   UNL     1      -8.096  11.769  68.623  1.00  0.00    -0.104 C  
BRANCH   5   6
HETATM    6  C   UNL     1      -9.358  10.964  68.342  1.00  0.00    -0.172 C  
BRANCH   6   7
HETATM    7  C   UNL     1      -9.804  11.129  66.892  1.00  0.00    -0.223 C  
BRANCH   7   8
HETATM    8  C   UNL     1     -10.004   9.760  66.254  1.00  0.00    -0.331 C  
BRANCH   8   9
HETATM    9  C   UNL     1      -9.717   9.788  64.756  1.00  0.00    -0.213 C  
BRANCH   9  10
HETATM   10  C   UNL     1      -9.749  11.206  64.182  1.00  0.00    -0.318 C  
BRANCH  10  11
HETATM   11  C   UNL     1     -10.880  11.473  63.181  1.00  0.00    -0.243 C  
BRANCH  11  12
HETATM   12  C   UNL     1     -12.088  12.174  63.815  1.00  0.00    -0.525 C  
BRANCH  12  13
HETATM   13  N   UNL     1     -11.731  13.488  64.537  1.00  0.00    -0.380 N  
HETATM   14  C   UNL     1     -10.225  13.719  64.521  1.00  0.00    -0.175 C  
HETATM   15  C   UNL     1     -12.431  14.672  63.878  1.00  0.00     0.147 C  
BRANCH  13  16
HETATM   16  C   UNL     1     -12.237  13.350  66.013  1.00  0.00    -0.437 C  
BRANCH  16  17
HETATM   17  C   UNL     1     -11.667  14.356  66.982  1.00  0.00    -0.420 A  
HETATM   18  C   UNL     1     -11.160  15.583  66.521  1.00  0.00    -0.182 A  
HETATM   19  C   UNL     1     -10.448  16.418  67.381  1.00  0.00    -0.309 A  
HETATM   20  C   UNL     1     -10.260  16.052  68.712  1.00  0.00    -0.225 A  
HETATM   21  C   UNL     1     -10.823  14.876  69.198  1.00  0.00    -0.253 A  
HETATM   22  C   UNL     1     -11.538  14.038  68.343  1.00  0.00    -0.366 A  
ENDBRANCH  16  17
ENDBRANCH  13  16
ENDBRANCH  12  13
ENDBRANCH  11  12
ENDBRANCH  10  11
ENDBRANCH   9  10
ENDBRANCH   8   9
ENDBRANCH   7   8
ENDBRANCH   6   7
ENDBRANCH   5   6
ENDBRANCH   4   5
ENDBRANCH   3   4
ENDBRANCH   2   3
TORSDOF 13
ENDMDL
MODEL      407
REMARK 921   NORMALIZED FREE ENERGY PREDICTED BY IDOCK:   -0.03 KCAL/MOL
REMARK 922        TOTAL FREE ENERGY PREDICTED BY IDOCK:   -1.53 KCAL/MOL
REMARK 923 INTER-LIGAND FREE ENERGY PREDICTED BY IDOCK:   -3.20 KCAL/MOL
REMARK 924 INTRA-LIGAND FREE ENERGY PREDICTED BY IDOCK:    1.67 KCAL/MOL
REMARK 927      BINDING AFFINITY PREDICTED BY RF-SCORE:    0.00 PKD
ROOT
HETATM    1  C   UNL     1      -9.070  10.670  65.055  1.00  0.00    -0.229 C  
HETATM    2  C   UNL     1      -7.640  11.097  65.341  1.00  0.00     0.369 C  
ENDROOT
BRANCH   2   3
HETATM    3  C   UNL     1      -6.644  10.201  64.608  1.00  0.00    -0.125 C  
BRANCH   3   4
HETATM    4  C   UNL     1      -6.477   8.864  65.324  1.00  0.00    -0.067 C  
BRANCH   4   5
HETATM    5  C   UNL     1      -5.187   8.849  66.139  1.00  0.00    -0.033 C  
BRANCH   5   6
HETATM    6  C   UNL     1      -5.351   9.658  67.419  1.00  0.00    -0.036 C  
BRANCH   6   7
HETATM    7  C   UNL     1      -6.610   9.245  68.174  1.00  0.00    -0.059 C  
BRANCH   7   8
HETATM    8  C   UNL     1      -7.098  10.401  69.038  1.00  0.00    -0.076 C  
BRANCH   8   9
HETATM    9  C   UNL     1      -5.957  11.335  69.430  1.00  0.00    -0.063 C  
BRANCH   9  10
HETATM   10  C   UNL     1      -5.667  12.384  68.356  1.00  0.00    -0.056 C  
BRANCH  10  11
HETATM   11  C   UNL     1      -6.900  12.893  67.599  1.00  0.00    -0.149 C  
BRANCH  11  12
HETATM   12  C   UNL     1      -8.117  13.104  68.508  1.00  0.00    -0.087 C  
BRANCH  12  13
HETATM   13  N   UNL     1      -9.091  14.183  67.997  1.00  0.00    -0.183 N  
HETATM   14  C   UNL     1      -9.058  14.260  66.475  1.00  0.00    -0.185 C  
HETATM   15  C   UNL     1     -10.514  13.887  68.457  1.00  0.00    -0.250 C  
BRANCH  13  16
HETATM   16  C   UNL     1      -8.625  15.546  68.612  1.00  0.00    -0.179 C  
BRANCH  16  17
HETATM   17  C   UNL     1      -9.098  16.776  67.876  1.00  0.00    -0.224 A  
HETATM   18  C   UNL     1     -10.041  16.669  66.840  1.00  0.00    -0.280 A  
HETATM   19  C   UNL     1     -10.320  17.765  66.025  1.00  0.00    -0.304 A  
HETATM   20  C   UNL     1      -9.682  18.983  66.253  1.00  0.00    -0.392 A  
HETATM   21  C   UNL     1      -8.803  19.121  67.323  1.00  0.00    -0.317 A  
HETATM   22  C   UNL     1      -8.522  18.027  68.142  1.00  0.00    -0.273 A  
ENDBRANCH  16  17
ENDBRANCH  13  16
ENDBRANCH  12  13
ENDBRANCH  11  12
ENDBRANCH  10  11
ENDBRANCH   9  10
ENDBRANCH   8   9
ENDBRANCH   7   8
ENDBRANCH   6   7
ENDBRANCH   5   6
ENDBRANCH   4   5
ENDBRANCH   3   4
ENDBRANCH   2   3
TORSDOF 13
ENDMDL
MODEL      408
REMARK 921   NORMALIZED FREE ENERGY PREDICTED BY IDOCK:    0.09 KCAL/MOL
REMARK 922        TOTAL FREE ENERGY PREDICTED BY IDOCK:   -1.31 KCAL/MOL
REMARK 923 INTER-LIGAND FREE ENERGY PREDICTED BY IDOCK:   -1.60 KCAL/MOL
REMARK 924 INTRA-LIGAND FREE ENERGY PREDICTED BY IDOCK:    0.29 KCAL/MOL
REMARK 927      BINDING AFFINITY PREDICTED BY RF-SCORE:    0.00 PKD
ROOT
HETATM    1  C   UNL     1      -9.426  14.409  65.700  1.00  0.00    -0.045 C  
HETATM    2  C   UNL     1     -10.436  15.321  65.024  1.00  0.00    -0.411 C  
ENDROOT
BRANCH   2   3
HETATM    3  C   UNL     1     -11.472  15.827  66.025  1.00  0.00     0.266 C  
BRANCH   3   4
HETATM    4  C   UNL     1     -10.827  16.722  67.079  1.00  0.00    -0.066 C  
BRANCH   4   5
HETATM    5  C   UNL     1     -10.519  15.926  68.344  1.00  0.00    -0.254 C  
BRANCH   5   6
HETATM    6  C   UNL     1      -9.101  15.373  68.301  1.00  0.00    -0.187 C  
BRANCH   6   7
HETATM    7  C   UNL     1      -8.403  15.540  69.647  1.00  0.00    -0.113 C  
BRANCH   7   8
HETATM    8  C   UNL     1      -6.979  15.007  69.561  1.00  0.00    -0.187 C  
BRANCH   8   9
HETATM    9  C   UNL     1      -6.853  13.894  68.526  1.00  0.00    -0.098 C  
BRANCH   9  10
HETATM   10  C   UNL     1      -5.707  12.931  68.841  1.00  0.00    -0.073 C  
BRANCH  10  11
HETATM   11  C   UNL     1      -6.062  11.797  69.810  1.00  0.00    -0.136 C  
BRANCH  11  12
HETATM   12  C   UNL     1      -7.535  11.377  69.726  1.00  0.00     0.415 C  
BRANCH  12  13
HETATM   13  N   UNL     1      -7.759  10.059  68.959  1.00  0.00    -0.086 N  
HETATM   14  C   UNL     1      -8.908   9.268  69.572  1.00  0.00    -0.151 C  
HETATM   15  C   UNL     1      -8.062  10.334  67.490  1.00  0.00    -0.110 C  
BRANCH  13  16
HETATM   16  C   UNL     1      -6.428   9.238  69.063  1.00  0.00    -0.047 C  
BRANCH  16  17
HETATM   17  C   UNL     1      -6.487   8.038  69.976  1.00  0.00    -0.033 A  
HETATM   18  C   UNL     1      -6.860   6.779  69.477  1.00  0.00    -0.054 A  
HETATM   19  C   UNL     1      -7.116   5.723  70.350  1.00  0.00    -0.070 A  
HETATM   20  C   UNL     1      -6.975   5.905  71.724  1.00  0.00    -0.073 A  
HETATM   21  C   UNL     1      -6.532   7.125  72.225  1.00  0.00    -0.052 A  
HETATM   22  C   UNL     1      -6.272   8.184  71.355  1.00  0.00    -0.037 A  
ENDBRANCH  16  17
ENDBRANCH  13  16
ENDBRANCH  12  13
ENDBRANCH  11  12
ENDBRANCH  10  11
ENDBRANCH   9  10
ENDBRANCH   8   9
ENDBRANCH   7   8
ENDBRANCH   6   7
ENDBRANCH   5   6
ENDBRANCH   4   5
ENDBRANCH   3   4
ENDBRANCH   2   3
TORSDOF 13
ENDMDL
MODEL      409
REMARK 921   NORMALIZED FREE ENERGY PREDICTED BY IDOCK:   19.06 KCAL/MOL
REMARK 922        TOTAL FREE ENERGY PREDICTED BY IDOCK:   32.07 KCAL/MOL
REMARK 923 INTER-LIGAND FREE ENERGY PREDICTED BY IDOCK:   27.12 KCAL/MOL
REMARK 924 INTRA-LIGAND FREE ENERGY PREDICTED BY IDOCK:    4.95 KCAL/MOL
REMARK 927      BINDING AFFINITY PREDICTED BY RF-SCORE:    0.00 PKD
ROOT
HETATM    1  C   UNL     1     -11.805  13.525  65.238  1.00  0.00    -0.373 C  
HETATM    2  C   UNL     1     -12.243  12.830  66.516  1.00  0.00    -0.198 C  
ENDROOT
BRANCH   2   3
HETATM    3  C   UNL     1     -13.537  12.050  66.299  1.00  0.00     7.621 C  
BRANCH   3   4
HETATM    4  C   UNL     1     -13.501  10.711  67.030  1.00  0.00    13.628 C  
BRANCH   4   5
HETATM    5  C   UNL     1     -12.121  10.071  66.910  1.00  0.00     4.204 C  
BRANCH   5   6
HETATM    6  C   UNL     1     -11.627   9.598  68.271  1.00  0.00     0.581 C  
BRANCH   6   7
HETATM    7  C   UNL     1     -10.108   9.689  68.367  1.00  0.00    -0.199 C  
BRANCH   7   8
HETATM    8  C   UNL     1      -9.666  11.140  68.225  1.00  0.00    -0.190 C  
BRANCH   8   9
HETATM    9  C   UNL     1      -9.513  11.820  69.582  1.00  0.00     1.314 C  
BRANCH   9  10
HETATM   10  C   UNL     1     -10.377  11.167  70.662  1.00  0.00     2.056 C  
BRANCH  10  11
HETATM   11  C   UNL     1     -10.200   9.651  70.804  1.00  0.00    -0.330 C  
BRANCH  11  12
HETATM   12  C   UNL     1      -8.732   9.231  70.951  1.00  0.00    -0.173 C  
BRANCH  12  13
HETATM   13  N   UNL     1      -8.380   7.936  70.193  1.00  0.00    -0.125 N  
HETATM   14  C   UNL     1      -9.496   6.909  70.336  1.00  0.00    -0.169 C  
HETATM   15  C   UNL     1      -8.144   8.224  68.714  1.00  0.00    -0.115 C  
BRANCH  13  16
HETATM   16  C   UNL     1      -7.058   7.382  70.825  1.00  0.00    -0.063 C  
BRANCH  16  17
HETATM   17  C   UNL     1      -7.126   5.952  71.300  1.00  0.00    -0.073 A  
HETATM   18  C   UNL     1      -8.136   5.541  72.185  1.00  0.00    -0.111 A  
HETATM   19  C   UNL     1      -8.078   4.284  72.785  1.00  0.00    -0.093 A  
HETATM   20  C   UNL     1      -7.031   3.416  72.486  1.00  0.00    -0.042 A  
HETATM   21  C   UNL     1      -6.066   3.782  71.552  1.00  0.00    -0.014 A  
HETATM   22  C   UNL     1      -6.120   5.038  70.948  1.00  0.00    -0.018 A  
ENDBRANCH  16  17
ENDBRANCH  13  16
ENDBRANCH  12  13
ENDBRANCH  11  12
ENDBRANCH  10  11
ENDBRANCH   9  10
ENDBRANCH   8   9
ENDBRANCH   7   8
ENDBRANCH   6   7
ENDBRANCH   5   6
ENDBRANCH   4   5
ENDBRANCH   3   4
ENDBRANCH   2   3
TORSDOF 13
ENDMDL
