MODEL        1
REMARK 921   NORMALIZED FREE ENERGY PREDICTED BY IDOCK:   -6.22 KCAL/MOL
REMARK 922        TOTAL FREE ENERGY PREDICTED BY IDOCK:   -7.65 KCAL/MOL
REMARK 923 INTER-LIGAND FREE ENERGY PREDICTED BY IDOCK:   -7.31 KCAL/MOL
REMARK 924 INTRA-LIGAND FREE ENERGY PREDICTED BY IDOCK:   -0.34 KCAL/MOL
REMARK 927      BINDING AFFINITY PREDICTED BY RF-SCORE:    0.00 PKD
ROOT
HETATM    1  O   UNL     1      -8.858  15.075  65.992  1.00  0.00    -0.471 OA 
HETATM    2  C   UNL     1     -10.262  15.297  65.992  1.00  0.00    -0.317 C  
HETATM    3  H   UNL     1      -8.606  14.210  66.291  1.00  0.00     0.000 HD 
ENDROOT
BRANCH   2   4
HETATM    4  C   UNL     1     -10.997  14.186  65.261  1.00  0.00    -0.339 A  
HETATM    5  C   UNL     1     -12.309  12.119  63.874  1.00  0.00    -0.587 A  
HETATM    6  C   UNL     1     -10.297  13.369  64.355  1.00  0.00    -0.347 A  
HETATM    7  C   UNL     1     -12.362  13.939  65.463  1.00  0.00    -0.506 A  
HETATM    8  C   UNL     1     -13.013  12.910  64.778  1.00  0.00    -0.224 A  
HETATM    9  C   UNL     1     -10.952  12.349  63.661  1.00  0.00    -0.525 A  
ENDBRANCH   2   4
BRANCH   2  10
HETATM   10  C   UNL     1     -10.670  16.700  65.507  1.00  0.00    -0.223 C  
HETATM   11  O   UNL     1     -11.169  16.862  64.390  1.00  0.00    -1.159 OA 
BRANCH  10  12
HETATM   12  C   UNL     1     -10.458  17.897  66.375  1.00  0.00    -0.318 A  
HETATM   13  C   UNL     1     -10.376  17.699  67.761  1.00  0.00    -0.365 A  
HETATM   14  C   UNL     1     -10.071  20.071  68.101  1.00  0.00    -0.547 A  
HETATM   15  C   UNL     1     -10.189  18.784  68.620  1.00  0.00    -0.366 A  
HETATM   16  C   UNL     1     -10.129  20.275  66.724  1.00  0.00    -0.556 A  
HETATM   17  C   UNL     1     -10.314  19.191  65.863  1.00  0.00    -0.463 A  
ENDBRANCH  10  12
ENDBRANCH   2  10
TORSDOF 3
ENDMDL
MODEL        2
REMARK 921   NORMALIZED FREE ENERGY PREDICTED BY IDOCK:   -5.99 KCAL/MOL
REMARK 922        TOTAL FREE ENERGY PREDICTED BY IDOCK:   -7.37 KCAL/MOL
REMARK 923 INTER-LIGAND FREE ENERGY PREDICTED BY IDOCK:   -6.91 KCAL/MOL
REMARK 924 INTRA-LIGAND FREE ENERGY PREDICTED BY IDOCK:   -0.46 KCAL/MOL
REMARK 927      BINDING AFFINITY PREDICTED BY RF-SCORE:    0.00 PKD
ROOT
HETATM    1  O   UNL     1     -14.045   9.046  73.348  1.00  0.00    -1.231 OA 
HETATM    2  C   UNL     1     -12.965   8.818  72.452  1.00  0.00    -0.383 C  
HETATM    3  H   UNL     1     -13.927   9.805  73.906  1.00  0.00     0.000 HD 
ENDROOT
BRANCH   2   4
HETATM    4  C   UNL     1     -12.622  10.074  71.670  1.00  0.00    -0.524 A  
HETATM    5  C   UNL     1     -11.941  12.371  70.194  1.00  0.00    -0.376 A  
HETATM    6  C   UNL     1     -11.676  10.009  70.631  1.00  0.00    -0.421 A  
HETATM    7  C   UNL     1     -13.225  11.310  71.944  1.00  0.00    -0.491 A  
HETATM    8  C   UNL     1     -12.891  12.450  71.209  1.00  0.00    -0.337 A  
HETATM    9  C   UNL     1     -11.333  11.152  69.905  1.00  0.00    -0.348 A  
ENDBRANCH   2   4
BRANCH   2  10
HETATM   10  C   UNL     1     -13.158   7.588  71.548  1.00  0.00    -0.356 C  
HETATM   11  O   UNL     1     -14.256   7.341  71.042  1.00  0.00    -0.248 OA 
BRANCH  10  12
HETATM   12  C   UNL     1     -12.021   6.659  71.272  1.00  0.00    -0.409 A  
HETATM   13  C   UNL     1     -11.459   5.967  72.355  1.00  0.00    -0.357 A  
HETATM   14  C   UNL     1      -9.878   4.897  70.876  1.00  0.00    -0.277 A  
HETATM   15  C   UNL     1     -10.387   5.093  72.157  1.00  0.00    -0.272 A  
HETATM   16  C   UNL     1     -10.444   5.562  69.791  1.00  0.00    -0.389 A  
HETATM   17  C   UNL     1     -11.516   6.435  69.987  1.00  0.00    -0.496 A  
ENDBRANCH  10  12
ENDBRANCH   2  10
TORSDOF 3
ENDMDL
MODEL        3
REMARK 921   NORMALIZED FREE ENERGY PREDICTED BY IDOCK:   -5.98 KCAL/MOL
REMARK 922        TOTAL FREE ENERGY PREDICTED BY IDOCK:   -7.37 KCAL/MOL
REMARK 923 INTER-LIGAND FREE ENERGY PREDICTED BY IDOCK:   -7.03 KCAL/MOL
REMARK 924 INTRA-LIGAND FREE ENERGY PREDICTED BY IDOCK:   -0.34 KCAL/MOL
REMARK 927      BINDING AFFINITY PREDICTED BY RF-SCORE:    0.00 PKD
ROOT
HETATM    1  O   UNL     1      -9.840  14.844  69.865  1.00  0.00    -0.451 OA 
HETATM    2  C   UNL     1     -11.230  14.677  69.620  1.00  0.00    -0.272 C  
HETATM    3  H   UNL     1      -9.611  15.698  70.212  1.00  0.00     0.000 HD 
ENDROOT
BRANCH   2   4
HETATM    4  C   UNL     1     -12.054  15.055  70.839  1.00  0.00    -0.380 A  
HETATM    5  C   UNL     1     -13.530  15.764  73.127  1.00  0.00    -0.652 A  
HETATM    6  C   UNL     1     -11.413  15.574  71.978  1.00  0.00    -0.515 A  
HETATM    7  C   UNL     1     -13.448  14.909  70.869  1.00  0.00    -0.356 A  
HETATM    8  C   UNL     1     -14.182  15.266  72.003  1.00  0.00    -0.679 A  
HETATM    9  C   UNL     1     -12.146  15.918  73.116  1.00  0.00    -0.611 A  
ENDBRANCH   2   4
BRANCH   2  10
HETATM   10  C   UNL     1     -11.600  13.293  69.057  1.00  0.00    -0.312 C  
HETATM   11  O   UNL     1     -11.803  12.338  69.811  1.00  0.00    -0.313 OA 
BRANCH  10  12
HETATM   12  C   UNL     1     -11.709  13.075  67.583  1.00  0.00    -0.415 A  
HETATM   13  C   UNL     1     -12.279  14.094  66.807  1.00  0.00    -0.429 A  
HETATM   14  C   UNL     1     -11.971  12.771  64.810  1.00  0.00    -0.455 A  
HETATM   15  C   UNL     1     -12.414  13.940  65.426  1.00  0.00    -0.528 A  
HETATM   16  C   UNL     1     -11.383  11.763  65.569  1.00  0.00    -0.283 A  
HETATM   17  C   UNL     1     -11.246  11.917  66.950  1.00  0.00    -0.382 A  
ENDBRANCH  10  12
ENDBRANCH   2  10
TORSDOF 3
ENDMDL
MODEL        4
REMARK 921   NORMALIZED FREE ENERGY PREDICTED BY IDOCK:   -5.95 KCAL/MOL
REMARK 922        TOTAL FREE ENERGY PREDICTED BY IDOCK:   -7.34 KCAL/MOL
REMARK 923 INTER-LIGAND FREE ENERGY PREDICTED BY IDOCK:   -6.94 KCAL/MOL
REMARK 924 INTRA-LIGAND FREE ENERGY PREDICTED BY IDOCK:   -0.39 KCAL/MOL
REMARK 927      BINDING AFFINITY PREDICTED BY RF-SCORE:    0.00 PKD
ROOT
HETATM    1  O   UNL     1      -9.840  14.844  69.865  1.00  0.00    -0.451 OA 
HETATM    2  C   UNL     1     -11.230  14.677  69.620  1.00  0.00    -0.272 C  
HETATM    3  H   UNL     1      -9.611  15.698  70.212  1.00  0.00     0.000 HD 
ENDROOT
BRANCH   2   4
HETATM    4  C   UNL     1     -12.054  15.055  70.839  1.00  0.00    -0.380 A  
HETATM    5  C   UNL     1     -13.630  15.754  73.063  1.00  0.00    -0.638 A  
HETATM    6  C   UNL     1     -13.458  15.048  70.758  1.00  0.00    -0.316 A  
HETATM    7  C   UNL     1     -11.460  15.409  72.059  1.00  0.00    -0.521 A  
HETATM    8  C   UNL     1     -12.242  15.751  73.165  1.00  0.00    -0.605 A  
HETATM    9  C   UNL     1     -14.239  15.403  71.860  1.00  0.00    -0.640 A  
ENDBRANCH   2   4
BRANCH   2  10
HETATM   10  C   UNL     1     -11.600  13.293  69.057  1.00  0.00    -0.312 C  
HETATM   11  O   UNL     1     -11.803  12.338  69.811  1.00  0.00    -0.313 OA 
BRANCH  10  12
HETATM   12  C   UNL     1     -11.709  13.075  67.583  1.00  0.00    -0.415 A  
HETATM   13  C   UNL     1     -12.279  14.094  66.807  1.00  0.00    -0.429 A  
HETATM   14  C   UNL     1     -11.971  12.771  64.810  1.00  0.00    -0.455 A  
HETATM   15  C   UNL     1     -12.414  13.940  65.426  1.00  0.00    -0.528 A  
HETATM   16  C   UNL     1     -11.383  11.763  65.569  1.00  0.00    -0.283 A  
HETATM   17  C   UNL     1     -11.246  11.917  66.950  1.00  0.00    -0.382 A  
ENDBRANCH  10  12
ENDBRANCH   2  10
TORSDOF 3
ENDMDL
MODEL        5
REMARK 921   NORMALIZED FREE ENERGY PREDICTED BY IDOCK:   -5.91 KCAL/MOL
REMARK 922        TOTAL FREE ENERGY PREDICTED BY IDOCK:   -7.29 KCAL/MOL
REMARK 923 INTER-LIGAND FREE ENERGY PREDICTED BY IDOCK:   -6.73 KCAL/MOL
REMARK 924 INTRA-LIGAND FREE ENERGY PREDICTED BY IDOCK:   -0.56 KCAL/MOL
REMARK 927      BINDING AFFINITY PREDICTED BY RF-SCORE:    0.00 PKD
ROOT
HETATM    1  O   UNL     1      -9.873  14.738  70.045  1.00  0.00    -0.438 OA 
HETATM    2  C   UNL     1     -11.252  14.778  69.703  1.00  0.00    -0.275 C  
HETATM    3  H   UNL     1      -9.567  15.514  70.499  1.00  0.00     0.000 HD 
ENDROOT
BRANCH   2   4
HETATM    4  C   UNL     1     -12.109  15.129  70.908  1.00  0.00    -0.388 A  
HETATM    5  C   UNL     1     -13.647  15.779  73.173  1.00  0.00    -0.588 A  
HETATM    6  C   UNL     1     -11.494  15.413  72.140  1.00  0.00    -0.525 A  
HETATM    7  C   UNL     1     -13.508  15.188  70.834  1.00  0.00    -0.432 A  
HETATM    8  C   UNL     1     -14.272  15.516  71.957  1.00  0.00    -0.606 A  
HETATM    9  C   UNL     1     -12.259  15.726  73.265  1.00  0.00    -0.619 A  
ENDBRANCH   2   4
BRANCH   2  10
HETATM   10  C   UNL     1     -11.747  13.520  68.967  1.00  0.00    -0.327 C  
HETATM   11  O   UNL     1     -12.247  13.601  67.842  1.00  0.00    -0.320 OA 
BRANCH  10  12
HETATM   12  C   UNL     1     -11.644  12.173  69.606  1.00  0.00    -0.361 A  
HETATM   13  C   UNL     1     -10.733  11.255  69.064  1.00  0.00    -0.257 A  
HETATM   14  C   UNL     1     -11.372   9.616  70.719  1.00  0.00    -0.409 A  
HETATM   15  C   UNL     1     -10.602   9.979  69.616  1.00  0.00    -0.278 A  
HETATM   16  C   UNL     1     -12.263  10.528  71.278  1.00  0.00    -0.472 A  
HETATM   17  C   UNL     1     -12.394  11.805  70.728  1.00  0.00    -0.433 A  
ENDBRANCH  10  12
ENDBRANCH   2  10
TORSDOF 3
ENDMDL
MODEL        6
REMARK 921   NORMALIZED FREE ENERGY PREDICTED BY IDOCK:   -5.91 KCAL/MOL
REMARK 922        TOTAL FREE ENERGY PREDICTED BY IDOCK:   -7.28 KCAL/MOL
REMARK 923 INTER-LIGAND FREE ENERGY PREDICTED BY IDOCK:   -6.97 KCAL/MOL
REMARK 924 INTRA-LIGAND FREE ENERGY PREDICTED BY IDOCK:   -0.32 KCAL/MOL
REMARK 927      BINDING AFFINITY PREDICTED BY RF-SCORE:    0.00 PKD
ROOT
HETATM    1  O   UNL     1     -12.314  14.870  68.228  1.00  0.00    -0.580 OA 
HETATM    2  C   UNL     1     -11.308  14.763  69.225  1.00  0.00    -0.294 C  
HETATM    3  H   UNL     1     -13.062  14.303  68.374  1.00  0.00     0.000 HD 
ENDROOT
BRANCH   2   4
HETATM    4  C   UNL     1     -11.894  14.914  70.619  1.00  0.00    -0.357 A  
HETATM    5  C   UNL     1     -13.015  15.145  73.190  1.00  0.00    -0.627 A  
HETATM    6  C   UNL     1     -12.777  13.936  71.111  1.00  0.00    -0.441 A  
HETATM    7  C   UNL     1     -11.578  16.001  71.446  1.00  0.00    -0.520 A  
HETATM    8  C   UNL     1     -12.130  16.114  72.725  1.00  0.00    -0.653 A  
HETATM    9  C   UNL     1     -13.340  14.057  72.383  1.00  0.00    -0.617 A  
ENDBRANCH   2   4
BRANCH   2  10
HETATM   10  C   UNL     1     -10.096  15.682  68.987  1.00  0.00    -0.227 C  
HETATM   11  O   UNL     1      -8.991  15.407  69.462  1.00  0.00    -0.263 OA 
BRANCH  10  12
HETATM   12  C   UNL     1     -10.236  16.934  68.185  1.00  0.00    -0.311 A  
HETATM   13  C   UNL     1     -10.265  18.157  68.872  1.00  0.00    -0.304 A  
HETATM   14  C   UNL     1     -10.502  19.347  66.783  1.00  0.00    -0.569 A  
HETATM   15  C   UNL     1     -10.403  19.358  68.173  1.00  0.00    -0.525 A  
HETATM   16  C   UNL     1     -10.450  18.139  66.091  1.00  0.00    -0.377 A  
HETATM   17  C   UNL     1     -10.311  16.938  66.788  1.00  0.00    -0.298 A  
ENDBRANCH  10  12
ENDBRANCH   2  10
TORSDOF 3
ENDMDL
MODEL        7
REMARK 921   NORMALIZED FREE ENERGY PREDICTED BY IDOCK:   -5.90 KCAL/MOL
REMARK 922        TOTAL FREE ENERGY PREDICTED BY IDOCK:   -7.28 KCAL/MOL
REMARK 923 INTER-LIGAND FREE ENERGY PREDICTED BY IDOCK:   -6.81 KCAL/MOL
REMARK 924 INTRA-LIGAND FREE ENERGY PREDICTED BY IDOCK:   -0.47 KCAL/MOL
REMARK 927      BINDING AFFINITY PREDICTED BY RF-SCORE:    0.00 PKD
ROOT
HETATM    1  O   UNL     1      -9.168  13.936  68.834  1.00  0.00    -0.384 OA 
HETATM    2  C   UNL     1     -10.576  14.010  68.655  1.00  0.00    -0.257 C  
HETATM    3  H   UNL     1      -8.764  13.195  68.400  1.00  0.00     0.000 HD 
ENDROOT
BRANCH   2   4
HETATM    4  C   UNL     1     -10.951  13.913  67.186  1.00  0.00    -0.298 A  
HETATM    5  C   UNL     1     -11.702  13.715  64.481  1.00  0.00    -0.429 A  
HETATM    6  C   UNL     1     -12.283  13.638  66.826  1.00  0.00    -0.416 A  
HETATM    7  C   UNL     1     -10.010  14.096  66.163  1.00  0.00    -0.328 A  
HETATM    8  C   UNL     1     -10.383  14.003  64.820  1.00  0.00    -0.407 A  
HETATM    9  C   UNL     1     -12.652  13.531  65.483  1.00  0.00    -0.531 A  
ENDBRANCH   2   4
BRANCH   2  10
HETATM   10  C   UNL     1     -11.230  15.212  69.359  1.00  0.00    -0.283 C  
HETATM   11  O   UNL     1     -11.203  16.335  68.848  1.00  0.00    -0.331 OA 
BRANCH  10  12
HETATM   12  C   UNL     1     -11.902  15.047  70.683  1.00  0.00    -0.364 A  
HETATM   13  C   UNL     1     -11.770  16.080  71.622  1.00  0.00    -0.583 A  
HETATM   14  C   UNL     1     -13.114  14.842  73.201  1.00  0.00    -0.598 A  
HETATM   15  C   UNL     1     -12.370  15.974  72.878  1.00  0.00    -0.609 A  
HETATM   16  C   UNL     1     -13.269  13.821  72.267  1.00  0.00    -0.563 A  
HETATM   17  C   UNL     1     -12.671  13.926  71.009  1.00  0.00    -0.428 A  
ENDBRANCH  10  12
ENDBRANCH   2  10
TORSDOF 3
ENDMDL
MODEL        8
REMARK 921   NORMALIZED FREE ENERGY PREDICTED BY IDOCK:   -5.90 KCAL/MOL
REMARK 922        TOTAL FREE ENERGY PREDICTED BY IDOCK:   -7.28 KCAL/MOL
REMARK 923 INTER-LIGAND FREE ENERGY PREDICTED BY IDOCK:   -6.88 KCAL/MOL
REMARK 924 INTRA-LIGAND FREE ENERGY PREDICTED BY IDOCK:   -0.40 KCAL/MOL
REMARK 927      BINDING AFFINITY PREDICTED BY RF-SCORE:    0.00 PKD
ROOT
HETATM    1  O   UNL     1      -9.319  13.892  68.847  1.00  0.00    -0.387 OA 
HETATM    2  C   UNL     1     -10.724  13.884  68.629  1.00  0.00    -0.260 C  
HETATM    3  H   UNL     1      -8.864  13.162  68.445  1.00  0.00     0.000 HD 
ENDROOT
BRANCH   2   4
HETATM    4  C   UNL     1     -11.052  13.727  67.154  1.00  0.00    -0.315 A  
HETATM    5  C   UNL     1     -11.612  13.470  64.408  1.00  0.00    -0.429 A  
HETATM    6  C   UNL     1     -10.150  14.205  66.186  1.00  0.00    -0.324 A  
HETATM    7  C   UNL     1     -12.233  13.111  66.715  1.00  0.00    -0.306 A  
HETATM    8  C   UNL     1     -12.509  12.979  65.352  1.00  0.00    -0.531 A  
HETATM    9  C   UNL     1     -10.434  14.084  64.824  1.00  0.00    -0.445 A  
ENDBRANCH   2   4
BRANCH   2  10
HETATM   10  C   UNL     1     -11.461  15.068  69.280  1.00  0.00    -0.307 C  
HETATM   11  O   UNL     1     -11.623  16.127  68.666  1.00  0.00    -0.376 OA 
BRANCH  10  12
HETATM   12  C   UNL     1     -11.986  14.965  70.674  1.00  0.00    -0.363 A  
HETATM   13  C   UNL     1     -11.546  15.907  71.615  1.00  0.00    -0.541 A  
HETATM   14  C   UNL     1     -12.899  14.862  73.322  1.00  0.00    -0.646 A  
HETATM   15  C   UNL     1     -11.997  15.852  72.936  1.00  0.00    -0.609 A  
HETATM   16  C   UNL     1     -13.359  13.936  72.389  1.00  0.00    -0.629 A  
HETATM   17  C   UNL     1     -12.910  13.991  71.068  1.00  0.00    -0.410 A  
ENDBRANCH  10  12
ENDBRANCH   2  10
TORSDOF 3
ENDMDL
MODEL        9
REMARK 921   NORMALIZED FREE ENERGY PREDICTED BY IDOCK:   -5.89 KCAL/MOL
REMARK 922        TOTAL FREE ENERGY PREDICTED BY IDOCK:   -7.26 KCAL/MOL
REMARK 923 INTER-LIGAND FREE ENERGY PREDICTED BY IDOCK:   -6.87 KCAL/MOL
REMARK 924 INTRA-LIGAND FREE ENERGY PREDICTED BY IDOCK:   -0.39 KCAL/MOL
REMARK 927      BINDING AFFINITY PREDICTED BY RF-SCORE:    0.00 PKD
ROOT
HETATM    1  O   UNL     1     -12.383  10.952  68.902  1.00  0.00    -0.752 OA 
HETATM    2  C   UNL     1     -11.548  11.988  69.401  1.00  0.00    -0.330 C  
HETATM    3  H   UNL     1     -12.855  10.480  69.577  1.00  0.00     0.000 HD 
ENDROOT
BRANCH   2   4
HETATM    4  C   UNL     1     -12.312  12.910  70.337  1.00  0.00    -0.333 A  
HETATM    5  C   UNL     1     -13.746  14.569  72.099  1.00  0.00    -0.547 A  
HETATM    6  C   UNL     1     -12.940  12.378  71.477  1.00  0.00    -0.385 A  
HETATM    7  C   UNL     1     -12.410  14.289  70.106  1.00  0.00    -0.413 A  
HETATM    8  C   UNL     1     -13.118  15.115  70.983  1.00  0.00    -0.513 A  
HETATM    9  C   UNL     1     -13.659  13.202  72.346  1.00  0.00    -0.667 A  
ENDBRANCH   2   4
BRANCH   2  10
HETATM   10  C   UNL     1     -10.783  12.752  68.306  1.00  0.00    -0.239 C  
HETATM   11  O   UNL     1      -9.763  13.392  68.577  1.00  0.00    -0.218 OA 
BRANCH  10  12
HETATM   12  C   UNL     1     -11.267  12.746  66.893  1.00  0.00    -0.339 A  
HETATM   13  C   UNL     1     -12.218  13.706  66.518  1.00  0.00    -0.454 A  
HETATM   14  C   UNL     1     -12.252  12.823  64.270  1.00  0.00    -0.499 A  
HETATM   15  C   UNL     1     -12.712  13.740  65.212  1.00  0.00    -0.481 A  
HETATM   16  C   UNL     1     -11.291  11.880  64.627  1.00  0.00    -0.355 A  
HETATM   17  C   UNL     1     -10.795  11.845  65.932  1.00  0.00    -0.342 A  
ENDBRANCH  10  12
ENDBRANCH   2  10
TORSDOF 3
ENDMDL
MODEL       10
REMARK 921   NORMALIZED FREE ENERGY PREDICTED BY IDOCK:   -5.88 KCAL/MOL
REMARK 922        TOTAL FREE ENERGY PREDICTED BY IDOCK:   -7.25 KCAL/MOL
REMARK 923 INTER-LIGAND FREE ENERGY PREDICTED BY IDOCK:   -7.30 KCAL/MOL
REMARK 924 INTRA-LIGAND FREE ENERGY PREDICTED BY IDOCK:    0.05 KCAL/MOL
REMARK 927      BINDING AFFINITY PREDICTED BY RF-SCORE:    0.00 PKD
ROOT
HETATM    1  O   UNL     1     -10.014  13.706  69.184  1.00  0.00    -0.422 OA 
HETATM    2  C   UNL     1     -11.394  13.736  68.843  1.00  0.00    -0.288 C  
HETATM    3  H   UNL     1      -9.747  14.407  69.766  1.00  0.00     0.000 HD 
ENDROOT
BRANCH   2   4
HETATM    4  C   UNL     1     -12.266  13.833  70.083  1.00  0.00    -0.425 A  
HETATM    5  C   UNL     1     -13.887  14.074  72.371  1.00  0.00    -0.653 A  
HETATM    6  C   UNL     1     -12.889  15.054  70.400  1.00  0.00    -0.332 A  
HETATM    7  C   UNL     1     -12.481  12.737  70.930  1.00  0.00    -0.373 A  
HETATM    8  C   UNL     1     -13.290  12.854  72.064  1.00  0.00    -0.579 A  
HETATM    9  C   UNL     1     -13.686  15.174  71.541  1.00  0.00    -0.582 A  
ENDBRANCH   2   4
BRANCH   2  10
HETATM   10  C   UNL     1     -11.826  12.599  67.900  1.00  0.00    -0.332 C  
HETATM   11  O   UNL     1     -12.160  11.498  68.348  1.00  0.00    -0.556 OA 
BRANCH  10  12
HETATM   12  C   UNL     1     -11.837  12.800  66.420  1.00  0.00    -0.472 A  
HETATM   13  C   UNL     1     -12.351  14.007  65.923  1.00  0.00    -0.515 A  
HETATM   14  C   UNL     1     -11.916  13.284  63.660  1.00  0.00    -0.547 A  
HETATM   15  C   UNL     1     -12.395  14.245  64.548  1.00  0.00    -0.432 A  
HETATM   16  C   UNL     1     -11.383  12.092  64.145  1.00  0.00    -0.455 A  
HETATM   17  C   UNL     1     -11.337  11.854  65.520  1.00  0.00    -0.334 A  
ENDBRANCH  10  12
ENDBRANCH   2  10
TORSDOF 3
ENDMDL
MODEL       11
REMARK 921   NORMALIZED FREE ENERGY PREDICTED BY IDOCK:   -5.85 KCAL/MOL
REMARK 922        TOTAL FREE ENERGY PREDICTED BY IDOCK:   -7.22 KCAL/MOL
REMARK 923 INTER-LIGAND FREE ENERGY PREDICTED BY IDOCK:   -6.37 KCAL/MOL
REMARK 924 INTRA-LIGAND FREE ENERGY PREDICTED BY IDOCK:   -0.85 KCAL/MOL
REMARK 927      BINDING AFFINITY PREDICTED BY RF-SCORE:    0.00 PKD
ROOT
HETATM    1  O   UNL     1     -12.371  14.963  63.553  1.00  0.00    -1.008 OA 
HETATM    2  C   UNL     1     -12.389  14.210  64.759  1.00  0.00    -0.417 C  
HETATM    3  H   UNL     1     -12.337  15.902  63.688  1.00  0.00     0.000 HD 
ENDROOT
BRANCH   2   4
HETATM    4  C   UNL     1     -11.263  14.629  65.688  1.00  0.00    -0.342 A  
HETATM    5  C   UNL     1      -9.211  15.392  67.456  1.00  0.00    -0.201 A  
HETATM    6  C   UNL     1     -11.393  14.426  67.073  1.00  0.00    -0.357 A  
HETATM    7  C   UNL     1     -10.081  15.211  65.209  1.00  0.00    -0.365 A  
HETATM    8  C   UNL     1      -9.060  15.586  66.086  1.00  0.00    -0.359 A  
HETATM    9  C   UNL     1     -10.377  14.813  67.951  1.00  0.00    -0.240 A  
ENDBRANCH   2   4
BRANCH   2  10
HETATM   10  C   UNL     1     -12.446  12.687  64.540  1.00  0.00    -0.448 C  
HETATM   11  O   UNL     1     -13.529  12.102  64.450  1.00  0.00    -0.675 OA 
BRANCH  10  12
HETATM   12  C   UNL     1     -11.190  11.885  64.444  1.00  0.00    -0.401 A  
HETATM   13  C   UNL     1     -10.492  11.897  63.228  1.00  0.00    -0.427 A  
HETATM   14  C   UNL     1      -8.826  10.409  64.147  1.00  0.00    -0.228 A  
HETATM   15  C   UNL     1      -9.317  11.158  63.079  1.00  0.00    -0.365 A  
HETATM   16  C   UNL     1      -9.500  10.409  65.365  1.00  0.00    -0.285 A  
HETATM   17  C   UNL     1     -10.674  11.149  65.516  1.00  0.00    -0.251 A  
ENDBRANCH  10  12
ENDBRANCH   2  10
TORSDOF 3
ENDMDL
MODEL       12
REMARK 921   NORMALIZED FREE ENERGY PREDICTED BY IDOCK:   -5.85 KCAL/MOL
REMARK 922        TOTAL FREE ENERGY PREDICTED BY IDOCK:   -7.22 KCAL/MOL
REMARK 923 INTER-LIGAND FREE ENERGY PREDICTED BY IDOCK:   -6.86 KCAL/MOL
REMARK 924 INTRA-LIGAND FREE ENERGY PREDICTED BY IDOCK:   -0.36 KCAL/MOL
REMARK 927      BINDING AFFINITY PREDICTED BY RF-SCORE:    0.00 PKD
ROOT
HETATM    1  O   UNL     1     -11.344  16.166  67.755  1.00  0.00    -0.257 OA 
HETATM    2  C   UNL     1     -10.369  16.437  66.757  1.00  0.00    -0.293 C  
HETATM    3  H   UNL     1     -11.058  16.373  68.637  1.00  0.00     0.000 HD 
ENDROOT
BRANCH   2   4
HETATM    4  C   UNL     1      -9.830  17.852  66.882  1.00  0.00    -0.321 A  
HETATM    5  C   UNL     1      -8.776  20.452  67.098  1.00  0.00    -0.413 A  
HETATM    6  C   UNL     1      -8.518  18.135  66.462  1.00  0.00    -0.283 A  
HETATM    7  C   UNL     1     -10.603  18.900  67.402  1.00  0.00    -0.534 A  
HETATM    8  C   UNL     1     -10.082  20.192  67.505  1.00  0.00    -0.549 A  
HETATM    9  C   UNL     1      -7.994  19.425  66.578  1.00  0.00    -0.309 A  
ENDBRANCH   2   4
BRANCH   2  10
HETATM   10  C   UNL     1     -10.833  16.102  65.328  1.00  0.00    -0.336 C  
HETATM   11  O   UNL     1     -11.060  16.998  64.510  1.00  0.00    -1.098 OA 
BRANCH  10  12
HETATM   12  C   UNL     1     -11.030  14.683  64.904  1.00  0.00    -0.419 A  
HETATM   13  C   UNL     1     -10.061  13.742  65.283  1.00  0.00    -0.312 A  
HETATM   14  C   UNL     1     -11.292  11.994  64.160  1.00  0.00    -0.455 A  
HETATM   15  C   UNL     1     -10.190  12.404  64.907  1.00  0.00    -0.301 A  
HETATM   16  C   UNL     1     -12.270  12.916  63.798  1.00  0.00    -0.555 A  
HETATM   17  C   UNL     1     -12.144  14.255  64.175  1.00  0.00    -0.423 A  
ENDBRANCH  10  12
ENDBRANCH   2  10
TORSDOF 3
ENDMDL
MODEL       13
REMARK 921   NORMALIZED FREE ENERGY PREDICTED BY IDOCK:   -5.85 KCAL/MOL
REMARK 922        TOTAL FREE ENERGY PREDICTED BY IDOCK:   -7.21 KCAL/MOL
REMARK 923 INTER-LIGAND FREE ENERGY PREDICTED BY IDOCK:   -6.70 KCAL/MOL
REMARK 924 INTRA-LIGAND FREE ENERGY PREDICTED BY IDOCK:   -0.51 KCAL/MOL
REMARK 927      BINDING AFFINITY PREDICTED BY RF-SCORE:    0.00 PKD
ROOT
HETATM    1  O   UNL     1      -9.300  13.752  68.718  1.00  0.00    -0.369 OA 
HETATM    2  C   UNL     1     -10.703  13.691  68.497  1.00  0.00    -0.255 C  
HETATM    3  H   UNL     1      -8.813  13.056  68.294  1.00  0.00     0.000 HD 
ENDROOT
BRANCH   2   4
HETATM    4  C   UNL     1     -11.023  13.568  67.017  1.00  0.00    -0.297 A  
HETATM    5  C   UNL     1     -11.566  13.370  64.263  1.00  0.00    -0.442 A  
HETATM    6  C   UNL     1     -10.053  13.925  66.064  1.00  0.00    -0.324 A  
HETATM    7  C   UNL     1     -12.264  13.102  66.561  1.00  0.00    -0.358 A  
HETATM    8  C   UNL     1     -12.533  12.998  65.194  1.00  0.00    -0.552 A  
HETATM    9  C   UNL     1     -10.327  13.834  64.697  1.00  0.00    -0.393 A  
ENDBRANCH   2   4
BRANCH   2  10
HETATM   10  C   UNL     1     -11.491  14.819  69.186  1.00  0.00    -0.299 C  
HETATM   11  O   UNL     1     -11.354  15.993  68.831  1.00  0.00    -0.334 OA 
BRANCH  10  12
HETATM   12  C   UNL     1     -12.430  14.518  70.308  1.00  0.00    -0.405 A  
HETATM   13  C   UNL     1     -12.431  13.218  70.834  1.00  0.00    -0.424 A  
HETATM   14  C   UNL     1     -14.154  13.837  72.409  1.00  0.00    -0.593 A  
HETATM   15  C   UNL     1     -13.295  12.878  71.877  1.00  0.00    -0.530 A  
HETATM   16  C   UNL     1     -14.144  15.136  71.909  1.00  0.00    -0.649 A  
HETATM   17  C   UNL     1     -13.279  15.478  70.866  1.00  0.00    -0.474 A  
ENDBRANCH  10  12
ENDBRANCH   2  10
TORSDOF 3
ENDMDL
MODEL       14
REMARK 921   NORMALIZED FREE ENERGY PREDICTED BY IDOCK:   -5.82 KCAL/MOL
REMARK 922        TOTAL FREE ENERGY PREDICTED BY IDOCK:   -7.18 KCAL/MOL
REMARK 923 INTER-LIGAND FREE ENERGY PREDICTED BY IDOCK:   -6.46 KCAL/MOL
REMARK 924 INTRA-LIGAND FREE ENERGY PREDICTED BY IDOCK:   -0.73 KCAL/MOL
REMARK 927      BINDING AFFINITY PREDICTED BY RF-SCORE:    0.00 PKD
ROOT
HETATM    1  O   UNL     1     -13.491  14.137  65.555  1.00  0.00    -0.710 OA 
HETATM    2  C   UNL     1     -12.394  14.180  64.652  1.00  0.00    -0.410 C  
HETATM    3  H   UNL     1     -14.026  13.358  65.471  1.00  0.00     0.000 HD 
ENDROOT
BRANCH   2   4
HETATM    4  C   UNL     1     -11.579  12.899  64.713  1.00  0.00    -0.373 A  
HETATM    5  C   UNL     1     -10.064  10.528  64.765  1.00  0.00    -0.406 A  
HETATM    6  C   UNL     1     -10.958  12.415  63.548  1.00  0.00    -0.506 A  
HETATM    7  C   UNL     1     -11.416  12.176  65.903  1.00  0.00    -0.418 A  
HETATM    8  C   UNL     1     -10.660  11.002  65.931  1.00  0.00    -0.270 A  
HETATM    9  C   UNL     1     -10.213  11.233  63.574  1.00  0.00    -0.456 A  
ENDBRANCH   2   4
BRANCH   2  10
HETATM   10  C   UNL     1     -11.526  15.444  64.787  1.00  0.00    -0.336 C  
HETATM   11  O   UNL     1     -11.596  16.351  63.952  1.00  0.00    -1.100 OA 
BRANCH  10  12
HETATM   12  C   UNL     1     -10.573  15.596  65.927  1.00  0.00    -0.354 A  
HETATM   13  C   UNL     1     -11.106  15.776  67.212  1.00  0.00    -0.211 A  
HETATM   14  C   UNL     1      -8.878  15.898  68.138  1.00  0.00    -0.176 A  
HETATM   15  C   UNL     1     -10.260  15.931  68.312  1.00  0.00    -0.227 A  
HETATM   16  C   UNL     1      -8.341  15.698  66.869  1.00  0.00    -0.287 A  
HETATM   17  C   UNL     1      -9.185  15.540  65.768  1.00  0.00    -0.216 A  
ENDBRANCH  10  12
ENDBRANCH   2  10
TORSDOF 3
ENDMDL
MODEL       15
REMARK 921   NORMALIZED FREE ENERGY PREDICTED BY IDOCK:   -5.80 KCAL/MOL
REMARK 922        TOTAL FREE ENERGY PREDICTED BY IDOCK:   -7.16 KCAL/MOL
REMARK 923 INTER-LIGAND FREE ENERGY PREDICTED BY IDOCK:   -6.58 KCAL/MOL
REMARK 924 INTRA-LIGAND FREE ENERGY PREDICTED BY IDOCK:   -0.57 KCAL/MOL
REMARK 927      BINDING AFFINITY PREDICTED BY RF-SCORE:    0.00 PKD
ROOT
HETATM    1  O   UNL     1     -11.361  16.510  63.871  1.00  0.00    -1.557 OA 
HETATM    2  C   UNL     1     -11.653  15.553  64.880  1.00  0.00    -0.201 C  
HETATM    3  H   UNL     1     -11.202  17.384  64.206  1.00  0.00     0.000 HD 
ENDROOT
BRANCH   2   4
HETATM    4  C   UNL     1     -10.609  15.578  65.984  1.00  0.00    -0.333 A  
HETATM    5  C   UNL     1      -8.719  15.638  68.067  1.00  0.00    -0.167 A  
HETATM    6  C   UNL     1     -11.017  15.696  67.324  1.00  0.00    -0.275 A  
HETATM    7  C   UNL     1      -9.237  15.481  65.713  1.00  0.00    -0.216 A  
HETATM    8  C   UNL     1      -8.298  15.506  66.747  1.00  0.00    -0.301 A  
HETATM    9  C   UNL     1     -10.077  15.734  68.357  1.00  0.00    -0.222 A  
ENDBRANCH   2   4
BRANCH   2  10
HETATM   10  C   UNL     1     -11.911  14.135  64.337  1.00  0.00    -0.428 C  
HETATM   11  O   UNL     1     -12.653  13.955  63.368  1.00  0.00    -0.853 OA 
BRANCH  10  12
HETATM   12  C   UNL     1     -11.277  12.946  64.981  1.00  0.00    -0.324 A  
HETATM   13  C   UNL     1     -11.805  12.497  66.200  1.00  0.00    -0.459 A  
HETATM   14  C   UNL     1     -10.161  10.729  66.283  1.00  0.00    -0.301 A  
HETATM   15  C   UNL     1     -11.245  11.396  66.851  1.00  0.00    -0.331 A  
HETATM   16  C   UNL     1      -9.645  11.153  65.061  1.00  0.00    -0.278 A  
HETATM   17  C   UNL     1     -10.205  12.254  64.409  1.00  0.00    -0.341 A  
ENDBRANCH  10  12
ENDBRANCH   2  10
TORSDOF 3
ENDMDL
MODEL       16
REMARK 921   NORMALIZED FREE ENERGY PREDICTED BY IDOCK:   -5.79 KCAL/MOL
REMARK 922        TOTAL FREE ENERGY PREDICTED BY IDOCK:   -7.15 KCAL/MOL
REMARK 923 INTER-LIGAND FREE ENERGY PREDICTED BY IDOCK:   -6.49 KCAL/MOL
REMARK 924 INTRA-LIGAND FREE ENERGY PREDICTED BY IDOCK:   -0.65 KCAL/MOL
REMARK 927      BINDING AFFINITY PREDICTED BY RF-SCORE:    0.00 PKD
ROOT
HETATM    1  O   UNL     1     -13.491  14.098  65.535  1.00  0.00    -0.710 OA 
HETATM    2  C   UNL     1     -12.403  14.213  64.628  1.00  0.00    -0.410 C  
HETATM    3  H   UNL     1     -14.027  13.327  65.396  1.00  0.00     0.000 HD 
ENDROOT
BRANCH   2   4
HETATM    4  C   UNL     1     -11.587  12.932  64.580  1.00  0.00    -0.392 A  
HETATM    5  C   UNL     1     -10.077  10.558  64.551  1.00  0.00    -0.402 A  
HETATM    6  C   UNL     1     -11.364  12.205  65.763  1.00  0.00    -0.402 A  
HETATM    7  C   UNL     1     -11.046  12.439  63.385  1.00  0.00    -0.465 A  
HETATM    8  C   UNL     1     -10.300  11.257  63.368  1.00  0.00    -0.449 A  
HETATM    9  C   UNL     1     -10.607  11.031  65.748  1.00  0.00    -0.260 A  
ENDBRANCH   2   4
BRANCH   2  10
HETATM   10  C   UNL     1     -11.534  15.463  64.854  1.00  0.00    -0.311 C  
HETATM   11  O   UNL     1     -11.540  16.392  64.041  1.00  0.00    -1.071 OA 
BRANCH  10  12
HETATM   12  C   UNL     1     -10.657  15.574  66.058  1.00  0.00    -0.333 A  
HETATM   13  C   UNL     1      -9.271  15.654  65.857  1.00  0.00    -0.330 A  
HETATM   14  C   UNL     1      -8.913  15.777  68.243  1.00  0.00    -0.182 A  
HETATM   15  C   UNL     1      -8.403  15.750  66.946  1.00  0.00    -0.283 A  
HETATM   16  C   UNL     1     -10.289  15.720  68.451  1.00  0.00    -0.233 A  
HETATM   17  C   UNL     1     -11.158  15.627  67.362  1.00  0.00    -0.260 A  
ENDBRANCH  10  12
ENDBRANCH   2  10
TORSDOF 3
ENDMDL
MODEL       17
REMARK 921   NORMALIZED FREE ENERGY PREDICTED BY IDOCK:   -5.78 KCAL/MOL
REMARK 922        TOTAL FREE ENERGY PREDICTED BY IDOCK:   -7.13 KCAL/MOL
REMARK 923 INTER-LIGAND FREE ENERGY PREDICTED BY IDOCK:   -6.72 KCAL/MOL
REMARK 924 INTRA-LIGAND FREE ENERGY PREDICTED BY IDOCK:   -0.42 KCAL/MOL
REMARK 927      BINDING AFFINITY PREDICTED BY RF-SCORE:    0.00 PKD
ROOT
HETATM    1  O   UNL     1     -11.012  11.005  68.439  1.00  0.00    -0.195 OA 
HETATM    2  C   UNL     1     -11.769  12.184  68.204  1.00  0.00    -0.341 C  
HETATM    3  H   UNL     1     -11.248  10.278  67.875  1.00  0.00     0.000 HD 
ENDROOT
BRANCH   2   4
HETATM    4  C   UNL     1     -11.765  12.559  66.732  1.00  0.00    -0.453 A  
HETATM    5  C   UNL     1     -11.795  13.299  64.017  1.00  0.00    -0.512 A  
HETATM    6  C   UNL     1     -12.387  13.750  66.316  1.00  0.00    -0.479 A  
HETATM    7  C   UNL     1     -11.152  11.755  65.761  1.00  0.00    -0.351 A  
HETATM    8  C   UNL     1     -11.162  12.124  64.413  1.00  0.00    -0.400 A  
HETATM    9  C   UNL     1     -12.409  14.111  64.967  1.00  0.00    -0.452 A  
ENDBRANCH   2   4
BRANCH   2  10
HETATM   10  C   UNL     1     -11.386  13.361  69.119  1.00  0.00    -0.280 C  
HETATM   11  O   UNL     1     -10.339  13.989  68.936  1.00  0.00    -0.231 OA 
BRANCH  10  12
HETATM   12  C   UNL     1     -12.269  13.762  70.255  1.00  0.00    -0.429 A  
HETATM   13  C   UNL     1     -12.580  15.121  70.400  1.00  0.00    -0.405 A  
HETATM   14  C   UNL     1     -13.910  14.629  72.355  1.00  0.00    -0.580 A  
HETATM   15  C   UNL     1     -13.394  15.553  71.450  1.00  0.00    -0.592 A  
HETATM   16  C   UNL     1     -13.625  13.273  72.206  1.00  0.00    -0.703 A  
HETATM   17  C   UNL     1     -12.814  12.840  71.156  1.00  0.00    -0.315 A  
ENDBRANCH  10  12
ENDBRANCH   2  10
TORSDOF 3
ENDMDL
MODEL       18
REMARK 921   NORMALIZED FREE ENERGY PREDICTED BY IDOCK:   -5.77 KCAL/MOL
REMARK 922        TOTAL FREE ENERGY PREDICTED BY IDOCK:   -7.12 KCAL/MOL
REMARK 923 INTER-LIGAND FREE ENERGY PREDICTED BY IDOCK:   -6.58 KCAL/MOL
REMARK 924 INTRA-LIGAND FREE ENERGY PREDICTED BY IDOCK:   -0.54 KCAL/MOL
REMARK 927      BINDING AFFINITY PREDICTED BY RF-SCORE:    0.00 PKD
ROOT
HETATM    1  O   UNL     1      -8.957  14.375  68.556  1.00  0.00    -0.183 OA 
HETATM    2  C   UNL     1     -10.374  14.271  68.550  1.00  0.00    -0.244 C  
HETATM    3  H   UNL     1      -8.528  13.812  67.923  1.00  0.00     0.000 HD 
ENDROOT
BRANCH   2   4
HETATM    4  C   UNL     1     -10.934  14.433  67.147  1.00  0.00    -0.305 A  
HETATM    5  C   UNL     1     -11.932  14.779  64.538  1.00  0.00    -0.451 A  
HETATM    6  C   UNL     1     -10.311  15.317  66.248  1.00  0.00    -0.303 A  
HETATM    7  C   UNL     1     -12.059  13.721  66.707  1.00  0.00    -0.460 A  
HETATM    8  C   UNL     1     -12.552  13.888  65.411  1.00  0.00    -0.538 A  
HETATM    9  C   UNL     1     -10.813  15.494  64.956  1.00  0.00    -0.468 A  
ENDBRANCH   2   4
BRANCH   2  10
HETATM   10  C   UNL     1     -11.069  15.183  69.577  1.00  0.00    -0.277 C  
HETATM   11  O   UNL     1     -10.773  16.379  69.663  1.00  0.00    -0.311 OA 
BRANCH  10  12
HETATM   12  C   UNL     1     -12.108  14.637  70.500  1.00  0.00    -0.388 A  
HETATM   13  C   UNL     1     -12.944  15.548  71.163  1.00  0.00    -0.560 A  
HETATM   14  C   UNL     1     -14.089  13.727  72.262  1.00  0.00    -0.627 A  
HETATM   15  C   UNL     1     -13.927  15.094  72.045  1.00  0.00    -0.629 A  
HETATM   16  C   UNL     1     -13.279  12.814  71.591  1.00  0.00    -0.410 A  
HETATM   17  C   UNL     1     -12.297  13.267  70.708  1.00  0.00    -0.425 A  
ENDBRANCH  10  12
ENDBRANCH   2  10
TORSDOF 3
ENDMDL
MODEL       19
REMARK 921   NORMALIZED FREE ENERGY PREDICTED BY IDOCK:   -5.75 KCAL/MOL
REMARK 922        TOTAL FREE ENERGY PREDICTED BY IDOCK:   -7.10 KCAL/MOL
REMARK 923 INTER-LIGAND FREE ENERGY PREDICTED BY IDOCK:   -6.58 KCAL/MOL
REMARK 924 INTRA-LIGAND FREE ENERGY PREDICTED BY IDOCK:   -0.52 KCAL/MOL
REMARK 927      BINDING AFFINITY PREDICTED BY RF-SCORE:    0.00 PKD
ROOT
HETATM    1  O   UNL     1      -9.509  15.290  70.054  1.00  0.00    -0.451 OA 
HETATM    2  C   UNL     1     -10.161  15.319  68.792  1.00  0.00    -0.227 C  
HETATM    3  H   UNL     1      -8.667  15.729  70.062  1.00  0.00     0.000 HD 
ENDROOT
BRANCH   2   4
HETATM    4  C   UNL     1     -10.232  16.732  68.239  1.00  0.00    -0.295 A  
HETATM    5  C   UNL     1     -10.357  19.328  67.160  1.00  0.00    -0.533 A  
HETATM    6  C   UNL     1     -10.331  16.931  66.851  1.00  0.00    -0.304 A  
HETATM    7  C   UNL     1     -10.207  17.859  69.073  1.00  0.00    -0.274 A  
HETATM    8  C   UNL     1     -10.274  19.148  68.538  1.00  0.00    -0.448 A  
HETATM    9  C   UNL     1     -10.385  18.221  66.316  1.00  0.00    -0.422 A  
ENDBRANCH   2   4
BRANCH   2  10
HETATM   10  C   UNL     1     -11.526  14.607  68.780  1.00  0.00    -0.296 C  
HETATM   11  O   UNL     1     -11.992  14.149  67.732  1.00  0.00    -0.366 OA 
BRANCH  10  12
HETATM   12  C   UNL     1     -12.322  14.464  70.036  1.00  0.00    -0.391 A  
HETATM   13  C   UNL     1     -12.346  13.210  70.662  1.00  0.00    -0.405 A  
HETATM   14  C   UNL     1     -13.787  14.079  72.394  1.00  0.00    -0.653 A  
HETATM   15  C   UNL     1     -13.081  13.017  71.834  1.00  0.00    -0.483 A  
HETATM   16  C   UNL     1     -13.751  15.335  71.792  1.00  0.00    -0.605 A  
HETATM   17  C   UNL     1     -13.015  15.529  70.621  1.00  0.00    -0.425 A  
ENDBRANCH  10  12
ENDBRANCH   2  10
TORSDOF 3
ENDMDL
MODEL       20
REMARK 921   NORMALIZED FREE ENERGY PREDICTED BY IDOCK:   -5.75 KCAL/MOL
REMARK 922        TOTAL FREE ENERGY PREDICTED BY IDOCK:   -7.09 KCAL/MOL
REMARK 923 INTER-LIGAND FREE ENERGY PREDICTED BY IDOCK:   -6.77 KCAL/MOL
REMARK 924 INTRA-LIGAND FREE ENERGY PREDICTED BY IDOCK:   -0.33 KCAL/MOL
REMARK 927      BINDING AFFINITY PREDICTED BY RF-SCORE:    0.00 PKD
ROOT
HETATM    1  O   UNL     1     -11.894  10.392  68.123  1.00  0.00    -0.761 OA 
HETATM    2  C   UNL     1     -11.145  11.337  68.876  1.00  0.00    -0.238 C  
HETATM    3  H   UNL     1     -12.278   9.700  68.649  1.00  0.00     0.000 HD 
ENDROOT
BRANCH   2   4
HETATM    4  C   UNL     1     -11.950  11.870  70.050  1.00  0.00    -0.409 A  
HETATM    5  C   UNL     1     -13.424  12.912  72.208  1.00  0.00    -0.631 A  
HETATM    6  C   UNL     1     -12.146  13.255  70.186  1.00  0.00    -0.403 A  
HETATM    7  C   UNL     1     -12.517  11.020  71.010  1.00  0.00    -0.512 A  
HETATM    8  C   UNL     1     -13.253  11.536  72.079  1.00  0.00    -0.443 A  
HETATM    9  C   UNL     1     -12.870  13.772  71.263  1.00  0.00    -0.434 A  
ENDBRANCH   2   4
BRANCH   2  10
HETATM   10  C   UNL     1     -10.523  12.458  68.024  1.00  0.00    -0.217 C  
HETATM   11  O   UNL     1      -9.542  13.088  68.428  1.00  0.00    -0.221 OA 
BRANCH  10  12
HETATM   12  C   UNL     1     -11.101  12.814  66.693  1.00  0.00    -0.313 A  
HETATM   13  C   UNL     1     -10.583  12.174  65.558  1.00  0.00    -0.314 A  
HETATM   14  C   UNL     1     -12.105  13.408  64.145  1.00  0.00    -0.491 A  
HETATM   15  C   UNL     1     -11.080  12.475  64.288  1.00  0.00    -0.403 A  
HETATM   16  C   UNL     1     -12.641  14.032  65.269  1.00  0.00    -0.495 A  
HETATM   17  C   UNL     1     -12.146  13.730  66.540  1.00  0.00    -0.483 A  
ENDBRANCH  10  12
ENDBRANCH   2  10
TORSDOF 3
ENDMDL
MODEL       21
REMARK 921   NORMALIZED FREE ENERGY PREDICTED BY IDOCK:   -5.74 KCAL/MOL
REMARK 922        TOTAL FREE ENERGY PREDICTED BY IDOCK:   -7.08 KCAL/MOL
REMARK 923 INTER-LIGAND FREE ENERGY PREDICTED BY IDOCK:   -6.71 KCAL/MOL
REMARK 924 INTRA-LIGAND FREE ENERGY PREDICTED BY IDOCK:   -0.37 KCAL/MOL
REMARK 927      BINDING AFFINITY PREDICTED BY RF-SCORE:    0.00 PKD
ROOT
HETATM    1  O   UNL     1     -11.479  16.432  63.840  1.00  0.00    -1.569 OA 
HETATM    2  C   UNL     1     -11.240  16.045  65.186  1.00  0.00    -0.189 C  
HETATM    3  H   UNL     1     -11.680  17.355  63.735  1.00  0.00     0.000 HD 
ENDROOT
BRANCH   2   4
HETATM    4  C   UNL     1     -10.210  16.948  65.845  1.00  0.00    -0.330 A  
HETATM    5  C   UNL     1      -8.267  18.573  67.071  1.00  0.00    -0.252 A  
HETATM    6  C   UNL     1      -8.921  16.453  66.112  1.00  0.00    -0.367 A  
HETATM    7  C   UNL     1     -10.499  18.274  66.196  1.00  0.00    -0.403 A  
HETATM    8  C   UNL     1      -9.534  19.083  66.800  1.00  0.00    -0.365 A  
HETATM    9  C   UNL     1      -7.961  17.258  66.729  1.00  0.00    -0.276 A  
ENDBRANCH   2   4
BRANCH   2  10
HETATM   10  C   UNL     1     -10.915  14.550  65.355  1.00  0.00    -0.342 C  
HETATM   11  O   UNL     1     -10.351  13.920  64.455  1.00  0.00    -0.436 OA 
BRANCH  10  12
HETATM   12  C   UNL     1     -11.287  13.827  66.608  1.00  0.00    -0.340 A  
HETATM   13  C   UNL     1     -11.674  14.590  67.719  1.00  0.00    -0.403 A  
HETATM   14  C   UNL     1     -11.999  12.576  69.013  1.00  0.00    -0.280 A  
HETATM   15  C   UNL     1     -12.024  13.966  68.918  1.00  0.00    -0.393 A  
HETATM   16  C   UNL     1     -11.637  11.809  67.908  1.00  0.00    -0.377 A  
HETATM   17  C   UNL     1     -11.289  12.432  66.707  1.00  0.00    -0.391 A  
ENDBRANCH  10  12
ENDBRANCH   2  10
TORSDOF 3
ENDMDL
MODEL       22
REMARK 921   NORMALIZED FREE ENERGY PREDICTED BY IDOCK:   -5.72 KCAL/MOL
REMARK 922        TOTAL FREE ENERGY PREDICTED BY IDOCK:   -7.06 KCAL/MOL
REMARK 923 INTER-LIGAND FREE ENERGY PREDICTED BY IDOCK:   -6.35 KCAL/MOL
REMARK 924 INTRA-LIGAND FREE ENERGY PREDICTED BY IDOCK:   -0.72 KCAL/MOL
REMARK 927      BINDING AFFINITY PREDICTED BY RF-SCORE:    0.00 PKD
ROOT
HETATM    1  O   UNL     1     -12.222  14.380  63.817  1.00  0.00    -0.929 OA 
HETATM    2  C   UNL     1     -11.042  14.587  64.582  1.00  0.00    -0.346 C  
HETATM    3  H   UNL     1     -12.374  13.473  63.584  1.00  0.00     0.000 HD 
ENDROOT
BRANCH   2   4
HETATM    4  C   UNL     1     -10.993  13.657  65.782  1.00  0.00    -0.281 A  
HETATM    5  C   UNL     1     -10.848  11.914  67.987  1.00  0.00    -0.256 A  
HETATM    6  C   UNL     1      -9.817  12.934  66.054  1.00  0.00    -0.256 A  
HETATM    7  C   UNL     1     -12.087  13.495  66.644  1.00  0.00    -0.447 A  
HETATM    8  C   UNL     1     -12.014  12.633  67.741  1.00  0.00    -0.303 A  
HETATM    9  C   UNL     1      -9.750  12.063  67.144  1.00  0.00    -0.203 A  
ENDBRANCH   2   4
BRANCH   2  10
HETATM   10  C   UNL     1     -10.795  16.059  64.959  1.00  0.00    -0.404 C  
HETATM   11  O   UNL     1     -11.211  16.973  64.242  1.00  0.00    -1.186 OA 
BRANCH  10  12
HETATM   12  C   UNL     1     -10.037  16.411  66.197  1.00  0.00    -0.364 A  
HETATM   13  C   UNL     1     -10.762  16.875  67.304  1.00  0.00    -0.208 A  
HETATM   14  C   UNL     1      -8.717  17.109  68.569  1.00  0.00    -0.261 A  
HETATM   15  C   UNL     1     -10.103  17.227  68.484  1.00  0.00    -0.341 A  
HETATM   16  C   UNL     1      -7.991  16.628  67.482  1.00  0.00    -0.186 A  
HETATM   17  C   UNL     1      -8.649  16.273  66.303  1.00  0.00    -0.374 A  
ENDBRANCH  10  12
ENDBRANCH   2  10
TORSDOF 3
ENDMDL
MODEL       23
REMARK 921   NORMALIZED FREE ENERGY PREDICTED BY IDOCK:   -5.72 KCAL/MOL
REMARK 922        TOTAL FREE ENERGY PREDICTED BY IDOCK:   -7.06 KCAL/MOL
REMARK 923 INTER-LIGAND FREE ENERGY PREDICTED BY IDOCK:   -6.47 KCAL/MOL
REMARK 924 INTRA-LIGAND FREE ENERGY PREDICTED BY IDOCK:   -0.59 KCAL/MOL
REMARK 927      BINDING AFFINITY PREDICTED BY RF-SCORE:    0.00 PKD
ROOT
HETATM    1  O   UNL     1     -12.248  10.809  68.413  1.00  0.00    -0.832 OA 
HETATM    2  C   UNL     1     -12.075  10.660  69.816  1.00  0.00    -0.272 C  
HETATM    3  H   UNL     1     -13.092  11.168  68.166  1.00  0.00     0.000 HD 
ENDROOT
BRANCH   2   4
HETATM    4  C   UNL     1     -12.404  11.948  70.552  1.00  0.00    -0.372 A  
HETATM    5  C   UNL     1     -12.978  14.363  71.878  1.00  0.00    -0.426 A  
HETATM    6  C   UNL     1     -11.984  13.180  70.020  1.00  0.00    -0.391 A  
HETATM    7  C   UNL     1     -13.124  11.954  71.755  1.00  0.00    -0.465 A  
HETATM    8  C   UNL     1     -13.414  13.153  72.411  1.00  0.00    -0.643 A  
HETATM    9  C   UNL     1     -12.262  14.377  70.683  1.00  0.00    -0.414 A  
ENDBRANCH   2   4
BRANCH   2  10
HETATM   10  C   UNL     1     -10.708  10.078  70.216  1.00  0.00    -0.309 C  
HETATM   11  O   UNL     1      -9.683  10.397  69.606  1.00  0.00    -0.205 OA 
BRANCH  10  12
HETATM   12  C   UNL     1     -10.594   9.105  71.344  1.00  0.00    -0.412 A  
HETATM   13  C   UNL     1      -9.330   8.911  71.920  1.00  0.00    -0.275 A  
HETATM   14  C   UNL     1     -10.260   7.299  73.460  1.00  0.00    -0.404 A  
HETATM   15  C   UNL     1      -9.164   8.007  72.971  1.00  0.00    -0.337 A  
HETATM   16  C   UNL     1     -11.523   7.503  72.909  1.00  0.00    -0.311 A  
HETATM   17  C   UNL     1     -11.691   8.408  71.859  1.00  0.00    -0.398 A  
ENDBRANCH  10  12
ENDBRANCH   2  10
TORSDOF 3
ENDMDL
MODEL       24
REMARK 921   NORMALIZED FREE ENERGY PREDICTED BY IDOCK:   -5.67 KCAL/MOL
REMARK 922        TOTAL FREE ENERGY PREDICTED BY IDOCK:   -7.01 KCAL/MOL
REMARK 923 INTER-LIGAND FREE ENERGY PREDICTED BY IDOCK:   -6.48 KCAL/MOL
REMARK 924 INTRA-LIGAND FREE ENERGY PREDICTED BY IDOCK:   -0.53 KCAL/MOL
REMARK 927      BINDING AFFINITY PREDICTED BY RF-SCORE:    0.00 PKD
ROOT
HETATM    1  O   UNL     1      -9.750  13.832  69.185  1.00  0.00    -0.410 OA 
HETATM    2  C   UNL     1     -10.433  15.053  69.437  1.00  0.00    -0.247 C  
HETATM    3  H   UNL     1      -9.377  13.433  69.962  1.00  0.00     0.000 HD 
ENDROOT
BRANCH   2   4
HETATM    4  C   UNL     1     -11.445  14.897  70.559  1.00  0.00    -0.310 A  
HETATM    5  C   UNL     1     -13.299  14.658  72.663  1.00  0.00    -0.577 A  
HETATM    6  C   UNL     1     -11.595  15.924  71.508  1.00  0.00    -0.537 A  
HETATM    7  C   UNL     1     -12.250  13.755  70.683  1.00  0.00    -0.434 A  
HETATM    8  C   UNL     1     -13.174  13.638  71.724  1.00  0.00    -0.477 A  
HETATM    9  C   UNL     1     -12.509  15.800  72.557  1.00  0.00    -0.542 A  
ENDBRANCH   2   4
BRANCH   2  10
HETATM   10  C   UNL     1     -11.036  15.700  68.177  1.00  0.00    -0.330 C  
HETATM   11  O   UNL     1     -11.380  16.885  68.179  1.00  0.00    -0.217 OA 
BRANCH  10  12
HETATM   12  C   UNL     1     -11.229  14.902  66.929  1.00  0.00    -0.343 A  
HETATM   13  C   UNL     1     -10.279  15.041  65.906  1.00  0.00    -0.335 A  
HETATM   14  C   UNL     1     -11.493  13.461  64.540  1.00  0.00    -0.402 A  
HETATM   15  C   UNL     1     -10.415  14.326  64.714  1.00  0.00    -0.421 A  
HETATM   16  C   UNL     1     -12.428  13.300  65.560  1.00  0.00    -0.531 A  
HETATM   17  C   UNL     1     -12.293  14.012  66.753  1.00  0.00    -0.368 A  
ENDBRANCH  10  12
ENDBRANCH   2  10
TORSDOF 3
ENDMDL
MODEL       25
REMARK 921   NORMALIZED FREE ENERGY PREDICTED BY IDOCK:   -5.65 KCAL/MOL
REMARK 922        TOTAL FREE ENERGY PREDICTED BY IDOCK:   -6.98 KCAL/MOL
REMARK 923 INTER-LIGAND FREE ENERGY PREDICTED BY IDOCK:   -6.77 KCAL/MOL
REMARK 924 INTRA-LIGAND FREE ENERGY PREDICTED BY IDOCK:   -0.21 KCAL/MOL
REMARK 927      BINDING AFFINITY PREDICTED BY RF-SCORE:    0.00 PKD
ROOT
HETATM    1  O   UNL     1      -9.797  14.469  69.717  1.00  0.00    -0.408 OA 
HETATM    2  C   UNL     1     -10.534  15.683  69.779  1.00  0.00    -0.308 C  
HETATM    3  H   UNL     1      -9.524  14.143  70.566  1.00  0.00     0.000 HD 
ENDROOT
BRANCH   2   4
HETATM    4  C   UNL     1     -11.684  15.581  70.766  1.00  0.00    -0.397 A  
HETATM    5  C   UNL     1     -13.851  15.379  72.550  1.00  0.00    -0.651 A  
HETATM    6  C   UNL     1     -12.934  15.106  70.331  1.00  0.00    -0.296 A  
HETATM    7  C   UNL     1     -11.542  15.942  72.114  1.00  0.00    -0.515 A  
HETATM    8  C   UNL     1     -12.616  15.837  73.001  1.00  0.00    -0.592 A  
HETATM    9  C   UNL     1     -14.011  15.014  71.216  1.00  0.00    -0.525 A  
ENDBRANCH   2   4
BRANCH   2  10
HETATM   10  C   UNL     1     -10.976  16.212  68.403  1.00  0.00    -0.341 C  
HETATM   11  O   UNL     1     -11.616  15.497  67.626  1.00  0.00    -0.274 OA 
BRANCH  10  12
HETATM   12  C   UNL     1     -10.629  17.600  67.973  1.00  0.00    -0.379 A  
HETATM   13  C   UNL     1     -10.715  17.907  66.607  1.00  0.00    -0.137 A  
HETATM   14  C   UNL     1      -9.994  20.169  67.051  1.00  0.00    -0.596 A  
HETATM   15  C   UNL     1     -10.394  19.186  66.148  1.00  0.00    -0.561 A  
HETATM   16  C   UNL     1      -9.927  19.880  68.411  1.00  0.00    -0.531 A  
HETATM   17  C   UNL     1     -10.250  18.602  68.872  1.00  0.00    -0.262 A  
ENDBRANCH  10  12
ENDBRANCH   2  10
TORSDOF 3
ENDMDL
MODEL       26
REMARK 921   NORMALIZED FREE ENERGY PREDICTED BY IDOCK:   -5.65 KCAL/MOL
REMARK 922        TOTAL FREE ENERGY PREDICTED BY IDOCK:   -6.98 KCAL/MOL
REMARK 923 INTER-LIGAND FREE ENERGY PREDICTED BY IDOCK:   -6.39 KCAL/MOL
REMARK 924 INTRA-LIGAND FREE ENERGY PREDICTED BY IDOCK:   -0.60 KCAL/MOL
REMARK 927      BINDING AFFINITY PREDICTED BY RF-SCORE:    0.00 PKD
ROOT
HETATM    1  O   UNL     1     -13.091   7.337  70.898  1.00  0.00    -0.594 OA 
HETATM    2  C   UNL     1     -12.327   8.509  71.150  1.00  0.00    -0.206 C  
HETATM    3  H   UNL     1     -12.588   6.625  70.520  1.00  0.00     0.000 HD 
ENDROOT
BRANCH   2   4
HETATM    4  C   UNL     1     -11.073   8.190  71.946  1.00  0.00    -0.346 A  
HETATM    5  C   UNL     1      -8.717   7.627  73.379  1.00  0.00    -0.253 A  
HETATM    6  C   UNL     1      -9.844   8.754  71.562  1.00  0.00    -0.371 A  
HETATM    7  C   UNL     1     -11.097   7.348  73.067  1.00  0.00    -0.390 A  
HETATM    8  C   UNL     1      -9.929   7.072  73.782  1.00  0.00    -0.367 A  
HETATM    9  C   UNL     1      -8.674   8.466  72.269  1.00  0.00    -0.277 A  
ENDBRANCH   2   4
BRANCH   2  10
HETATM   10  C   UNL     1     -13.142   9.663  71.761  1.00  0.00    -0.421 C  
HETATM   11  O   UNL     1     -14.035   9.440  72.584  1.00  0.00    -0.395 OA 
BRANCH  10  12
HETATM   12  C   UNL     1     -12.878  11.077  71.361  1.00  0.00    -0.548 A  
HETATM   13  C   UNL     1     -13.398  12.098  72.170  1.00  0.00    -0.438 A  
HETATM   14  C   UNL     1     -12.451  13.768  70.704  1.00  0.00    -0.429 A  
HETATM   15  C   UNL     1     -13.189  13.439  71.839  1.00  0.00    -0.522 A  
HETATM   16  C   UNL     1     -11.912  12.761  69.907  1.00  0.00    -0.368 A  
HETATM   17  C   UNL     1     -12.118  11.421  70.238  1.00  0.00    -0.459 A  
ENDBRANCH  10  12
ENDBRANCH   2  10
TORSDOF 3
ENDMDL
MODEL       27
REMARK 921   NORMALIZED FREE ENERGY PREDICTED BY IDOCK:   -5.64 KCAL/MOL
REMARK 922        TOTAL FREE ENERGY PREDICTED BY IDOCK:   -6.97 KCAL/MOL
REMARK 923 INTER-LIGAND FREE ENERGY PREDICTED BY IDOCK:   -6.59 KCAL/MOL
REMARK 924 INTRA-LIGAND FREE ENERGY PREDICTED BY IDOCK:   -0.38 KCAL/MOL
REMARK 927      BINDING AFFINITY PREDICTED BY RF-SCORE:    0.00 PKD
ROOT
HETATM    1  O   UNL     1     -10.023  10.235  70.041  1.00  0.00    -0.387 OA 
HETATM    2  C   UNL     1     -11.243  10.593  70.675  1.00  0.00    -0.095 C  
HETATM    3  H   UNL     1      -9.534   9.563  70.500  1.00  0.00     0.000 HD 
ENDROOT
BRANCH   2   4
HETATM    4  C   UNL     1     -12.083   9.367  70.989  1.00  0.00    -0.373 A  
HETATM    5  C   UNL     1     -13.684   7.131  71.586  1.00  0.00    -0.406 A  
HETATM    6  C   UNL     1     -13.438   9.522  71.331  1.00  0.00    -0.405 A  
HETATM    7  C   UNL     1     -11.553   8.070  70.943  1.00  0.00    -0.284 A  
HETATM    8  C   UNL     1     -12.348   6.959  71.235  1.00  0.00    -0.422 A  
HETATM    9  C   UNL     1     -14.229   8.411  71.635  1.00  0.00    -0.516 A  
ENDBRANCH   2   4
BRANCH   2  10
HETATM   10  C   UNL     1     -12.035  11.683  69.930  1.00  0.00    -0.340 C  
HETATM   11  O   UNL     1     -12.306  11.559  68.732  1.00  0.00    -0.425 OA 
BRANCH  10  12
HETATM   12  C   UNL     1     -12.481  12.919  70.639  1.00  0.00    -0.333 A  
HETATM   13  C   UNL     1     -12.224  14.156  70.031  1.00  0.00    -0.418 A  
HETATM   14  C   UNL     1     -13.268  15.305  71.882  1.00  0.00    -0.506 A  
HETATM   15  C   UNL     1     -12.611  15.345  70.654  1.00  0.00    -0.491 A  
HETATM   16  C   UNL     1     -13.548  14.080  72.482  1.00  0.00    -0.670 A  
HETATM   17  C   UNL     1     -13.163  12.891  71.860  1.00  0.00    -0.521 A  
ENDBRANCH  10  12
ENDBRANCH   2  10
TORSDOF 3
ENDMDL
MODEL       28
REMARK 921   NORMALIZED FREE ENERGY PREDICTED BY IDOCK:   -5.64 KCAL/MOL
REMARK 922        TOTAL FREE ENERGY PREDICTED BY IDOCK:   -6.97 KCAL/MOL
REMARK 923 INTER-LIGAND FREE ENERGY PREDICTED BY IDOCK:   -6.42 KCAL/MOL
REMARK 924 INTRA-LIGAND FREE ENERGY PREDICTED BY IDOCK:   -0.55 KCAL/MOL
REMARK 927      BINDING AFFINITY PREDICTED BY RF-SCORE:    0.00 PKD
ROOT
HETATM    1  O   UNL     1      -8.392  15.782  66.277  1.00  0.00    -0.306 OA 
HETATM    2  C   UNL     1      -9.331  16.699  65.731  1.00  0.00    -0.032 C  
HETATM    3  H   UNL     1      -7.603  16.193  66.608  1.00  0.00     0.000 HD 
ENDROOT
BRANCH   2   4
HETATM    4  C   UNL     1      -9.621  17.833  66.699  1.00  0.00    -0.311 A  
HETATM    5  C   UNL     1     -10.166  19.895  68.535  1.00  0.00    -0.529 A  
HETATM    6  C   UNL     1      -9.769  17.557  68.070  1.00  0.00    -0.287 A  
HETATM    7  C   UNL     1      -9.743  19.163  66.271  1.00  0.00    -0.412 A  
HETATM    8  C   UNL     1     -10.008  20.188  67.183  1.00  0.00    -0.595 A  
HETATM    9  C   UNL     1     -10.048  18.581  68.979  1.00  0.00    -0.276 A  
ENDBRANCH   2   4
BRANCH   2  10
HETATM   10  C   UNL     1     -10.611  16.032  65.195  1.00  0.00    -0.370 C  
HETATM   11  O   UNL     1     -11.348  16.626  64.402  1.00  0.00    -1.023 OA 
BRANCH  10  12
HETATM   12  C   UNL     1     -10.994  14.656  65.632  1.00  0.00    -0.336 A  
HETATM   13  C   UNL     1     -11.503  14.495  66.928  1.00  0.00    -0.375 A  
HETATM   14  C   UNL     1     -11.738  12.119  66.561  1.00  0.00    -0.392 A  
HETATM   15  C   UNL     1     -11.869  13.230  67.392  1.00  0.00    -0.413 A  
HETATM   16  C   UNL     1     -11.255  12.273  65.264  1.00  0.00    -0.372 A  
HETATM   17  C   UNL     1     -10.890  13.538  64.798  1.00  0.00    -0.392 A  
ENDBRANCH  10  12
ENDBRANCH   2  10
TORSDOF 3
ENDMDL
MODEL       29
REMARK 921   NORMALIZED FREE ENERGY PREDICTED BY IDOCK:   -5.62 KCAL/MOL
REMARK 922        TOTAL FREE ENERGY PREDICTED BY IDOCK:   -6.95 KCAL/MOL
REMARK 923 INTER-LIGAND FREE ENERGY PREDICTED BY IDOCK:   -6.15 KCAL/MOL
REMARK 924 INTRA-LIGAND FREE ENERGY PREDICTED BY IDOCK:   -0.80 KCAL/MOL
REMARK 927      BINDING AFFINITY PREDICTED BY RF-SCORE:    0.00 PKD
ROOT
HETATM    1  O   UNL     1     -12.597  14.361  68.635  1.00  0.00    -0.542 OA 
HETATM    2  C   UNL     1     -11.418  13.617  68.356  1.00  0.00    -0.311 C  
HETATM    3  H   UNL     1     -12.436  15.178  69.091  1.00  0.00     0.000 HD 
ENDROOT
BRANCH   2   4
HETATM    4  C   UNL     1     -10.372  14.478  67.668  1.00  0.00    -0.237 A  
HETATM    5  C   UNL     1      -8.479  16.102  66.366  1.00  0.00    -0.369 A  
HETATM    6  C   UNL     1     -10.777  15.595  66.916  1.00  0.00    -0.307 A  
HETATM    7  C   UNL     1      -9.001  14.199  67.760  1.00  0.00    -0.187 A  
HETATM    8  C   UNL     1      -8.060  15.008  67.118  1.00  0.00    -0.245 A  
HETATM    9  C   UNL     1      -9.836  16.395  66.263  1.00  0.00    -0.336 A  
ENDBRANCH   2   4
BRANCH   2  10
HETATM   10  C   UNL     1     -11.679  12.292  67.617  1.00  0.00    -0.334 C  
HETATM   11  O   UNL     1     -12.022  11.280  68.235  1.00  0.00    -0.582 OA 
BRANCH  10  12
HETATM   12  C   UNL     1     -11.511  12.201  66.135  1.00  0.00    -0.429 A  
HETATM   13  C   UNL     1     -12.455  12.848  65.324  1.00  0.00    -0.552 A  
HETATM   14  C   UNL     1     -11.299  12.090  63.343  1.00  0.00    -0.484 A  
HETATM   15  C   UNL     1     -12.351  12.788  63.933  1.00  0.00    -0.510 A  
HETATM   16  C   UNL     1     -10.345  11.464  64.140  1.00  0.00    -0.400 A  
HETATM   17  C   UNL     1     -10.446  11.524  65.532  1.00  0.00    -0.327 A  
ENDBRANCH  10  12
ENDBRANCH   2  10
TORSDOF 3
ENDMDL
MODEL       30
REMARK 921   NORMALIZED FREE ENERGY PREDICTED BY IDOCK:   -5.58 KCAL/MOL
REMARK 922        TOTAL FREE ENERGY PREDICTED BY IDOCK:   -6.89 KCAL/MOL
REMARK 923 INTER-LIGAND FREE ENERGY PREDICTED BY IDOCK:   -6.47 KCAL/MOL
REMARK 924 INTRA-LIGAND FREE ENERGY PREDICTED BY IDOCK:   -0.42 KCAL/MOL
REMARK 927      BINDING AFFINITY PREDICTED BY RF-SCORE:    0.00 PKD
ROOT
HETATM    1  O   UNL     1     -12.377  13.663  63.007  1.00  0.00    -1.041 OA 
HETATM    2  C   UNL     1     -11.620  13.634  64.209  1.00  0.00    -0.382 C  
HETATM    3  H   UNL     1     -11.879  13.431  62.234  1.00  0.00     0.000 HD 
ENDROOT
BRANCH   2   4
HETATM    4  C   UNL     1     -10.879  12.316  64.363  1.00  0.00    -0.370 A  
HETATM    5  C   UNL     1      -9.503   9.872  64.587  1.00  0.00    -0.343 A  
HETATM    6  C   UNL     1     -10.283  11.719  63.238  1.00  0.00    -0.452 A  
HETATM    7  C   UNL     1     -10.762  11.668  65.601  1.00  0.00    -0.330 A  
HETATM    8  C   UNL     1     -10.074  10.457  65.714  1.00  0.00    -0.329 A  
HETATM    9  C   UNL     1      -9.608  10.501  63.350  1.00  0.00    -0.376 A  
ENDBRANCH   2   4
BRANCH   2  10
HETATM   10  C   UNL     1     -12.428  14.012  65.463  1.00  0.00    -0.509 C  
HETATM   11  O   UNL     1     -13.654  13.866  65.493  1.00  0.00    -0.579 OA 
BRANCH  10  12
HETATM   12  C   UNL     1     -11.747  14.575  66.668  1.00  0.00    -0.384 A  
HETATM   13  C   UNL     1     -10.764  15.555  66.470  1.00  0.00    -0.304 A  
HETATM   14  C   UNL     1     -10.399  15.697  68.854  1.00  0.00    -0.218 A  
HETATM   15  C   UNL     1     -10.089  16.109  67.559  1.00  0.00    -0.256 A  
HETATM   16  C   UNL     1     -11.390  14.741  69.061  1.00  0.00    -0.295 A  
HETATM   17  C   UNL     1     -12.067  14.187  67.973  1.00  0.00    -0.303 A  
ENDBRANCH  10  12
ENDBRANCH   2  10
TORSDOF 3
ENDMDL
MODEL       31
REMARK 921   NORMALIZED FREE ENERGY PREDICTED BY IDOCK:   -5.56 KCAL/MOL
REMARK 922        TOTAL FREE ENERGY PREDICTED BY IDOCK:   -6.88 KCAL/MOL
REMARK 923 INTER-LIGAND FREE ENERGY PREDICTED BY IDOCK:   -6.53 KCAL/MOL
REMARK 924 INTRA-LIGAND FREE ENERGY PREDICTED BY IDOCK:   -0.35 KCAL/MOL
REMARK 927      BINDING AFFINITY PREDICTED BY RF-SCORE:    0.00 PKD
ROOT
HETATM    1  O   UNL     1     -11.093  16.798  64.277  1.00  0.00    -1.301 OA 
HETATM    2  C   UNL     1     -10.895  16.454  65.641  1.00  0.00    -0.178 C  
HETATM    3  H   UNL     1     -11.732  17.488  64.143  1.00  0.00     0.000 HD 
ENDROOT
BRANCH   2   4
HETATM    4  C   UNL     1     -10.614  17.686  66.486  1.00  0.00    -0.207 A  
HETATM    5  C   UNL     1     -10.087  19.999  67.999  1.00  0.00    -0.557 A  
HETATM    6  C   UNL     1     -10.506  18.944  65.866  1.00  0.00    -0.450 A  
HETATM    7  C   UNL     1     -10.463  17.616  67.878  1.00  0.00    -0.392 A  
HETATM    8  C   UNL     1     -10.207  18.764  68.630  1.00  0.00    -0.366 A  
HETATM    9  C   UNL     1     -10.235  20.090  66.617  1.00  0.00    -0.597 A  
ENDBRANCH   2   4
BRANCH   2  10
HETATM   10  C   UNL     1      -9.860  15.336  65.857  1.00  0.00    -0.354 C  
HETATM   11  O   UNL     1      -8.664  15.603  66.006  1.00  0.00    -0.292 OA 
BRANCH  10  12
HETATM   12  C   UNL     1     -10.280  13.903  65.879  1.00  0.00    -0.326 A  
HETATM   13  C   UNL     1     -10.548  13.314  67.123  1.00  0.00    -0.259 A  
HETATM   14  C   UNL     1     -11.068  11.218  66.041  1.00  0.00    -0.181 A  
HETATM   15  C   UNL     1     -10.936  11.975  67.203  1.00  0.00    -0.320 A  
HETATM   16  C   UNL     1     -10.825  11.801  64.799  1.00  0.00    -0.358 A  
HETATM   17  C   UNL     1     -10.439  13.140  64.718  1.00  0.00    -0.390 A  
ENDBRANCH  10  12
ENDBRANCH   2  10
TORSDOF 3
ENDMDL
MODEL       32
REMARK 921   NORMALIZED FREE ENERGY PREDICTED BY IDOCK:   -5.56 KCAL/MOL
REMARK 922        TOTAL FREE ENERGY PREDICTED BY IDOCK:   -6.88 KCAL/MOL
REMARK 923 INTER-LIGAND FREE ENERGY PREDICTED BY IDOCK:   -6.42 KCAL/MOL
REMARK 924 INTRA-LIGAND FREE ENERGY PREDICTED BY IDOCK:   -0.46 KCAL/MOL
REMARK 927      BINDING AFFINITY PREDICTED BY RF-SCORE:    0.00 PKD
ROOT
HETATM    1  O   UNL     1     -12.357  14.127  68.436  1.00  0.00    -0.559 OA 
HETATM    2  C   UNL     1     -11.863  14.828  67.302  1.00  0.00    -0.293 C  
HETATM    3  H   UNL     1     -13.169  13.663  68.276  1.00  0.00     0.000 HD 
ENDROOT
BRANCH   2   4
HETATM    4  C   UNL     1     -11.792  13.924  66.083  1.00  0.00    -0.422 A  
HETATM    5  C   UNL     1     -11.630  12.209  63.858  1.00  0.00    -0.532 A  
HETATM    6  C   UNL     1     -11.276  12.622  66.212  1.00  0.00    -0.354 A  
HETATM    7  C   UNL     1     -12.233  14.342  64.820  1.00  0.00    -0.458 A  
HETATM    8  C   UNL     1     -12.157  13.490  63.715  1.00  0.00    -0.482 A  
HETATM    9  C   UNL     1     -11.189  11.775  65.105  1.00  0.00    -0.311 A  
ENDBRANCH   2   4
BRANCH   2  10
HETATM   10  C   UNL     1     -10.546  15.581  67.562  1.00  0.00    -0.297 C  
HETATM   11  O   UNL     1      -9.528  14.974  67.907  1.00  0.00    -0.193 OA 
BRANCH  10  12
HETATM   12  C   UNL     1     -10.475  17.065  67.413  1.00  0.00    -0.322 A  
HETATM   13  C   UNL     1     -10.503  17.599  66.116  1.00  0.00    -0.295 A  
HETATM   14  C   UNL     1     -10.341  19.836  67.012  1.00  0.00    -0.593 A  
HETATM   15  C   UNL     1     -10.431  18.979  65.917  1.00  0.00    -0.468 A  
HETATM   16  C   UNL     1     -10.335  19.316  68.304  1.00  0.00    -0.478 A  
HETATM   17  C   UNL     1     -10.409  17.937  68.505  1.00  0.00    -0.365 A  
ENDBRANCH  10  12
ENDBRANCH   2  10
TORSDOF 3
ENDMDL
MODEL       33
REMARK 921   NORMALIZED FREE ENERGY PREDICTED BY IDOCK:   -5.56 KCAL/MOL
REMARK 922        TOTAL FREE ENERGY PREDICTED BY IDOCK:   -6.87 KCAL/MOL
REMARK 923 INTER-LIGAND FREE ENERGY PREDICTED BY IDOCK:   -6.37 KCAL/MOL
REMARK 924 INTRA-LIGAND FREE ENERGY PREDICTED BY IDOCK:   -0.50 KCAL/MOL
REMARK 927      BINDING AFFINITY PREDICTED BY RF-SCORE:    0.00 PKD
ROOT
HETATM    1  O   UNL     1     -11.985  11.375  62.861  1.00  0.00    -0.898 OA 
HETATM    2  C   UNL     1     -11.291  12.023  63.919  1.00  0.00    -0.425 C  
HETATM    3  H   UNL     1     -11.434  10.818  62.325  1.00  0.00     0.000 HD 
ENDROOT
BRANCH   2   4
HETATM    4  C   UNL     1     -10.486  11.030  64.740  1.00  0.00    -0.384 A  
HETATM    5  C   UNL     1      -8.967   9.172  66.210  1.00  0.00    -0.194 A  
HETATM    6  C   UNL     1      -9.458  10.292  64.126  1.00  0.00    -0.358 A  
HETATM    7  C   UNL     1     -10.728  10.824  66.106  1.00  0.00    -0.187 A  
HETATM    8  C   UNL     1      -9.971   9.906  66.838  1.00  0.00    -0.268 A  
HETATM    9  C   UNL     1      -8.711   9.364  64.855  1.00  0.00    -0.220 A  
ENDBRANCH   2   4
BRANCH   2  10
HETATM   10  C   UNL     1     -12.185  12.927  64.787  1.00  0.00    -0.445 C  
HETATM   11  O   UNL     1     -13.399  12.720  64.873  1.00  0.00    -0.736 OA 
BRANCH  10  12
HETATM   12  C   UNL     1     -11.603  14.081  65.535  1.00  0.00    -0.333 A  
HETATM   13  C   UNL     1     -11.911  14.206  66.897  1.00  0.00    -0.479 A  
HETATM   14  C   UNL     1     -10.573  16.212  67.036  1.00  0.00    -0.292 A  
HETATM   15  C   UNL     1     -11.402  15.271  67.643  1.00  0.00    -0.315 A  
HETATM   16  C   UNL     1     -10.243  16.084  65.689  1.00  0.00    -0.412 A  
HETATM   17  C   UNL     1     -10.750  15.018  64.943  1.00  0.00    -0.420 A  
ENDBRANCH  10  12
ENDBRANCH   2  10
TORSDOF 3
ENDMDL
MODEL       34
REMARK 921   NORMALIZED FREE ENERGY PREDICTED BY IDOCK:   -5.55 KCAL/MOL
REMARK 922        TOTAL FREE ENERGY PREDICTED BY IDOCK:   -6.86 KCAL/MOL
REMARK 923 INTER-LIGAND FREE ENERGY PREDICTED BY IDOCK:   -6.44 KCAL/MOL
REMARK 924 INTRA-LIGAND FREE ENERGY PREDICTED BY IDOCK:   -0.42 KCAL/MOL
REMARK 927      BINDING AFFINITY PREDICTED BY RF-SCORE:    0.00 PKD
ROOT
HETATM    1  O   UNL     1     -11.245  16.693  64.002  1.00  0.00    -1.449 OA 
HETATM    2  C   UNL     1     -11.114  16.586  65.413  1.00  0.00    -0.019 C  
HETATM    3  H   UNL     1     -11.503  17.557  63.705  1.00  0.00     0.000 HD 
ENDROOT
BRANCH   2   4
HETATM    4  C   UNL     1     -10.228  17.687  65.970  1.00  0.00    -0.301 A  
HETATM    5  C   UNL     1      -8.546  19.686  67.017  1.00  0.00    -0.358 A  
HETATM    6  C   UNL     1      -8.922  17.382  66.393  1.00  0.00    -0.274 A  
HETATM    7  C   UNL     1     -10.667  19.015  66.074  1.00  0.00    -0.417 A  
HETATM    8  C   UNL     1      -9.831  20.008  66.589  1.00  0.00    -0.577 A  
HETATM    9  C   UNL     1      -8.092  18.373  66.921  1.00  0.00    -0.257 A  
ENDBRANCH   2   4
BRANCH   2  10
HETATM   10  C   UNL     1     -10.695  15.185  65.894  1.00  0.00    -0.334 C  
HETATM   11  O   UNL     1      -9.982  14.462  65.191  1.00  0.00    -0.354 OA 
BRANCH  10  12
HETATM   12  C   UNL     1     -11.154  14.665  67.217  1.00  0.00    -0.331 A  
HETATM   13  C   UNL     1     -11.212  13.275  67.394  1.00  0.00    -0.316 A  
HETATM   14  C   UNL     1     -12.006  13.578  69.655  1.00  0.00    -0.397 A  
HETATM   15  C   UNL     1     -11.642  12.734  68.608  1.00  0.00    -0.352 A  
HETATM   16  C   UNL     1     -11.929  14.959  69.496  1.00  0.00    -0.347 A  
HETATM   17  C   UNL     1     -11.498  15.501  68.284  1.00  0.00    -0.359 A  
ENDBRANCH  10  12
ENDBRANCH   2  10
TORSDOF 3
ENDMDL
MODEL       35
REMARK 921   NORMALIZED FREE ENERGY PREDICTED BY IDOCK:   -5.53 KCAL/MOL
REMARK 922        TOTAL FREE ENERGY PREDICTED BY IDOCK:   -6.84 KCAL/MOL
REMARK 923 INTER-LIGAND FREE ENERGY PREDICTED BY IDOCK:   -6.55 KCAL/MOL
REMARK 924 INTRA-LIGAND FREE ENERGY PREDICTED BY IDOCK:   -0.29 KCAL/MOL
REMARK 927      BINDING AFFINITY PREDICTED BY RF-SCORE:    0.00 PKD
ROOT
HETATM    1  O   UNL     1      -9.694  13.548  68.952  1.00  0.00    -0.410 OA 
HETATM    2  C   UNL     1     -10.638  12.738  68.265  1.00  0.00    -0.238 C  
HETATM    3  H   UNL     1      -8.975  13.846  68.409  1.00  0.00     0.000 HD 
ENDROOT
BRANCH   2   4
HETATM    4  C   UNL     1     -11.108  13.405  66.983  1.00  0.00    -0.310 A  
HETATM    5  C   UNL     1     -12.006  14.589  64.594  1.00  0.00    -0.478 A  
HETATM    6  C   UNL     1     -12.016  12.735  66.143  1.00  0.00    -0.476 A  
HETATM    7  C   UNL     1     -10.670  14.682  66.604  1.00  0.00    -0.305 A  
HETATM    8  C   UNL     1     -11.119  15.272  65.421  1.00  0.00    -0.351 A  
HETATM    9  C   UNL     1     -12.454  13.320  64.953  1.00  0.00    -0.465 A  
ENDBRANCH   2   4
BRANCH   2  10
HETATM   10  C   UNL     1     -11.803  12.255  69.147  1.00  0.00    -0.301 C  
HETATM   11  O   UNL     1     -12.264  11.117  69.018  1.00  0.00    -0.469 OA 
BRANCH  10  12
HETATM   12  C   UNL     1     -12.409  13.159  70.169  1.00  0.00    -0.284 A  
HETATM   13  C   UNL     1     -12.930  12.579  71.335  1.00  0.00    -0.347 A  
HETATM   14  C   UNL     1     -13.577  14.757  72.153  1.00  0.00    -0.518 A  
HETATM   15  C   UNL     1     -13.516  13.375  72.321  1.00  0.00    -0.683 A  
HETATM   16  C   UNL     1     -13.043  15.344  71.009  1.00  0.00    -0.565 A  
HETATM   17  C   UNL     1     -12.455  14.549  70.024  1.00  0.00    -0.348 A  
ENDBRANCH  10  12
ENDBRANCH   2  10
TORSDOF 3
ENDMDL
MODEL       36
REMARK 921   NORMALIZED FREE ENERGY PREDICTED BY IDOCK:   -5.50 KCAL/MOL
REMARK 922        TOTAL FREE ENERGY PREDICTED BY IDOCK:   -6.80 KCAL/MOL
REMARK 923 INTER-LIGAND FREE ENERGY PREDICTED BY IDOCK:   -6.24 KCAL/MOL
REMARK 924 INTRA-LIGAND FREE ENERGY PREDICTED BY IDOCK:   -0.56 KCAL/MOL
REMARK 927      BINDING AFFINITY PREDICTED BY RF-SCORE:    0.00 PKD
ROOT
HETATM    1  O   UNL     1      -9.067  15.898  69.122  1.00  0.00    -0.227 OA 
HETATM    2  C   UNL     1      -9.695  16.148  67.873  1.00  0.00    -0.225 C  
HETATM    3  H   UNL     1      -8.255  16.376  69.246  1.00  0.00     0.000 HD 
ENDROOT
BRANCH   2   4
HETATM    4  C   UNL     1      -9.847  17.639  67.620  1.00  0.00    -0.294 A  
HETATM    5  C   UNL     1     -10.130  20.409  67.212  1.00  0.00    -0.504 A  
HETATM    6  C   UNL     1      -9.792  18.536  68.701  1.00  0.00    -0.419 A  
HETATM    7  C   UNL     1     -10.036  18.160  66.332  1.00  0.00    -0.392 A  
HETATM    8  C   UNL     1     -10.172  19.535  66.128  1.00  0.00    -0.588 A  
HETATM    9  C   UNL     1      -9.942  19.910  68.498  1.00  0.00    -0.507 A  
ENDBRANCH   2   4
BRANCH   2  10
HETATM   10  C   UNL     1     -11.010  15.374  67.672  1.00  0.00    -0.315 C  
HETATM   11  O   UNL     1     -11.924  15.455  68.498  1.00  0.00    -0.316 OA 
BRANCH  10  12
HETATM   12  C   UNL     1     -11.203  14.497  66.478  1.00  0.00    -0.344 A  
HETATM   13  C   UNL     1     -10.204  14.494  65.495  1.00  0.00    -0.394 A  
HETATM   14  C   UNL     1     -11.462  12.896  64.193  1.00  0.00    -0.449 A  
HETATM   15  C   UNL     1     -10.336  13.700  64.354  1.00  0.00    -0.242 A  
HETATM   16  C   UNL     1     -12.449  12.875  65.175  1.00  0.00    -0.561 A  
HETATM   17  C   UNL     1     -12.317  13.667  66.317  1.00  0.00    -0.464 A  
ENDBRANCH  10  12
ENDBRANCH   2  10
TORSDOF 3
ENDMDL
MODEL       37
REMARK 921   NORMALIZED FREE ENERGY PREDICTED BY IDOCK:   -5.49 KCAL/MOL
REMARK 922        TOTAL FREE ENERGY PREDICTED BY IDOCK:   -6.79 KCAL/MOL
REMARK 923 INTER-LIGAND FREE ENERGY PREDICTED BY IDOCK:   -6.26 KCAL/MOL
REMARK 924 INTRA-LIGAND FREE ENERGY PREDICTED BY IDOCK:   -0.54 KCAL/MOL
REMARK 927      BINDING AFFINITY PREDICTED BY RF-SCORE:    0.00 PKD
ROOT
HETATM    1  O   UNL     1      -9.100  15.507  68.929  1.00  0.00    -0.188 OA 
HETATM    2  C   UNL     1      -9.763  15.846  67.719  1.00  0.00    -0.220 C  
HETATM    3  H   UNL     1      -8.296  15.991  69.075  1.00  0.00     0.000 HD 
ENDROOT
BRANCH   2   4
HETATM    4  C   UNL     1      -9.951  17.349  67.595  1.00  0.00    -0.300 A  
HETATM    5  C   UNL     1     -10.303  20.126  67.307  1.00  0.00    -0.494 A  
HETATM    6  C   UNL     1     -10.244  17.912  66.341  1.00  0.00    -0.372 A  
HETATM    7  C   UNL     1      -9.849  18.205  68.701  1.00  0.00    -0.389 A  
HETATM    8  C   UNL     1     -10.028  19.584  68.560  1.00  0.00    -0.538 A  
HETATM    9  C   UNL     1     -10.410  19.292  66.198  1.00  0.00    -0.578 A  
ENDBRANCH   2   4
BRANCH   2  10
HETATM   10  C   UNL     1     -11.066  15.062  67.482  1.00  0.00    -0.317 C  
HETATM   11  O   UNL     1     -11.985  15.101  68.305  1.00  0.00    -0.298 OA 
BRANCH  10  12
HETATM   12  C   UNL     1     -11.240  14.226  66.256  1.00  0.00    -0.337 A  
HETATM   13  C   UNL     1     -12.505  13.673  66.011  1.00  0.00    -0.477 A  
HETATM   14  C   UNL     1     -11.680  12.636  63.991  1.00  0.00    -0.496 A  
HETATM   15  C   UNL     1     -12.722  12.876  64.885  1.00  0.00    -0.474 A  
HETATM   16  C   UNL     1     -10.427  13.199  64.215  1.00  0.00    -0.410 A  
HETATM   17  C   UNL     1     -10.209  13.998  65.340  1.00  0.00    -0.368 A  
ENDBRANCH  10  12
ENDBRANCH   2  10
TORSDOF 3
ENDMDL
MODEL       38
REMARK 921   NORMALIZED FREE ENERGY PREDICTED BY IDOCK:   -5.46 KCAL/MOL
REMARK 922        TOTAL FREE ENERGY PREDICTED BY IDOCK:   -6.76 KCAL/MOL
REMARK 923 INTER-LIGAND FREE ENERGY PREDICTED BY IDOCK:   -6.30 KCAL/MOL
REMARK 924 INTRA-LIGAND FREE ENERGY PREDICTED BY IDOCK:   -0.46 KCAL/MOL
REMARK 927      BINDING AFFINITY PREDICTED BY RF-SCORE:    0.00 PKD
ROOT
HETATM    1  O   UNL     1      -8.589  15.500  66.074  1.00  0.00    -0.392 OA 
HETATM    2  C   UNL     1      -9.747  14.954  66.690  1.00  0.00    -0.261 C  
HETATM    3  H   UNL     1      -8.053  14.857  65.626  1.00  0.00     0.000 HD 
ENDROOT
BRANCH   2   4
HETATM    4  C   UNL     1     -10.544  14.105  65.713  1.00  0.00    -0.306 A  
HETATM    5  C   UNL     1     -12.052  12.582  63.890  1.00  0.00    -0.581 A  
HETATM    6  C   UNL     1     -11.477  14.719  64.860  1.00  0.00    -0.412 A  
HETATM    7  C   UNL     1     -10.376  12.716  65.626  1.00  0.00    -0.293 A  
HETATM    8  C   UNL     1     -11.121  11.959  64.717  1.00  0.00    -0.367 A  
HETATM    9  C   UNL     1     -12.231  13.961  63.961  1.00  0.00    -0.413 A  
ENDBRANCH   2   4
BRANCH   2  10
HETATM   10  C   UNL     1     -10.615  15.996  67.417  1.00  0.00    -0.316 C  
HETATM   11  O   UNL     1     -11.572  15.647  68.115  1.00  0.00    -0.353 OA 
BRANCH  10  12
HETATM   12  C   UNL     1     -10.324  17.455  67.285  1.00  0.00    -0.336 A  
HETATM   13  C   UNL     1      -9.708  18.105  68.364  1.00  0.00    -0.363 A  
HETATM   14  C   UNL     1      -9.738  20.193  67.150  1.00  0.00    -0.576 A  
HETATM   15  C   UNL     1      -9.421  19.470  68.298  1.00  0.00    -0.442 A  
HETATM   16  C   UNL     1     -10.330  19.551  66.065  1.00  0.00    -0.604 A  
HETATM   17  C   UNL     1     -10.616  18.186  66.129  1.00  0.00    -0.289 A  
ENDBRANCH  10  12
ENDBRANCH   2  10
TORSDOF 3
ENDMDL
MODEL       39
REMARK 921   NORMALIZED FREE ENERGY PREDICTED BY IDOCK:   -5.46 KCAL/MOL
REMARK 922        TOTAL FREE ENERGY PREDICTED BY IDOCK:   -6.76 KCAL/MOL
REMARK 923 INTER-LIGAND FREE ENERGY PREDICTED BY IDOCK:   -6.28 KCAL/MOL
REMARK 924 INTRA-LIGAND FREE ENERGY PREDICTED BY IDOCK:   -0.48 KCAL/MOL
REMARK 927      BINDING AFFINITY PREDICTED BY RF-SCORE:    0.00 PKD
ROOT
HETATM    1  O   UNL     1     -12.474   7.155  70.220  1.00  0.00    -0.592 OA 
HETATM    2  C   UNL     1     -11.884   7.957  71.236  1.00  0.00    -0.296 C  
HETATM    3  H   UNL     1     -11.899   6.478  69.885  1.00  0.00     0.000 HD 
ENDROOT
BRANCH   2   4
HETATM    4  C   UNL     1     -11.283   7.099  72.336  1.00  0.00    -0.309 A  
HETATM    5  C   UNL     1     -10.208   5.467  74.361  1.00  0.00    -0.299 A  
HETATM    6  C   UNL     1     -11.688   5.759  72.474  1.00  0.00    -0.280 A  
HETATM    7  C   UNL     1     -10.322   7.597  73.227  1.00  0.00    -0.405 A  
HETATM    8  C   UNL     1      -9.784   6.786  74.229  1.00  0.00    -0.328 A  
HETATM    9  C   UNL     1     -11.160   4.953  73.485  1.00  0.00    -0.405 A  
ENDBRANCH   2   4
BRANCH   2  10
HETATM   10  C   UNL     1     -12.815   9.055  71.779  1.00  0.00    -0.374 C  
HETATM   11  O   UNL     1     -13.731   8.779  72.560  1.00  0.00    -0.414 OA 
BRANCH  10  12
HETATM   12  C   UNL     1     -12.637  10.479  71.364  1.00  0.00    -0.539 A  
HETATM   13  C   UNL     1     -11.856  10.741  70.229  1.00  0.00    -0.438 A  
HETATM   14  C   UNL     1     -12.228  13.112  70.496  1.00  0.00    -0.405 A  
HETATM   15  C   UNL     1     -11.648  12.054  69.801  1.00  0.00    -0.348 A  
HETATM   16  C   UNL     1     -13.024  12.860  71.611  1.00  0.00    -0.410 A  
HETATM   17  C   UNL     1     -13.234  11.548  72.039  1.00  0.00    -0.443 A  
ENDBRANCH  10  12
ENDBRANCH   2  10
TORSDOF 3
ENDMDL
MODEL       40
REMARK 921   NORMALIZED FREE ENERGY PREDICTED BY IDOCK:   -5.43 KCAL/MOL
REMARK 922        TOTAL FREE ENERGY PREDICTED BY IDOCK:   -6.73 KCAL/MOL
REMARK 923 INTER-LIGAND FREE ENERGY PREDICTED BY IDOCK:   -6.22 KCAL/MOL
REMARK 924 INTRA-LIGAND FREE ENERGY PREDICTED BY IDOCK:   -0.51 KCAL/MOL
REMARK 927      BINDING AFFINITY PREDICTED BY RF-SCORE:    0.00 PKD
ROOT
HETATM    1  O   UNL     1     -10.285  14.196  64.211  1.00  0.00    -0.639 OA 
HETATM    2  C   UNL     1      -9.996  14.999  65.348  1.00  0.00    -0.330 C  
HETATM    3  H   UNL     1      -9.968  13.304  64.281  1.00  0.00     0.000 HD 
ENDROOT
BRANCH   2   4
HETATM    4  C   UNL     1     -10.439  14.317  66.632  1.00  0.00    -0.278 A  
HETATM    5  C   UNL     1     -11.310  13.089  69.009  1.00  0.00    -0.340 A  
HETATM    6  C   UNL     1     -11.720  14.578  67.151  1.00  0.00    -0.420 A  
HETATM    7  C   UNL     1      -9.611  13.422  67.323  1.00  0.00    -0.234 A  
HETATM    8  C   UNL     1     -10.044  12.808  68.501  1.00  0.00    -0.189 A  
HETATM    9  C   UNL     1     -12.147  13.975  68.336  1.00  0.00    -0.318 A  
ENDBRANCH   2   4
BRANCH   2  10
HETATM   10  C   UNL     1     -10.510  16.445  65.234  1.00  0.00    -0.261 C  
HETATM   11  O   UNL     1     -11.381  16.744  64.412  1.00  0.00    -1.089 OA 
BRANCH  10  12
HETATM   12  C   UNL     1      -9.955  17.521  66.109  1.00  0.00    -0.280 A  
HETATM   13  C   UNL     1      -8.776  17.250  66.820  1.00  0.00    -0.275 A  
HETATM   14  C   UNL     1      -8.828  19.463  67.787  1.00  0.00    -0.359 A  
HETATM   15  C   UNL     1      -8.219  18.216  67.659  1.00  0.00    -0.243 A  
HETATM   16  C   UNL     1      -9.986  19.749  67.068  1.00  0.00    -0.532 A  
HETATM   17  C   UNL     1     -10.544  18.784  66.227  1.00  0.00    -0.429 A  
ENDBRANCH  10  12
ENDBRANCH   2  10
TORSDOF 3
ENDMDL
MODEL       41
REMARK 921   NORMALIZED FREE ENERGY PREDICTED BY IDOCK:   -5.43 KCAL/MOL
REMARK 922        TOTAL FREE ENERGY PREDICTED BY IDOCK:   -6.72 KCAL/MOL
REMARK 923 INTER-LIGAND FREE ENERGY PREDICTED BY IDOCK:   -6.35 KCAL/MOL
REMARK 924 INTRA-LIGAND FREE ENERGY PREDICTED BY IDOCK:   -0.37 KCAL/MOL
REMARK 927      BINDING AFFINITY PREDICTED BY RF-SCORE:    0.00 PKD
ROOT
HETATM    1  O   UNL     1     -11.310  11.321  62.964  1.00  0.00    -0.847 OA 
HETATM    2  C   UNL     1     -10.863  11.880  64.192  1.00  0.00    -0.356 C  
HETATM    3  H   UNL     1     -10.658  10.789  62.525  1.00  0.00     0.000 HD 
ENDROOT
BRANCH   2   4
HETATM    4  C   UNL     1     -10.266  10.817  65.098  1.00  0.00    -0.365 A  
HETATM    5  C   UNL     1      -9.182   8.876  66.823  1.00  0.00    -0.201 A  
HETATM    6  C   UNL     1     -10.583  10.813  66.468  1.00  0.00    -0.279 A  
HETATM    7  C   UNL     1      -9.404   9.823  64.612  1.00  0.00    -0.318 A  
HETATM    8  C   UNL     1      -8.870   8.856  65.467  1.00  0.00    -0.238 A  
HETATM    9  C   UNL     1     -10.037   9.854  67.325  1.00  0.00    -0.264 A  
ENDBRANCH   2   4
BRANCH   2  10
HETATM   10  C   UNL     1     -11.920  12.744  64.904  1.00  0.00    -0.402 C  
HETATM   11  O   UNL     1     -13.123  12.500  64.779  1.00  0.00    -0.853 OA 
BRANCH  10  12
HETATM   12  C   UNL     1     -11.511  13.903  65.752  1.00  0.00    -0.324 A  
HETATM   13  C   UNL     1     -10.706  14.894  65.169  1.00  0.00    -0.429 A  
HETATM   14  C   UNL     1     -10.676  16.120  67.250  1.00  0.00    -0.277 A  
HETATM   15  C   UNL     1     -10.287  15.995  65.918  1.00  0.00    -0.386 A  
HETATM   16  C   UNL     1     -11.494  15.153  67.830  1.00  0.00    -0.344 A  
HETATM   17  C   UNL     1     -11.915  14.052  67.082  1.00  0.00    -0.465 A  
ENDBRANCH  10  12
ENDBRANCH   2  10
TORSDOF 3
ENDMDL
MODEL       42
REMARK 921   NORMALIZED FREE ENERGY PREDICTED BY IDOCK:   -5.41 KCAL/MOL
REMARK 922        TOTAL FREE ENERGY PREDICTED BY IDOCK:   -6.69 KCAL/MOL
REMARK 923 INTER-LIGAND FREE ENERGY PREDICTED BY IDOCK:   -6.23 KCAL/MOL
REMARK 924 INTRA-LIGAND FREE ENERGY PREDICTED BY IDOCK:   -0.46 KCAL/MOL
REMARK 927      BINDING AFFINITY PREDICTED BY RF-SCORE:    0.00 PKD
ROOT
HETATM    1  O   UNL     1      -9.071  11.381  69.012  1.00  0.00    -0.377 OA 
HETATM    2  C   UNL     1     -10.478  11.341  68.814  1.00  0.00    -0.208 C  
HETATM    3  H   UNL     1      -8.813  11.688  69.872  1.00  0.00     0.000 HD 
ENDROOT
BRANCH   2   4
HETATM    4  C   UNL     1     -11.172  10.591  69.939  1.00  0.00    -0.374 A  
HETATM    5  C   UNL     1     -12.412   9.164  72.023  1.00  0.00    -0.452 A  
HETATM    6  C   UNL     1     -10.494   9.556  70.607  1.00  0.00    -0.374 A  
HETATM    7  C   UNL     1     -12.478  10.901  70.344  1.00  0.00    -0.411 A  
HETATM    8  C   UNL     1     -13.093  10.196  71.382  1.00  0.00    -0.512 A  
HETATM    9  C   UNL     1     -11.114   8.843  71.635  1.00  0.00    -0.420 A  
ENDBRANCH   2   4
BRANCH   2  10
HETATM   10  C   UNL     1     -10.896  10.843  67.419  1.00  0.00    -0.279 C  
HETATM   11  O   UNL     1     -10.887   9.638  67.150  1.00  0.00    -0.232 OA 
BRANCH  10  12
HETATM   12  C   UNL     1     -11.310  11.808  66.358  1.00  0.00    -0.361 A  
HETATM   13  C   UNL     1     -11.991  12.969  66.753  1.00  0.00    -0.434 A  
HETATM   14  C   UNL     1     -12.143  13.687  64.452  1.00  0.00    -0.470 A  
HETATM   15  C   UNL     1     -12.410  13.902  65.802  1.00  0.00    -0.518 A  
HETATM   16  C   UNL     1     -11.447  12.548  64.052  1.00  0.00    -0.476 A  
HETATM   17  C   UNL     1     -11.026  11.616  65.002  1.00  0.00    -0.334 A  
ENDBRANCH  10  12
ENDBRANCH   2  10
TORSDOF 3
ENDMDL
MODEL       43
REMARK 921   NORMALIZED FREE ENERGY PREDICTED BY IDOCK:   -5.40 KCAL/MOL
REMARK 922        TOTAL FREE ENERGY PREDICTED BY IDOCK:   -6.69 KCAL/MOL
REMARK 923 INTER-LIGAND FREE ENERGY PREDICTED BY IDOCK:   -6.21 KCAL/MOL
REMARK 924 INTRA-LIGAND FREE ENERGY PREDICTED BY IDOCK:   -0.47 KCAL/MOL
REMARK 927      BINDING AFFINITY PREDICTED BY RF-SCORE:    0.00 PKD
ROOT
HETATM    1  O   UNL     1      -8.998  11.378  69.131  1.00  0.00    -0.379 OA 
HETATM    2  C   UNL     1     -10.399  11.415  68.897  1.00  0.00    -0.184 C  
HETATM    3  H   UNL     1      -8.745  11.667  69.999  1.00  0.00     0.000 HD 
ENDROOT
BRANCH   2   4
HETATM    4  C   UNL     1     -11.162  10.700  70.000  1.00  0.00    -0.382 A  
HETATM    5  C   UNL     1     -12.529   9.336  72.046  1.00  0.00    -0.451 A  
HETATM    6  C   UNL     1     -10.535   9.670  70.723  1.00  0.00    -0.375 A  
HETATM    7  C   UNL     1     -12.482  11.037  70.331  1.00  0.00    -0.397 A  
HETATM    8  C   UNL     1     -13.160  10.364  71.350  1.00  0.00    -0.512 A  
HETATM    9  C   UNL     1     -11.218   8.988  71.732  1.00  0.00    -0.448 A  
ENDBRANCH   2   4
BRANCH   2  10
HETATM   10  C   UNL     1     -10.808  10.946  67.490  1.00  0.00    -0.272 C  
HETATM   11  O   UNL     1     -10.760   9.751  67.183  1.00  0.00    -0.256 OA 
BRANCH  10  12
HETATM   12  C   UNL     1     -11.260  11.929  66.460  1.00  0.00    -0.383 A  
HETATM   13  C   UNL     1     -11.018  11.630  65.112  1.00  0.00    -0.326 A  
HETATM   14  C   UNL     1     -12.058  13.705  64.444  1.00  0.00    -0.470 A  
HETATM   15  C   UNL     1     -11.411  12.517  64.108  1.00  0.00    -0.440 A  
HETATM   16  C   UNL     1     -12.324  14.000  65.779  1.00  0.00    -0.506 A  
HETATM   17  C   UNL     1     -11.933  13.112  66.783  1.00  0.00    -0.434 A  
ENDBRANCH  10  12
ENDBRANCH   2  10
TORSDOF 3
ENDMDL
MODEL       44
REMARK 921   NORMALIZED FREE ENERGY PREDICTED BY IDOCK:   -5.40 KCAL/MOL
REMARK 922        TOTAL FREE ENERGY PREDICTED BY IDOCK:   -6.68 KCAL/MOL
REMARK 923 INTER-LIGAND FREE ENERGY PREDICTED BY IDOCK:   -6.29 KCAL/MOL
REMARK 924 INTRA-LIGAND FREE ENERGY PREDICTED BY IDOCK:   -0.39 KCAL/MOL
REMARK 927      BINDING AFFINITY PREDICTED BY RF-SCORE:    0.00 PKD
ROOT
HETATM    1  O   UNL     1     -11.039  15.811  69.986  1.00  0.00    -0.282 OA 
HETATM    2  C   UNL     1     -11.635  14.759  69.240  1.00  0.00    -0.303 C  
HETATM    3  H   UNL     1     -11.595  16.158  70.674  1.00  0.00     0.000 HD 
ENDROOT
BRANCH   2   4
HETATM    4  C   UNL     1     -12.183  13.676  70.154  1.00  0.00    -0.413 A  
HETATM    5  C   UNL     1     -13.212  11.712  71.886  1.00  0.00    -0.475 A  
HETATM    6  C   UNL     1     -12.883  14.037  71.318  1.00  0.00    -0.430 A  
HETATM    7  C   UNL     1     -12.018  12.312  69.873  1.00  0.00    -0.377 A  
HETATM    8  C   UNL     1     -12.533  11.336  70.730  1.00  0.00    -0.471 A  
HETATM    9  C   UNL     1     -13.386  13.061  72.182  1.00  0.00    -0.622 A  
ENDBRANCH   2   4
BRANCH   2  10
HETATM   10  C   UNL     1     -10.733  14.198  68.126  1.00  0.00    -0.245 C  
HETATM   11  O   UNL     1      -9.543  13.952  68.340  1.00  0.00    -0.214 OA 
BRANCH  10  12
HETATM   12  C   UNL     1     -11.278  13.952  66.757  1.00  0.00    -0.328 A  
HETATM   13  C   UNL     1     -11.173  14.982  65.811  1.00  0.00    -0.318 A  
HETATM   14  C   UNL     1     -12.271  13.603  64.160  1.00  0.00    -0.450 A  
HETATM   15  C   UNL     1     -11.673  14.810  64.519  1.00  0.00    -0.398 A  
HETATM   16  C   UNL     1     -12.359  12.567  65.085  1.00  0.00    -0.496 A  
HETATM   17  C   UNL     1     -11.858  12.737  66.377  1.00  0.00    -0.472 A  
ENDBRANCH  10  12
ENDBRANCH   2  10
TORSDOF 3
ENDMDL
MODEL       45
REMARK 921   NORMALIZED FREE ENERGY PREDICTED BY IDOCK:   -5.39 KCAL/MOL
REMARK 922        TOTAL FREE ENERGY PREDICTED BY IDOCK:   -6.68 KCAL/MOL
REMARK 923 INTER-LIGAND FREE ENERGY PREDICTED BY IDOCK:   -6.17 KCAL/MOL
REMARK 924 INTRA-LIGAND FREE ENERGY PREDICTED BY IDOCK:   -0.51 KCAL/MOL
REMARK 927      BINDING AFFINITY PREDICTED BY RF-SCORE:    0.00 PKD
ROOT
HETATM    1  O   UNL     1      -9.024  10.658  69.571  1.00  0.00    -0.382 OA 
HETATM    2  C   UNL     1     -10.405  10.965  69.444  1.00  0.00    -0.145 C  
HETATM    3  H   UNL     1      -8.689  10.752  70.455  1.00  0.00     0.000 HD 
ENDROOT
BRANCH   2   4
HETATM    4  C   UNL     1     -11.235  10.211  70.470  1.00  0.00    -0.411 A  
HETATM    5  C   UNL     1     -12.810   8.859  72.370  1.00  0.00    -0.446 A  
HETATM    6  C   UNL     1     -12.493  10.710  70.850  1.00  0.00    -0.495 A  
HETATM    7  C   UNL     1     -10.789   9.017  71.055  1.00  0.00    -0.345 A  
HETATM    8  C   UNL     1     -11.573   8.343  71.995  1.00  0.00    -0.418 A  
HETATM    9  C   UNL     1     -13.270  10.043  71.800  1.00  0.00    -0.540 A  
ENDBRANCH   2   4
BRANCH   2  10
HETATM   10  C   UNL     1     -10.948  10.812  68.012  1.00  0.00    -0.283 C  
HETATM   11  O   UNL     1     -11.007   9.703  67.474  1.00  0.00    -0.260 OA 
BRANCH  10  12
HETATM   12  C   UNL     1     -11.402  12.006  67.238  1.00  0.00    -0.394 A  
HETATM   13  C   UNL     1     -11.531  11.879  65.847  1.00  0.00    -0.340 A  
HETATM   14  C   UNL     1     -12.241  14.183  65.684  1.00  0.00    -0.449 A  
HETATM   15  C   UNL     1     -11.943  12.966  65.073  1.00  0.00    -0.445 A  
HETATM   16  C   UNL     1     -12.138  14.311  67.067  1.00  0.00    -0.424 A  
HETATM   17  C   UNL     1     -11.727  13.225  67.842  1.00  0.00    -0.395 A  
ENDBRANCH  10  12
ENDBRANCH   2  10
TORSDOF 3
ENDMDL
MODEL       46
REMARK 921   NORMALIZED FREE ENERGY PREDICTED BY IDOCK:   -5.38 KCAL/MOL
REMARK 922        TOTAL FREE ENERGY PREDICTED BY IDOCK:   -6.66 KCAL/MOL
REMARK 923 INTER-LIGAND FREE ENERGY PREDICTED BY IDOCK:   -6.15 KCAL/MOL
REMARK 924 INTRA-LIGAND FREE ENERGY PREDICTED BY IDOCK:   -0.52 KCAL/MOL
REMARK 927      BINDING AFFINITY PREDICTED BY RF-SCORE:    0.00 PKD
ROOT
HETATM    1  O   UNL     1      -9.556  14.159  68.776  1.00  0.00    -0.294 OA 
HETATM    2  C   UNL     1     -10.512  13.183  68.383  1.00  0.00    -0.253 C  
HETATM    3  H   UNL     1      -8.854  14.283  68.150  1.00  0.00     0.000 HD 
ENDROOT
BRANCH   2   4
HETATM    4  C   UNL     1     -11.021  13.445  66.976  1.00  0.00    -0.298 A  
HETATM    5  C   UNL     1     -11.995  13.878  64.371  1.00  0.00    -0.480 A  
HETATM    6  C   UNL     1     -12.020  12.617  66.433  1.00  0.00    -0.425 A  
HETATM    7  C   UNL     1     -10.529  14.497  66.190  1.00  0.00    -0.303 A  
HETATM    8  C   UNL     1     -11.016  14.716  64.899  1.00  0.00    -0.419 A  
HETATM    9  C   UNL     1     -12.496  12.829  65.137  1.00  0.00    -0.565 A  
ENDBRANCH   2   4
BRANCH   2  10
HETATM   10  C   UNL     1     -11.650  12.982  69.400  1.00  0.00    -0.299 C  
HETATM   11  O   UNL     1     -12.425  13.903  69.671  1.00  0.00    -0.300 OA 
BRANCH  10  12
HETATM   12  C   UNL     1     -11.833  11.669  70.088  1.00  0.00    -0.428 A  
HETATM   13  C   UNL     1     -12.766  11.598  71.133  1.00  0.00    -0.426 A  
HETATM   14  C   UNL     1     -12.255   9.259  71.456  1.00  0.00    -0.439 A  
HETATM   15  C   UNL     1     -12.972  10.398  71.817  1.00  0.00    -0.580 A  
HETATM   16  C   UNL     1     -11.343   9.315  70.405  1.00  0.00    -0.283 A  
HETATM   17  C   UNL     1     -11.138  10.513  69.718  1.00  0.00    -0.354 A  
ENDBRANCH  10  12
ENDBRANCH   2  10
TORSDOF 3
ENDMDL
MODEL       47
REMARK 921   NORMALIZED FREE ENERGY PREDICTED BY IDOCK:   -5.38 KCAL/MOL
REMARK 922        TOTAL FREE ENERGY PREDICTED BY IDOCK:   -6.66 KCAL/MOL
REMARK 923 INTER-LIGAND FREE ENERGY PREDICTED BY IDOCK:   -6.20 KCAL/MOL
REMARK 924 INTRA-LIGAND FREE ENERGY PREDICTED BY IDOCK:   -0.45 KCAL/MOL
REMARK 927      BINDING AFFINITY PREDICTED BY RF-SCORE:    0.00 PKD
ROOT
HETATM    1  O   UNL     1      -9.368  13.180  68.592  1.00  0.00    -0.373 OA 
HETATM    2  C   UNL     1     -10.614  12.579  68.268  1.00  0.00    -0.231 C  
HETATM    3  H   UNL     1      -8.728  13.139  67.892  1.00  0.00     0.000 HD 
ENDROOT
BRANCH   2   4
HETATM    4  C   UNL     1     -11.153  13.104  66.948  1.00  0.00    -0.308 A  
HETATM    5  C   UNL     1     -12.127  14.129  64.515  1.00  0.00    -0.489 A  
HETATM    6  C   UNL     1     -10.780  14.385  66.505  1.00  0.00    -0.306 A  
HETATM    7  C   UNL     1     -12.014  12.346  66.141  1.00  0.00    -0.397 A  
HETATM    8  C   UNL     1     -12.494  12.852  64.931  1.00  0.00    -0.540 A  
HETATM    9  C   UNL     1     -11.272  14.896  65.301  1.00  0.00    -0.369 A  
ENDBRANCH   2   4
BRANCH   2  10
HETATM   10  C   UNL     1     -11.651  12.646  69.403  1.00  0.00    -0.306 C  
HETATM   11  O   UNL     1     -12.272  13.688  69.631  1.00  0.00    -0.314 OA 
BRANCH  10  12
HETATM   12  C   UNL     1     -11.919  11.454  70.261  1.00  0.00    -0.460 A  
HETATM   13  C   UNL     1     -12.946  11.544  71.212  1.00  0.00    -0.397 A  
HETATM   14  C   UNL     1     -12.506   9.281  71.932  1.00  0.00    -0.457 A  
HETATM   15  C   UNL     1     -13.234  10.463  72.047  1.00  0.00    -0.497 A  
HETATM   16  C   UNL     1     -11.499   9.174  70.975  1.00  0.00    -0.372 A  
HETATM   17  C   UNL     1     -11.211  10.254  70.138  1.00  0.00    -0.387 A  
ENDBRANCH  10  12
ENDBRANCH   2  10
TORSDOF 3
ENDMDL
MODEL       48
REMARK 921   NORMALIZED FREE ENERGY PREDICTED BY IDOCK:   -5.36 KCAL/MOL
REMARK 922        TOTAL FREE ENERGY PREDICTED BY IDOCK:   -6.64 KCAL/MOL
REMARK 923 INTER-LIGAND FREE ENERGY PREDICTED BY IDOCK:   -6.12 KCAL/MOL
REMARK 924 INTRA-LIGAND FREE ENERGY PREDICTED BY IDOCK:   -0.52 KCAL/MOL
REMARK 927      BINDING AFFINITY PREDICTED BY RF-SCORE:    0.00 PKD
ROOT
HETATM    1  O   UNL     1     -12.589  15.518  69.646  1.00  0.00    -0.601 OA 
HETATM    2  C   UNL     1     -11.829  15.672  68.455  1.00  0.00    -0.237 C  
HETATM    3  H   UNL     1     -13.414  15.066  69.520  1.00  0.00     0.000 HD 
ENDROOT
BRANCH   2   4
HETATM    4  C   UNL     1     -11.668  14.348  67.729  1.00  0.00    -0.407 A  
HETATM    5  C   UNL     1     -11.378  11.922  66.331  1.00  0.00    -0.400 A  
HETATM    6  C   UNL     1     -11.630  14.326  66.323  1.00  0.00    -0.379 A  
HETATM    7  C   UNL     1     -11.547  13.131  68.416  1.00  0.00    -0.372 A  
HETATM    8  C   UNL     1     -11.398  11.928  67.723  1.00  0.00    -0.361 A  
HETATM    9  C   UNL     1     -11.495  13.120  65.631  1.00  0.00    -0.351 A  
ENDBRANCH   2   4
BRANCH   2  10
HETATM   10  C   UNL     1     -10.491  16.405  68.661  1.00  0.00    -0.293 C  
HETATM   11  O   UNL     1      -9.644  15.966  69.445  1.00  0.00    -0.252 OA 
BRANCH  10  12
HETATM   12  C   UNL     1     -10.194  17.670  67.925  1.00  0.00    -0.357 A  
HETATM   13  C   UNL     1      -9.416  18.641  68.572  1.00  0.00    -0.386 A  
HETATM   14  C   UNL     1      -9.581  20.086  66.643  1.00  0.00    -0.548 A  
HETATM   15  C   UNL     1      -9.115  19.846  67.934  1.00  0.00    -0.399 A  
HETATM   16  C   UNL     1     -10.336  19.118  65.984  1.00  0.00    -0.538 A  
HETATM   17  C   UNL     1     -10.636  17.911  66.620  1.00  0.00    -0.243 A  
ENDBRANCH  10  12
ENDBRANCH   2  10
TORSDOF 3
ENDMDL
MODEL       49
REMARK 921   NORMALIZED FREE ENERGY PREDICTED BY IDOCK:   -5.35 KCAL/MOL
REMARK 922        TOTAL FREE ENERGY PREDICTED BY IDOCK:   -6.63 KCAL/MOL
REMARK 923 INTER-LIGAND FREE ENERGY PREDICTED BY IDOCK:   -6.18 KCAL/MOL
REMARK 924 INTRA-LIGAND FREE ENERGY PREDICTED BY IDOCK:   -0.45 KCAL/MOL
REMARK 927      BINDING AFFINITY PREDICTED BY RF-SCORE:    0.00 PKD
ROOT
HETATM    1  O   UNL     1     -11.550  10.259  67.789  1.00  0.00    -0.651 OA 
HETATM    2  C   UNL     1     -11.237  11.620  68.054  1.00  0.00    -0.263 C  
HETATM    3  H   UNL     1     -11.379   9.676  68.519  1.00  0.00     0.000 HD 
ENDROOT
BRANCH   2   4
HETATM    4  C   UNL     1     -11.881  12.093  69.346  1.00  0.00    -0.370 A  
HETATM    5  C   UNL     1     -13.086  12.911  71.754  1.00  0.00    -0.458 A  
HETATM    6  C   UNL     1     -12.273  11.150  70.314  1.00  0.00    -0.436 A  
HETATM    7  C   UNL     1     -12.098  13.451  69.617  1.00  0.00    -0.349 A  
HETATM    8  C   UNL     1     -12.691  13.859  70.814  1.00  0.00    -0.383 A  
HETATM    9  C   UNL     1     -12.879  11.557  71.504  1.00  0.00    -0.485 A  
ENDBRANCH   2   4
BRANCH   2  10
HETATM   10  C   UNL     1     -11.515  12.564  66.871  1.00  0.00    -0.353 C  
HETATM   11  O   UNL     1     -12.462  12.358  66.107  1.00  0.00    -0.507 OA 
BRANCH  10  12
HETATM   12  C   UNL     1     -10.635  13.743  66.615  1.00  0.00    -0.274 A  
HETATM   13  C   UNL     1     -11.120  14.757  65.776  1.00  0.00    -0.338 A  
HETATM   14  C   UNL     1      -9.067  15.999  66.058  1.00  0.00    -0.361 A  
HETATM   15  C   UNL     1     -10.336  15.878  65.495  1.00  0.00    -0.425 A  
HETATM   16  C   UNL     1      -8.586  15.008  66.910  1.00  0.00    -0.280 A  
HETATM   17  C   UNL     1      -9.370  13.887  67.193  1.00  0.00    -0.244 A  
ENDBRANCH  10  12
ENDBRANCH   2  10
TORSDOF 3
ENDMDL
MODEL       50
REMARK 921   NORMALIZED FREE ENERGY PREDICTED BY IDOCK:   -5.35 KCAL/MOL
REMARK 922        TOTAL FREE ENERGY PREDICTED BY IDOCK:   -6.62 KCAL/MOL
REMARK 923 INTER-LIGAND FREE ENERGY PREDICTED BY IDOCK:   -6.01 KCAL/MOL
REMARK 924 INTRA-LIGAND FREE ENERGY PREDICTED BY IDOCK:   -0.61 KCAL/MOL
REMARK 927      BINDING AFFINITY PREDICTED BY RF-SCORE:    0.00 PKD
ROOT
HETATM    1  O   UNL     1     -13.362  11.976  64.190  1.00  0.00    -0.725 OA 
HETATM    2  C   UNL     1     -12.173  12.640  63.783  1.00  0.00    -0.514 C  
HETATM    3  H   UNL     1     -13.429  11.082  63.878  1.00  0.00     0.000 HD 
ENDROOT
BRANCH   2   4
HETATM    4  C   UNL     1     -10.941  11.812  64.107  1.00  0.00    -0.437 A  
HETATM    5  C   UNL     1      -8.677  10.275  64.763  1.00  0.00    -0.201 A  
HETATM    6  C   UNL     1     -10.819  11.212  65.372  1.00  0.00    -0.212 A  
HETATM    7  C   UNL     1      -9.910  11.617  63.176  1.00  0.00    -0.407 A  
HETATM    8  C   UNL     1      -8.788  10.850  63.500  1.00  0.00    -0.103 A  
HETATM    9  C   UNL     1      -9.691  10.456  65.700  1.00  0.00    -0.294 A  
ENDBRANCH   2   4
BRANCH   2  10
HETATM   10  C   UNL     1     -12.066  14.090  64.289  1.00  0.00    -0.445 C  
HETATM   11  O   UNL     1     -12.558  15.021  63.646  1.00  0.00    -0.680 OA 
BRANCH  10  12
HETATM   12  C   UNL     1     -11.353  14.401  65.564  1.00  0.00    -0.334 A  
HETATM   13  C   UNL     1     -12.016  14.134  66.771  1.00  0.00    -0.475 A  
HETATM   14  C   UNL     1     -10.115  14.951  68.018  1.00  0.00    -0.221 A  
HETATM   15  C   UNL     1     -11.400  14.414  67.993  1.00  0.00    -0.316 A  
HETATM   16  C   UNL     1      -9.440  15.198  66.825  1.00  0.00    -0.260 A  
HETATM   17  C   UNL     1     -10.054  14.917  65.602  1.00  0.00    -0.387 A  
ENDBRANCH  10  12
ENDBRANCH   2  10
TORSDOF 3
ENDMDL
MODEL       51
REMARK 921   NORMALIZED FREE ENERGY PREDICTED BY IDOCK:   -5.33 KCAL/MOL
REMARK 922        TOTAL FREE ENERGY PREDICTED BY IDOCK:   -6.61 KCAL/MOL
REMARK 923 INTER-LIGAND FREE ENERGY PREDICTED BY IDOCK:   -6.21 KCAL/MOL
REMARK 924 INTRA-LIGAND FREE ENERGY PREDICTED BY IDOCK:   -0.40 KCAL/MOL
REMARK 927      BINDING AFFINITY PREDICTED BY RF-SCORE:    0.00 PKD
ROOT
HETATM    1  O   UNL     1      -9.571  14.893  65.551  1.00  0.00    -0.448 OA 
HETATM    2  C   UNL     1     -10.963  14.871  65.837  1.00  0.00    -0.338 C  
HETATM    3  H   UNL     1      -9.112  15.629  65.936  1.00  0.00     0.000 HD 
ENDROOT
BRANCH   2   4
HETATM    4  C   UNL     1     -11.223  15.011  67.327  1.00  0.00    -0.339 A  
HETATM    5  C   UNL     1     -11.672  15.321  70.088  1.00  0.00    -0.342 A  
HETATM    6  C   UNL     1     -10.817  16.179  67.997  1.00  0.00    -0.333 A  
HETATM    7  C   UNL     1     -11.867  14.009  68.068  1.00  0.00    -0.403 A  
HETATM    8  C   UNL     1     -12.095  14.165  69.438  1.00  0.00    -0.372 A  
HETATM    9  C   UNL     1     -11.032  16.327  69.369  1.00  0.00    -0.337 A  
ENDBRANCH   2   4
BRANCH   2  10
HETATM   10  C   UNL     1     -11.707  13.676  65.213  1.00  0.00    -0.334 C  
HETATM   11  O   UNL     1     -12.921  13.731  64.995  1.00  0.00    -0.732 OA 
BRANCH  10  12
HETATM   12  C   UNL     1     -10.977  12.420  64.868  1.00  0.00    -0.341 A  
HETATM   13  C   UNL     1     -10.660  11.536  65.910  1.00  0.00    -0.318 A  
HETATM   14  C   UNL     1      -9.602  10.035  64.340  1.00  0.00    -0.325 A  
HETATM   15  C   UNL     1      -9.970  10.351  65.646  1.00  0.00    -0.337 A  
HETATM   16  C   UNL     1      -9.933  10.896  63.296  1.00  0.00    -0.399 A  
HETATM   17  C   UNL     1     -10.624  12.081  63.558  1.00  0.00    -0.514 A  
ENDBRANCH  10  12
ENDBRANCH   2  10
TORSDOF 3
ENDMDL
MODEL       52
REMARK 921   NORMALIZED FREE ENERGY PREDICTED BY IDOCK:   -5.32 KCAL/MOL
REMARK 922        TOTAL FREE ENERGY PREDICTED BY IDOCK:   -6.60 KCAL/MOL
REMARK 923 INTER-LIGAND FREE ENERGY PREDICTED BY IDOCK:   -6.09 KCAL/MOL
REMARK 924 INTRA-LIGAND FREE ENERGY PREDICTED BY IDOCK:   -0.50 KCAL/MOL
REMARK 927      BINDING AFFINITY PREDICTED BY RF-SCORE:    0.00 PKD
ROOT
HETATM    1  O   UNL     1      -9.764  13.954  69.287  1.00  0.00    -0.403 OA 
HETATM    2  C   UNL     1     -11.049  14.421  68.899  1.00  0.00    -0.259 C  
HETATM    3  H   UNL     1      -9.427  14.364  70.074  1.00  0.00     0.000 HD 
ENDROOT
BRANCH   2   4
HETATM    4  C   UNL     1     -12.030  14.362  70.058  1.00  0.00    -0.394 A  
HETATM    5  C   UNL     1     -13.839  14.193  72.207  1.00  0.00    -0.643 A  
HETATM    6  C   UNL     1     -12.204  13.156  70.761  1.00  0.00    -0.375 A  
HETATM    7  C   UNL     1     -12.774  15.480  70.461  1.00  0.00    -0.436 A  
HETATM    8  C   UNL     1     -13.669  15.398  71.531  1.00  0.00    -0.601 A  
HETATM    9  C   UNL     1     -13.108  13.072  71.822  1.00  0.00    -0.469 A  
ENDBRANCH   2   4
BRANCH   2  10
HETATM   10  C   UNL     1     -11.594  13.755  67.623  1.00  0.00    -0.347 C  
HETATM   11  O   UNL     1     -12.508  14.278  66.979  1.00  0.00    -0.304 OA 
BRANCH  10  12
HETATM   12  C   UNL     1     -11.037  12.455  67.145  1.00  0.00    -0.328 A  
HETATM   13  C   UNL     1     -11.347  11.297  67.873  1.00  0.00    -0.367 A  
HETATM   14  C   UNL     1     -10.039   9.961  66.344  1.00  0.00    -0.308 A  
HETATM   15  C   UNL     1     -10.846  10.056  67.476  1.00  0.00    -0.326 A  
HETATM   16  C   UNL     1      -9.744  11.102  65.601  1.00  0.00    -0.267 A  
HETATM   17  C   UNL     1     -10.247  12.343  65.996  1.00  0.00    -0.267 A  
ENDBRANCH  10  12
ENDBRANCH   2  10
TORSDOF 3
ENDMDL
MODEL       53
REMARK 921   NORMALIZED FREE ENERGY PREDICTED BY IDOCK:   -5.32 KCAL/MOL
REMARK 922        TOTAL FREE ENERGY PREDICTED BY IDOCK:   -6.59 KCAL/MOL
REMARK 923 INTER-LIGAND FREE ENERGY PREDICTED BY IDOCK:   -6.06 KCAL/MOL
REMARK 924 INTRA-LIGAND FREE ENERGY PREDICTED BY IDOCK:   -0.53 KCAL/MOL
REMARK 927      BINDING AFFINITY PREDICTED BY RF-SCORE:    0.00 PKD
ROOT
HETATM    1  O   UNL     1      -9.291   9.926  68.963  1.00  0.00    -0.157 OA 
HETATM    2  C   UNL     1     -10.304  10.147  69.935  1.00  0.00    -0.261 C  
HETATM    3  H   UNL     1      -8.556   9.418  69.284  1.00  0.00     0.000 HD 
ENDROOT
BRANCH   2   4
HETATM    4  C   UNL     1     -10.732   8.846  70.592  1.00  0.00    -0.282 A  
HETATM    5  C   UNL     1     -11.516   6.460  71.863  1.00  0.00    -0.352 A  
HETATM    6  C   UNL     1     -10.908   8.796  71.987  1.00  0.00    -0.428 A  
HETATM    7  C   UNL     1     -10.967   7.679  69.850  1.00  0.00    -0.208 A  
HETATM    8  C   UNL     1     -11.361   6.496  70.480  1.00  0.00    -0.426 A  
HETATM    9  C   UNL     1     -11.288   7.609  72.617  1.00  0.00    -0.423 A  
ENDBRANCH   2   4
BRANCH   2  10
HETATM   10  C   UNL     1     -11.496  10.971  69.415  1.00  0.00    -0.294 C  
HETATM   11  O   UNL     1     -11.937  10.794  68.276  1.00  0.00    -0.520 OA 
BRANCH  10  12
HETATM   12  C   UNL     1     -12.136  12.011  70.275  1.00  0.00    -0.395 A  
HETATM   13  C   UNL     1     -11.984  13.355  69.906  1.00  0.00    -0.408 A  
HETATM   14  C   UNL     1     -13.288  14.047  71.818  1.00  0.00    -0.465 A  
HETATM   15  C   UNL     1     -12.554  14.369  70.679  1.00  0.00    -0.424 A  
HETATM   16  C   UNL     1     -13.464  12.714  72.180  1.00  0.00    -0.561 A  
HETATM   17  C   UNL     1     -12.896  11.698  71.407  1.00  0.00    -0.461 A  
ENDBRANCH  10  12
ENDBRANCH   2  10
TORSDOF 3
ENDMDL
MODEL       54
REMARK 921   NORMALIZED FREE ENERGY PREDICTED BY IDOCK:   -5.32 KCAL/MOL
REMARK 922        TOTAL FREE ENERGY PREDICTED BY IDOCK:   -6.59 KCAL/MOL
REMARK 923 INTER-LIGAND FREE ENERGY PREDICTED BY IDOCK:   -6.01 KCAL/MOL
REMARK 924 INTRA-LIGAND FREE ENERGY PREDICTED BY IDOCK:   -0.59 KCAL/MOL
REMARK 927      BINDING AFFINITY PREDICTED BY RF-SCORE:    0.00 PKD
ROOT
HETATM    1  O   UNL     1     -12.122  12.288  67.618  1.00  0.00    -0.502 OA 
HETATM    2  C   UNL     1     -12.063  12.129  69.029  1.00  0.00    -0.153 C  
HETATM    3  H   UNL     1     -12.743  12.947  67.332  1.00  0.00     0.000 HD 
ENDROOT
BRANCH   2   4
HETATM    4  C   UNL     1     -11.866  13.465  69.727  1.00  0.00    -0.393 A  
HETATM    5  C   UNL     1     -11.543  15.922  71.058  1.00  0.00    -0.465 A  
HETATM    6  C   UNL     1     -12.523  13.717  70.944  1.00  0.00    -0.448 A  
HETATM    7  C   UNL     1     -11.037  14.465  69.199  1.00  0.00    -0.290 A  
HETATM    8  C   UNL     1     -10.872  15.684  69.862  1.00  0.00    -0.324 A  
HETATM    9  C   UNL     1     -12.369  14.941  71.599  1.00  0.00    -0.404 A  
ENDBRANCH   2   4
BRANCH   2  10
HETATM   10  C   UNL     1     -11.057  11.061  69.493  1.00  0.00    -0.263 C  
HETATM   11  O   UNL     1      -9.946  10.966  68.962  1.00  0.00    -0.205 OA 
BRANCH  10  12
HETATM   12  C   UNL     1     -11.408  10.109  70.589  1.00  0.00    -0.433 A  
HETATM   13  C   UNL     1     -10.377   9.340  71.149  1.00  0.00    -0.392 A  
HETATM   14  C   UNL     1     -11.952   8.284  72.646  1.00  0.00    -0.360 A  
HETATM   15  C   UNL     1     -10.650   8.427  72.170  1.00  0.00    -0.400 A  
HETATM   16  C   UNL     1     -12.978   9.059  72.111  1.00  0.00    -0.490 A  
HETATM   17  C   UNL     1     -12.706   9.974  71.092  1.00  0.00    -0.484 A  
ENDBRANCH  10  12
ENDBRANCH   2  10
TORSDOF 3
ENDMDL
MODEL       55
REMARK 921   NORMALIZED FREE ENERGY PREDICTED BY IDOCK:   -5.30 KCAL/MOL
REMARK 922        TOTAL FREE ENERGY PREDICTED BY IDOCK:   -6.57 KCAL/MOL
REMARK 923 INTER-LIGAND FREE ENERGY PREDICTED BY IDOCK:   -5.97 KCAL/MOL
REMARK 924 INTRA-LIGAND FREE ENERGY PREDICTED BY IDOCK:   -0.60 KCAL/MOL
REMARK 927      BINDING AFFINITY PREDICTED BY RF-SCORE:    0.00 PKD
ROOT
HETATM    1  O   UNL     1     -12.633  14.507  67.536  1.00  0.00    -0.517 OA 
HETATM    2  C   UNL     1     -11.277  14.481  67.961  1.00  0.00    -0.292 C  
HETATM    3  H   UNL     1     -12.752  14.300  66.617  1.00  0.00     0.000 HD 
ENDROOT
BRANCH   2   4
HETATM    4  C   UNL     1     -10.597  13.183  67.558  1.00  0.00    -0.240 A  
HETATM    5  C   UNL     1      -9.286  10.810  66.805  1.00  0.00    -0.182 A  
HETATM    6  C   UNL     1      -9.203  13.157  67.374  1.00  0.00    -0.213 A  
HETATM    7  C   UNL     1     -11.316  11.995  67.367  1.00  0.00    -0.393 A  
HETATM    8  C   UNL     1     -10.665  10.815  66.998  1.00  0.00    -0.320 A  
HETATM    9  C   UNL     1      -8.555  11.980  66.992  1.00  0.00    -0.185 A  
ENDBRANCH   2   4
BRANCH   2  10
HETATM   10  C   UNL     1     -11.086  14.816  69.451  1.00  0.00    -0.281 C  
HETATM   11  O   UNL     1     -10.069  15.397  69.843  1.00  0.00    -0.277 OA 
BRANCH  10  12
HETATM   12  C   UNL     1     -12.122  14.434  70.457  1.00  0.00    -0.404 A  
HETATM   13  C   UNL     1     -12.970  15.440  70.942  1.00  0.00    -0.539 A  
HETATM   14  C   UNL     1     -14.098  13.835  72.352  1.00  0.00    -0.593 A  
HETATM   15  C   UNL     1     -13.951  15.142  71.891  1.00  0.00    -0.629 A  
HETATM   16  C   UNL     1     -13.275  12.826  71.859  1.00  0.00    -0.511 A  
HETATM   17  C   UNL     1     -12.295  13.123  70.909  1.00  0.00    -0.393 A  
ENDBRANCH  10  12
ENDBRANCH   2  10
TORSDOF 3
ENDMDL
MODEL       56
REMARK 921   NORMALIZED FREE ENERGY PREDICTED BY IDOCK:   -5.27 KCAL/MOL
REMARK 922        TOTAL FREE ENERGY PREDICTED BY IDOCK:   -6.54 KCAL/MOL
REMARK 923 INTER-LIGAND FREE ENERGY PREDICTED BY IDOCK:   -6.04 KCAL/MOL
REMARK 924 INTRA-LIGAND FREE ENERGY PREDICTED BY IDOCK:   -0.50 KCAL/MOL
REMARK 927      BINDING AFFINITY PREDICTED BY RF-SCORE:    0.00 PKD
ROOT
HETATM    1  O   UNL     1     -14.137   9.225  73.006  1.00  0.00    -1.016 OA 
HETATM    2  C   UNL     1     -12.813   9.054  72.518  1.00  0.00    -0.338 C  
HETATM    3  H   UNL     1     -14.304  10.086  73.369  1.00  0.00     0.000 HD 
ENDROOT
BRANCH   2   4
HETATM    4  C   UNL     1     -12.425  10.176  71.570  1.00  0.00    -0.526 A  
HETATM    5  C   UNL     1     -11.746  12.290  69.841  1.00  0.00    -0.346 A  
HETATM    6  C   UNL     1     -12.951  11.465  71.767  1.00  0.00    -0.519 A  
HETATM    7  C   UNL     1     -11.546   9.973  70.497  1.00  0.00    -0.403 A  
HETATM    8  C   UNL     1     -11.204  11.023  69.641  1.00  0.00    -0.345 A  
HETATM    9  C   UNL     1     -12.620  12.511  70.902  1.00  0.00    -0.331 A  
ENDBRANCH   2   4
BRANCH   2  10
HETATM   10  C   UNL     1     -12.542   7.658  71.930  1.00  0.00    -0.303 C  
HETATM   11  O   UNL     1     -13.328   7.147  71.128  1.00  0.00    -0.331 OA 
BRANCH  10  12
HETATM   12  C   UNL     1     -11.327   6.886  72.328  1.00  0.00    -0.306 A  
HETATM   13  C   UNL     1     -10.587   7.344  73.428  1.00  0.00    -0.427 A  
HETATM   14  C   UNL     1      -9.024   5.522  73.160  1.00  0.00    -0.121 A  
HETATM   15  C   UNL     1      -9.437   6.667  73.838  1.00  0.00    -0.212 A  
HETATM   16  C   UNL     1      -9.765   5.047  72.081  1.00  0.00    -0.208 A  
HETATM   17  C   UNL     1     -10.916   5.722  71.671  1.00  0.00    -0.308 A  
ENDBRANCH  10  12
ENDBRANCH   2  10
TORSDOF 3
ENDMDL
MODEL       57
REMARK 921   NORMALIZED FREE ENERGY PREDICTED BY IDOCK:   -5.27 KCAL/MOL
REMARK 922        TOTAL FREE ENERGY PREDICTED BY IDOCK:   -6.54 KCAL/MOL
REMARK 923 INTER-LIGAND FREE ENERGY PREDICTED BY IDOCK:   -5.97 KCAL/MOL
REMARK 924 INTRA-LIGAND FREE ENERGY PREDICTED BY IDOCK:   -0.57 KCAL/MOL
REMARK 927      BINDING AFFINITY PREDICTED BY RF-SCORE:    0.00 PKD
ROOT
HETATM    1  O   UNL     1     -10.144  11.647  69.121  1.00  0.00    -0.406 OA 
HETATM    2  C   UNL     1     -10.883  12.845  68.929  1.00  0.00    -0.200 C  
HETATM    3  H   UNL     1      -9.752  11.572  69.983  1.00  0.00     0.000 HD 
ENDROOT
BRANCH   2   4
HETATM    4  C   UNL     1     -11.885  13.061  70.051  1.00  0.00    -0.355 A  
HETATM    5  C   UNL     1     -13.744  13.401  72.136  1.00  0.00    -0.646 A  
HETATM    6  C   UNL     1     -12.297  11.969  70.835  1.00  0.00    -0.384 A  
HETATM    7  C   UNL     1     -12.417  14.326  70.341  1.00  0.00    -0.426 A  
HETATM    8  C   UNL     1     -13.336  14.496  71.380  1.00  0.00    -0.427 A  
HETATM    9  C   UNL     1     -13.226  12.138  71.864  1.00  0.00    -0.474 A  
ENDBRANCH   2   4
BRANCH   2  10
HETATM   10  C   UNL     1     -11.519  12.967  67.533  1.00  0.00    -0.328 C  
HETATM   11  O   UNL     1     -12.213  12.057  67.073  1.00  0.00    -0.516 OA 
BRANCH  10  12
HETATM   12  C   UNL     1     -11.297  14.187  66.699  1.00  0.00    -0.352 A  
HETATM   13  C   UNL     1     -10.508  15.215  67.234  1.00  0.00    -0.271 A  
HETATM   14  C   UNL     1     -10.820  16.524  65.227  1.00  0.00    -0.233 A  
HETATM   15  C   UNL     1     -10.276  16.382  66.502  1.00  0.00    -0.310 A  
HETATM   16  C   UNL     1     -11.586  15.498  64.679  1.00  0.00    -0.281 A  
HETATM   17  C   UNL     1     -11.818  14.330  65.409  1.00  0.00    -0.363 A  
ENDBRANCH  10  12
ENDBRANCH   2  10
TORSDOF 3
ENDMDL
MODEL       58
REMARK 921   NORMALIZED FREE ENERGY PREDICTED BY IDOCK:   -5.22 KCAL/MOL
REMARK 922        TOTAL FREE ENERGY PREDICTED BY IDOCK:   -6.47 KCAL/MOL
REMARK 923 INTER-LIGAND FREE ENERGY PREDICTED BY IDOCK:   -5.99 KCAL/MOL
REMARK 924 INTRA-LIGAND FREE ENERGY PREDICTED BY IDOCK:   -0.48 KCAL/MOL
REMARK 927      BINDING AFFINITY PREDICTED BY RF-SCORE:    0.00 PKD
ROOT
HETATM    1  O   UNL     1     -11.791  16.679  71.762  1.00  0.00    -0.650 OA 
HETATM    2  C   UNL     1     -11.540  15.418  71.155  1.00  0.00    -0.377 C  
HETATM    3  H   UNL     1     -11.035  17.254  71.779  1.00  0.00     0.000 HD 
ENDROOT
BRANCH   2   4
HETATM    4  C   UNL     1     -10.896  15.583  69.788  1.00  0.00    -0.301 A  
HETATM    5  C   UNL     1      -9.758  15.885  67.233  1.00  0.00    -0.224 A  
HETATM    6  C   UNL     1     -11.707  15.788  68.658  1.00  0.00    -0.353 A  
HETATM    7  C   UNL     1      -9.505  15.542  69.611  1.00  0.00    -0.244 A  
HETATM    8  C   UNL     1      -8.939  15.697  68.343  1.00  0.00    -0.185 A  
HETATM    9  C   UNL     1     -11.140  15.929  67.389  1.00  0.00    -0.207 A  
ENDBRANCH   2   4
BRANCH   2  10
HETATM   10  C   UNL     1     -12.765  14.486  71.127  1.00  0.00    -0.338 C  
HETATM   11  O   UNL     1     -13.908  14.943  71.209  1.00  0.00    -0.416 OA 
BRANCH  10  12
HETATM   12  C   UNL     1     -12.594  13.007  71.013  1.00  0.00    -0.386 A  
HETATM   13  C   UNL     1     -13.210  12.196  71.977  1.00  0.00    -0.496 A  
HETATM   14  C   UNL     1     -12.334  10.219  70.901  1.00  0.00    -0.471 A  
HETATM   15  C   UNL     1     -13.076  10.807  71.924  1.00  0.00    -0.557 A  
HETATM   16  C   UNL     1     -11.738  11.014  69.926  1.00  0.00    -0.424 A  
HETATM   17  C   UNL     1     -11.873  12.403  69.978  1.00  0.00    -0.363 A  
ENDBRANCH  10  12
ENDBRANCH   2  10
TORSDOF 3
ENDMDL
MODEL       59
REMARK 921   NORMALIZED FREE ENERGY PREDICTED BY IDOCK:   -5.22 KCAL/MOL
REMARK 922        TOTAL FREE ENERGY PREDICTED BY IDOCK:   -6.47 KCAL/MOL
REMARK 923 INTER-LIGAND FREE ENERGY PREDICTED BY IDOCK:   -6.04 KCAL/MOL
REMARK 924 INTRA-LIGAND FREE ENERGY PREDICTED BY IDOCK:   -0.43 KCAL/MOL
REMARK 927      BINDING AFFINITY PREDICTED BY RF-SCORE:    0.00 PKD
ROOT
HETATM    1  O   UNL     1     -12.759  14.437  67.259  1.00  0.00    -0.437 OA 
HETATM    2  C   UNL     1     -11.400  14.116  66.992  1.00  0.00    -0.332 C  
HETATM    3  H   UNL     1     -13.227  14.781  66.507  1.00  0.00     0.000 HD 
ENDROOT
BRANCH   2   4
HETATM    4  C   UNL     1     -11.274  13.229  65.765  1.00  0.00    -0.313 A  
HETATM    5  C   UNL     1     -11.095  11.601  63.476  1.00  0.00    -0.476 A  
HETATM    6  C   UNL     1     -12.280  13.253  64.783  1.00  0.00    -0.466 A  
HETATM    7  C   UNL     1     -10.174  12.381  65.570  1.00  0.00    -0.297 A  
HETATM    8  C   UNL     1     -10.082  11.576  64.431  1.00  0.00    -0.328 A  
HETATM    9  C   UNL     1     -12.194  12.438  63.652  1.00  0.00    -0.653 A  
ENDBRANCH   2   4
BRANCH   2  10
HETATM   10  C   UNL     1     -10.642  13.558  68.210  1.00  0.00    -0.250 C  
HETATM   11  O   UNL     1      -9.447  13.814  68.382  1.00  0.00    -0.208 OA 
BRANCH  10  12
HETATM   12  C   UNL     1     -11.336  12.685  69.204  1.00  0.00    -0.339 A  
HETATM   13  C   UNL     1     -11.181  11.297  69.083  1.00  0.00    -0.337 A  
HETATM   14  C   UNL     1     -12.596  10.951  71.009  1.00  0.00    -0.517 A  
HETATM   15  C   UNL     1     -11.813  10.433  69.979  1.00  0.00    -0.351 A  
HETATM   16  C   UNL     1     -12.737  12.329  71.152  1.00  0.00    -0.340 A  
HETATM   17  C   UNL     1     -12.104  13.194  70.257  1.00  0.00    -0.399 A  
ENDBRANCH  10  12
ENDBRANCH   2  10
TORSDOF 3
ENDMDL
MODEL       60
REMARK 921   NORMALIZED FREE ENERGY PREDICTED BY IDOCK:   -5.18 KCAL/MOL
REMARK 922        TOTAL FREE ENERGY PREDICTED BY IDOCK:   -6.43 KCAL/MOL
REMARK 923 INTER-LIGAND FREE ENERGY PREDICTED BY IDOCK:   -5.69 KCAL/MOL
REMARK 924 INTRA-LIGAND FREE ENERGY PREDICTED BY IDOCK:   -0.73 KCAL/MOL
REMARK 927      BINDING AFFINITY PREDICTED BY RF-SCORE:    0.00 PKD
ROOT
HETATM    1  O   UNL     1      -8.927  14.405  68.916  1.00  0.00    -0.296 OA 
HETATM    2  C   UNL     1     -10.270  14.850  68.776  1.00  0.00    -0.243 C  
HETATM    3  H   UNL     1      -8.788  13.511  68.627  1.00  0.00     0.000 HD 
ENDROOT
BRANCH   2   4
HETATM    4  C   UNL     1     -10.792  14.599  67.372  1.00  0.00    -0.298 A  
HETATM    5  C   UNL     1     -11.706  14.150  64.749  1.00  0.00    -0.416 A  
HETATM    6  C   UNL     1      -9.914  14.693  66.277  1.00  0.00    -0.306 A  
HETATM    7  C   UNL     1     -12.131  14.266  67.124  1.00  0.00    -0.412 A  
HETATM    8  C   UNL     1     -12.585  14.038  65.823  1.00  0.00    -0.512 A  
HETATM    9  C   UNL     1     -10.372  14.479  64.975  1.00  0.00    -0.442 A  
ENDBRANCH   2   4
BRANCH   2  10
HETATM   10  C   UNL     1     -10.496  16.299  69.245  1.00  0.00    -0.285 C  
HETATM   11  O   UNL     1     -11.119  16.538  70.283  1.00  0.00    -0.348 OA 
BRANCH  10  12
HETATM   12  C   UNL     1      -9.975  17.448  68.445  1.00  0.00    -0.329 A  
HETATM   13  C   UNL     1     -10.893  18.200  67.697  1.00  0.00    -0.260 A  
HETATM   14  C   UNL     1      -9.110  19.621  66.901  1.00  0.00    -0.415 A  
HETATM   15  C   UNL     1     -10.460  19.279  66.924  1.00  0.00    -0.547 A  
HETATM   16  C   UNL     1      -8.194  18.895  67.658  1.00  0.00    -0.290 A  
HETATM   17  C   UNL     1      -8.626  17.816  68.433  1.00  0.00    -0.292 A  
ENDBRANCH  10  12
ENDBRANCH   2  10
TORSDOF 3
ENDMDL
MODEL       61
REMARK 921   NORMALIZED FREE ENERGY PREDICTED BY IDOCK:   -5.17 KCAL/MOL
REMARK 922        TOTAL FREE ENERGY PREDICTED BY IDOCK:   -6.41 KCAL/MOL
REMARK 923 INTER-LIGAND FREE ENERGY PREDICTED BY IDOCK:   -6.07 KCAL/MOL
REMARK 924 INTRA-LIGAND FREE ENERGY PREDICTED BY IDOCK:   -0.34 KCAL/MOL
REMARK 927      BINDING AFFINITY PREDICTED BY RF-SCORE:    0.00 PKD
ROOT
HETATM    1  O   UNL     1     -12.281  10.964  68.227  1.00  0.00    -0.804 OA 
HETATM    2  C   UNL     1     -11.042  11.314  67.626  1.00  0.00    -0.277 C  
HETATM    3  H   UNL     1     -12.952  11.629  68.137  1.00  0.00     0.000 HD 
ENDROOT
BRANCH   2   4
HETATM    4  C   UNL     1     -11.233  11.764  66.188  1.00  0.00    -0.363 A  
HETATM    5  C   UNL     1     -11.548  12.558  63.506  1.00  0.00    -0.584 A  
HETATM    6  C   UNL     1     -10.625  11.042  65.146  1.00  0.00    -0.295 A  
HETATM    7  C   UNL     1     -12.009  12.884  65.856  1.00  0.00    -0.504 A  
HETATM    8  C   UNL     1     -12.170  13.276  64.524  1.00  0.00    -0.456 A  
HETATM    9  C   UNL     1     -10.775  11.442  63.816  1.00  0.00    -0.470 A  
ENDBRANCH   2   4
BRANCH   2  10
HETATM   10  C   UNL     1      -9.953  10.235  67.772  1.00  0.00    -0.173 C  
HETATM   11  O   UNL     1      -8.758  10.525  67.665  1.00  0.00    -0.122 OA 
BRANCH  10  12
HETATM   12  C   UNL     1     -10.322   8.812  68.033  1.00  0.00    -0.273 A  
HETATM   13  C   UNL     1     -10.392   8.384  69.367  1.00  0.00    -0.217 A  
HETATM   14  C   UNL     1     -10.997   6.160  68.642  1.00  0.00    -0.415 A  
HETATM   15  C   UNL     1     -10.723   7.061  69.669  1.00  0.00    -0.265 A  
HETATM   16  C   UNL     1     -10.952   6.582  67.316  1.00  0.00    -0.475 A  
HETATM   17  C   UNL     1     -10.623   7.905  67.012  1.00  0.00    -0.381 A  
ENDBRANCH  10  12
ENDBRANCH   2  10
TORSDOF 3
ENDMDL
MODEL       62
REMARK 921   NORMALIZED FREE ENERGY PREDICTED BY IDOCK:   -5.16 KCAL/MOL
REMARK 922        TOTAL FREE ENERGY PREDICTED BY IDOCK:   -6.41 KCAL/MOL
REMARK 923 INTER-LIGAND FREE ENERGY PREDICTED BY IDOCK:   -6.10 KCAL/MOL
REMARK 924 INTRA-LIGAND FREE ENERGY PREDICTED BY IDOCK:   -0.30 KCAL/MOL
REMARK 927      BINDING AFFINITY PREDICTED BY RF-SCORE:    0.00 PKD
ROOT
HETATM    1  O   UNL     1     -11.667  10.226  67.870  1.00  0.00    -0.691 OA 
HETATM    2  C   UNL     1     -12.013  11.530  68.318  1.00  0.00    -0.169 C  
HETATM    3  H   UNL     1     -11.711  10.120  66.927  1.00  0.00     0.000 HD 
ENDROOT
BRANCH   2   4
HETATM    4  C   UNL     1     -11.229  12.596  67.570  1.00  0.00    -0.335 A  
HETATM    5  C   UNL     1      -9.830  14.592  66.164  1.00  0.00    -0.339 A  
HETATM    6  C   UNL     1     -11.917  13.628  66.908  1.00  0.00    -0.454 A  
HETATM    7  C   UNL     1      -9.828  12.592  67.521  1.00  0.00    -0.203 A  
HETATM    8  C   UNL     1      -9.132  13.586  66.827  1.00  0.00    -0.223 A  
HETATM    9  C   UNL     1     -11.221  14.613  66.203  1.00  0.00    -0.341 A  
ENDBRANCH   2   4
BRANCH   2  10
HETATM   10  C   UNL     1     -11.942  11.702  69.846  1.00  0.00    -0.340 C  
HETATM   11  O   UNL     1     -11.982  12.824  70.358  1.00  0.00    -0.335 OA 
BRANCH  10  12
HETATM   12  C   UNL     1     -11.813  10.513  70.741  1.00  0.00    -0.465 A  
HETATM   13  C   UNL     1     -12.942  10.110  71.468  1.00  0.00    -0.547 A  
HETATM   14  C   UNL     1     -11.684   8.301  72.457  1.00  0.00    -0.451 A  
HETATM   15  C   UNL     1     -12.876   9.011  72.327  1.00  0.00    -0.474 A  
HETATM   16  C   UNL     1     -10.564   8.679  71.721  1.00  0.00    -0.395 A  
HETATM   17  C   UNL     1     -10.630   9.777  70.861  1.00  0.00    -0.344 A  
ENDBRANCH  10  12
ENDBRANCH   2  10
TORSDOF 3
ENDMDL
MODEL       63
REMARK 921   NORMALIZED FREE ENERGY PREDICTED BY IDOCK:   -5.16 KCAL/MOL
REMARK 922        TOTAL FREE ENERGY PREDICTED BY IDOCK:   -6.40 KCAL/MOL
REMARK 923 INTER-LIGAND FREE ENERGY PREDICTED BY IDOCK:   -5.84 KCAL/MOL
REMARK 924 INTRA-LIGAND FREE ENERGY PREDICTED BY IDOCK:   -0.56 KCAL/MOL
REMARK 927      BINDING AFFINITY PREDICTED BY RF-SCORE:    0.00 PKD
ROOT
HETATM    1  O   UNL     1     -12.591   5.704  72.811  1.00  0.00    -0.491 OA 
HETATM    2  C   UNL     1     -12.041   6.539  71.800  1.00  0.00    -0.342 C  
HETATM    3  H   UNL     1     -12.977   4.903  72.479  1.00  0.00     0.000 HD 
ENDROOT
BRANCH   2   4
HETATM    4  C   UNL     1     -11.098   5.763  70.897  1.00  0.00    -0.267 A  
HETATM    5  C   UNL     1      -9.326   4.300  69.272  1.00  0.00    -0.231 A  
HETATM    6  C   UNL     1     -10.286   4.753  71.443  1.00  0.00    -0.237 A  
HETATM    7  C   UNL     1     -11.009   6.016  69.520  1.00  0.00    -0.467 A  
HETATM    8  C   UNL     1     -10.134   5.286  68.712  1.00  0.00    -0.248 A  
HETATM    9  C   UNL     1      -9.400   4.034  70.636  1.00  0.00    -0.217 A  
ENDBRANCH   2   4
BRANCH   2  10
HETATM   10  C   UNL     1     -11.416   7.838  72.339  1.00  0.00    -0.363 C  
HETATM   11  O   UNL     1     -10.672   7.821  73.324  1.00  0.00    -0.374 OA 
BRANCH  10  12
HETATM   12  C   UNL     1     -11.706   9.150  71.686  1.00  0.00    -0.448 A  
HETATM   13  C   UNL     1     -10.838   9.589  70.676  1.00  0.00    -0.371 A  
HETATM   14  C   UNL     1     -12.147  11.600  70.398  1.00  0.00    -0.462 A  
HETATM   15  C   UNL     1     -11.056  10.812  70.038  1.00  0.00    -0.327 A  
HETATM   16  C   UNL     1     -13.027  11.162  71.385  1.00  0.00    -0.506 A  
HETATM   17  C   UNL     1     -12.811   9.938  72.022  1.00  0.00    -0.488 A  
ENDBRANCH  10  12
ENDBRANCH   2  10
TORSDOF 3
ENDMDL
MODEL       64
REMARK 921   NORMALIZED FREE ENERGY PREDICTED BY IDOCK:   -5.13 KCAL/MOL
REMARK 922        TOTAL FREE ENERGY PREDICTED BY IDOCK:   -6.36 KCAL/MOL
REMARK 923 INTER-LIGAND FREE ENERGY PREDICTED BY IDOCK:   -5.77 KCAL/MOL
REMARK 924 INTRA-LIGAND FREE ENERGY PREDICTED BY IDOCK:   -0.59 KCAL/MOL
REMARK 927      BINDING AFFINITY PREDICTED BY RF-SCORE:    0.00 PKD
ROOT
HETATM    1  O   UNL     1     -13.078  12.924  65.148  1.00  0.00    -0.753 OA 
HETATM    2  C   UNL     1     -11.798  12.376  65.431  1.00  0.00    -0.406 C  
HETATM    3  H   UNL     1     -13.798  12.432  65.523  1.00  0.00     0.000 HD 
ENDROOT
BRANCH   2   4
HETATM    4  C   UNL     1     -11.623  12.122  66.918  1.00  0.00    -0.408 A  
HETATM    5  C   UNL     1     -11.313  11.708  69.684  1.00  0.00    -0.308 A  
HETATM    6  C   UNL     1     -11.981  13.121  67.841  1.00  0.00    -0.347 A  
HETATM    7  C   UNL     1     -11.117  10.911  67.412  1.00  0.00    -0.373 A  
HETATM    8  C   UNL     1     -10.967  10.703  68.785  1.00  0.00    -0.292 A  
HETATM    9  C   UNL     1     -11.818  12.917  69.213  1.00  0.00    -0.363 A  
ENDBRANCH   2   4
BRANCH   2  10
HETATM   10  C   UNL     1     -10.631  13.174  64.822  1.00  0.00    -0.372 C  
HETATM   11  O   UNL     1     -10.139  12.848  63.738  1.00  0.00    -0.368 OA 
BRANCH  10  12
HETATM   12  C   UNL     1     -10.060  14.355  65.538  1.00  0.00    -0.382 A  
HETATM   13  C   UNL     1     -10.701  15.592  65.381  1.00  0.00    -0.424 A  
HETATM   14  C   UNL     1      -9.074  16.639  66.827  1.00  0.00    -0.261 A  
HETATM   15  C   UNL     1     -10.206  16.731  66.019  1.00  0.00    -0.361 A  
HETATM   16  C   UNL     1      -8.445  15.410  67.006  1.00  0.00    -0.262 A  
HETATM   17  C   UNL     1      -8.940  14.270  66.370  1.00  0.00    -0.093 A  
ENDBRANCH  10  12
ENDBRANCH   2  10
TORSDOF 3
ENDMDL
MODEL       65
REMARK 921   NORMALIZED FREE ENERGY PREDICTED BY IDOCK:   -5.12 KCAL/MOL
REMARK 922        TOTAL FREE ENERGY PREDICTED BY IDOCK:   -6.36 KCAL/MOL
REMARK 923 INTER-LIGAND FREE ENERGY PREDICTED BY IDOCK:   -5.72 KCAL/MOL
REMARK 924 INTRA-LIGAND FREE ENERGY PREDICTED BY IDOCK:   -0.64 KCAL/MOL
REMARK 927      BINDING AFFINITY PREDICTED BY RF-SCORE:    0.00 PKD
ROOT
HETATM    1  O   UNL     1     -11.969  10.841  67.961  1.00  0.00    -0.780 OA 
HETATM    2  C   UNL     1     -11.678  12.111  67.394  1.00  0.00    -0.304 C  
HETATM    3  H   UNL     1     -12.680  10.382  67.530  1.00  0.00     0.000 HD 
ENDROOT
BRANCH   2   4
HETATM    4  C   UNL     1     -11.487  12.013  65.890  1.00  0.00    -0.392 A  
HETATM    5  C   UNL     1     -11.183  11.864  63.096  1.00  0.00    -0.248 A  
HETATM    6  C   UNL     1     -12.324  12.750  65.034  1.00  0.00    -0.559 A  
HETATM    7  C   UNL     1     -10.490  11.210  65.317  1.00  0.00    -0.326 A  
HETATM    8  C   UNL     1     -10.335  11.140  63.930  1.00  0.00    -0.441 A  
HETATM    9  C   UNL     1     -12.178  12.668  63.647  1.00  0.00    -0.624 A  
ENDBRANCH   2   4
BRANCH   2  10
HETATM   10  C   UNL     1     -10.526  12.855  68.093  1.00  0.00    -0.237 C  
HETATM   11  O   UNL     1      -9.640  12.233  68.687  1.00  0.00    -0.156 OA 
BRANCH  10  12
HETATM   12  C   UNL     1     -10.463  14.347  68.079  1.00  0.00    -0.237 A  
HETATM   13  C   UNL     1     -11.093  15.043  69.120  1.00  0.00    -0.278 A  
HETATM   14  C   UNL     1     -10.415  17.148  68.149  1.00  0.00    -0.366 A  
HETATM   15  C   UNL     1     -11.074  16.439  69.152  1.00  0.00    -0.303 A  
HETATM   16  C   UNL     1      -9.767  16.465  67.124  1.00  0.00    -0.241 A  
HETATM   17  C   UNL     1      -9.784  15.069  67.092  1.00  0.00    -0.228 A  
ENDBRANCH  10  12
ENDBRANCH   2  10
TORSDOF 3
ENDMDL
MODEL       66
REMARK 921   NORMALIZED FREE ENERGY PREDICTED BY IDOCK:   -5.10 KCAL/MOL
REMARK 922        TOTAL FREE ENERGY PREDICTED BY IDOCK:   -6.34 KCAL/MOL
REMARK 923 INTER-LIGAND FREE ENERGY PREDICTED BY IDOCK:   -5.79 KCAL/MOL
REMARK 924 INTRA-LIGAND FREE ENERGY PREDICTED BY IDOCK:   -0.54 KCAL/MOL
REMARK 927      BINDING AFFINITY PREDICTED BY RF-SCORE:    0.00 PKD
ROOT
HETATM    1  O   UNL     1      -9.496  14.380  68.980  1.00  0.00    -0.353 OA 
HETATM    2  C   UNL     1     -10.001  14.709  67.693  1.00  0.00    -0.227 C  
HETATM    3  H   UNL     1      -8.709  14.856  69.217  1.00  0.00     0.000 HD 
ENDROOT
BRANCH   2   4
HETATM    4  C   UNL     1     -10.153  16.211  67.527  1.00  0.00    -0.256 A  
HETATM    5  C   UNL     1     -10.429  19.001  67.280  1.00  0.00    -0.533 A  
HETATM    6  C   UNL     1     -10.000  17.053  68.644  1.00  0.00    -0.294 A  
HETATM    7  C   UNL     1     -10.436  16.798  66.286  1.00  0.00    -0.264 A  
HETATM    8  C   UNL     1     -10.569  18.183  66.161  1.00  0.00    -0.289 A  
HETATM    9  C   UNL     1     -10.146  18.437  68.521  1.00  0.00    -0.413 A  
ENDBRANCH   2   4
BRANCH   2  10
HETATM   10  C   UNL     1     -11.276  13.936  67.309  1.00  0.00    -0.312 C  
HETATM   11  O   UNL     1     -12.268  13.950  68.044  1.00  0.00    -0.326 OA 
BRANCH  10  12
HETATM   12  C   UNL     1     -11.335  13.144  66.045  1.00  0.00    -0.337 A  
HETATM   13  C   UNL     1     -10.166  12.499  65.617  1.00  0.00    -0.287 A  
HETATM   14  C   UNL     1     -11.327  11.635  63.683  1.00  0.00    -0.485 A  
HETATM   15  C   UNL     1     -10.161  11.752  64.437  1.00  0.00    -0.332 A  
HETATM   16  C   UNL     1     -12.499  12.253  64.112  1.00  0.00    -0.530 A  
HETATM   17  C   UNL     1     -12.505  12.999  65.292  1.00  0.00    -0.555 A  
ENDBRANCH  10  12
ENDBRANCH   2  10
TORSDOF 3
ENDMDL
MODEL       67
REMARK 921   NORMALIZED FREE ENERGY PREDICTED BY IDOCK:   -5.09 KCAL/MOL
REMARK 922        TOTAL FREE ENERGY PREDICTED BY IDOCK:   -6.33 KCAL/MOL
REMARK 923 INTER-LIGAND FREE ENERGY PREDICTED BY IDOCK:   -5.81 KCAL/MOL
REMARK 924 INTRA-LIGAND FREE ENERGY PREDICTED BY IDOCK:   -0.52 KCAL/MOL
REMARK 927      BINDING AFFINITY PREDICTED BY RF-SCORE:    0.00 PKD
ROOT
HETATM    1  O   UNL     1     -12.707  13.455  63.982  1.00  0.00    -0.657 OA 
HETATM    2  C   UNL     1     -11.926  13.117  65.121  1.00  0.00    -0.394 C  
HETATM    3  H   UNL     1     -13.394  14.086  64.161  1.00  0.00     0.000 HD 
ENDROOT
BRANCH   2   4
HETATM    4  C   UNL     1     -11.413  14.360  65.827  1.00  0.00    -0.335 A  
HETATM    5  C   UNL     1     -10.493  16.647  67.185  1.00  0.00    -0.300 A  
HETATM    6  C   UNL     1     -11.670  14.536  67.199  1.00  0.00    -0.420 A  
HETATM    7  C   UNL     1     -10.678  15.348  65.156  1.00  0.00    -0.460 A  
HETATM    8  C   UNL     1     -10.217  16.481  65.830  1.00  0.00    -0.368 A  
HETATM    9  C   UNL     1     -11.220  15.676  67.869  1.00  0.00    -0.328 A  
ENDBRANCH   2   4
BRANCH   2  10
HETATM   10  C   UNL     1     -10.813  12.095  64.830  1.00  0.00    -0.308 C  
HETATM   11  O   UNL     1     -10.127  12.181  63.807  1.00  0.00    -0.371 OA 
BRANCH  10  12
HETATM   12  C   UNL     1     -10.546  10.969  65.775  1.00  0.00    -0.260 A  
HETATM   13  C   UNL     1      -9.815   9.871  65.301  1.00  0.00    -0.373 A  
HETATM   14  C   UNL     1      -9.993   8.797  67.457  1.00  0.00    -0.254 A  
HETATM   15  C   UNL     1      -9.544   8.786  66.138  1.00  0.00    -0.323 A  
HETATM   16  C   UNL     1     -10.700   9.894  67.943  1.00  0.00    -0.316 A  
HETATM   17  C   UNL     1     -10.970  10.979  67.108  1.00  0.00    -0.344 A  
ENDBRANCH  10  12
ENDBRANCH   2  10
TORSDOF 3
ENDMDL
MODEL       68
REMARK 921   NORMALIZED FREE ENERGY PREDICTED BY IDOCK:   -5.08 KCAL/MOL
REMARK 922        TOTAL FREE ENERGY PREDICTED BY IDOCK:   -6.31 KCAL/MOL
REMARK 923 INTER-LIGAND FREE ENERGY PREDICTED BY IDOCK:   -6.21 KCAL/MOL
REMARK 924 INTRA-LIGAND FREE ENERGY PREDICTED BY IDOCK:   -0.10 KCAL/MOL
REMARK 927      BINDING AFFINITY PREDICTED BY RF-SCORE:    0.00 PKD
ROOT
HETATM    1  O   UNL     1     -10.518  14.440  69.420  1.00  0.00    -0.382 OA 
HETATM    2  C   UNL     1     -11.824  13.956  69.702  1.00  0.00    -0.327 C  
HETATM    3  H   UNL     1     -10.472  15.384  69.322  1.00  0.00     0.000 HD 
ENDROOT
BRANCH   2   4
HETATM    4  C   UNL     1     -12.448  14.698  70.872  1.00  0.00    -0.406 A  
HETATM    5  C   UNL     1     -13.548  16.084  73.060  1.00  0.00    -0.530 A  
HETATM    6  C   UNL     1     -11.622  15.396  71.772  1.00  0.00    -0.501 A  
HETATM    7  C   UNL     1     -13.833  14.719  71.087  1.00  0.00    -0.388 A  
HETATM    8  C   UNL     1     -14.380  15.412  72.170  1.00  0.00    -0.642 A  
HETATM    9  C   UNL     1     -12.170  16.076  72.863  1.00  0.00    -0.621 A  
ENDBRANCH   2   4
BRANCH   2  10
HETATM   10  C   UNL     1     -11.899  12.426  69.860  1.00  0.00    -0.305 C  
HETATM   11  O   UNL     1     -12.348  11.919  70.892  1.00  0.00    -0.373 OA 
BRANCH  10  12
HETATM   12  C   UNL     1     -11.417  11.524  68.772  1.00  0.00    -0.349 A  
HETATM   13  C   UNL     1     -11.152  10.185  69.096  1.00  0.00    -0.257 A  
HETATM   14  C   UNL     1     -10.503   9.741  66.812  1.00  0.00    -0.259 A  
HETATM   15  C   UNL     1     -10.691   9.299  68.120  1.00  0.00    -0.205 A  
HETATM   16  C   UNL     1     -10.785  11.063  66.476  1.00  0.00    -0.298 A  
HETATM   17  C   UNL     1     -11.247  11.949  67.451  1.00  0.00    -0.366 A  
ENDBRANCH  10  12
ENDBRANCH   2  10
TORSDOF 3
ENDMDL
MODEL       69
REMARK 921   NORMALIZED FREE ENERGY PREDICTED BY IDOCK:   -5.07 KCAL/MOL
REMARK 922        TOTAL FREE ENERGY PREDICTED BY IDOCK:   -6.30 KCAL/MOL
REMARK 923 INTER-LIGAND FREE ENERGY PREDICTED BY IDOCK:   -5.73 KCAL/MOL
REMARK 924 INTRA-LIGAND FREE ENERGY PREDICTED BY IDOCK:   -0.57 KCAL/MOL
REMARK 927      BINDING AFFINITY PREDICTED BY RF-SCORE:    0.00 PKD
ROOT
HETATM    1  O   UNL     1     -13.148  13.952  65.185  1.00  0.00    -0.773 OA 
HETATM    2  C   UNL     1     -12.326  13.611  66.293  1.00  0.00    -0.412 C  
HETATM    3  H   UNL     1     -13.549  14.810  65.254  1.00  0.00     0.000 HD 
ENDROOT
BRANCH   2   4
HETATM    4  C   UNL     1     -11.317  14.708  66.590  1.00  0.00    -0.358 A  
HETATM    5  C   UNL     1      -9.480  16.753  67.190  1.00  0.00    -0.237 A  
HETATM    6  C   UNL     1     -11.366  15.382  67.823  1.00  0.00    -0.308 A  
HETATM    7  C   UNL     1     -10.323  15.074  65.671  1.00  0.00    -0.374 A  
HETATM    8  C   UNL     1      -9.408  16.086  65.970  1.00  0.00    -0.380 A  
HETATM    9  C   UNL     1     -10.459  16.403  68.116  1.00  0.00    -0.302 A  
ENDBRANCH   2   4
BRANCH   2  10
HETATM   10  C   UNL     1     -11.676  12.220  66.181  1.00  0.00    -0.376 C  
HETATM   11  O   UNL     1     -11.369  11.753  65.080  1.00  0.00    -0.293 OA 
BRANCH  10  12
HETATM   12  C   UNL     1     -11.414  11.401  67.402  1.00  0.00    -0.328 A  
HETATM   13  C   UNL     1     -11.980  11.826  68.613  1.00  0.00    -0.299 A  
HETATM   14  C   UNL     1     -10.984   9.947  69.759  1.00  0.00    -0.304 A  
HETATM   15  C   UNL     1     -11.761  11.103  69.788  1.00  0.00    -0.419 A  
HETATM   16  C   UNL     1     -10.437   9.505  68.556  1.00  0.00    -0.247 A  
HETATM   17  C   UNL     1     -10.657  10.226  67.381  1.00  0.00    -0.324 A  
ENDBRANCH  10  12
ENDBRANCH   2  10
TORSDOF 3
ENDMDL
MODEL       70
REMARK 921   NORMALIZED FREE ENERGY PREDICTED BY IDOCK:   -5.06 KCAL/MOL
REMARK 922        TOTAL FREE ENERGY PREDICTED BY IDOCK:   -6.29 KCAL/MOL
REMARK 923 INTER-LIGAND FREE ENERGY PREDICTED BY IDOCK:   -5.51 KCAL/MOL
REMARK 924 INTRA-LIGAND FREE ENERGY PREDICTED BY IDOCK:   -0.78 KCAL/MOL
REMARK 927      BINDING AFFINITY PREDICTED BY RF-SCORE:    0.00 PKD
ROOT
HETATM    1  O   UNL     1     -11.537  11.833  68.519  1.00  0.00    -0.271 OA 
HETATM    2  C   UNL     1     -12.022  12.923  67.748  1.00  0.00    -0.283 C  
HETATM    3  H   UNL     1     -11.846  10.985  68.223  1.00  0.00     0.000 HD 
ENDROOT
BRANCH   2   4
HETATM    4  C   UNL     1     -11.785  12.698  66.264  1.00  0.00    -0.460 A  
HETATM    5  C   UNL     1     -11.301  12.242  63.529  1.00  0.00    -0.549 A  
HETATM    6  C   UNL     1     -10.881  11.704  65.848  1.00  0.00    -0.339 A  
HETATM    7  C   UNL     1     -12.447  13.448  65.282  1.00  0.00    -0.532 A  
HETATM    8  C   UNL     1     -12.211  13.219  63.924  1.00  0.00    -0.491 A  
HETATM    9  C   UNL     1     -10.635  11.485  64.490  1.00  0.00    -0.387 A  
ENDBRANCH   2   4
BRANCH   2  10
HETATM   10  C   UNL     1     -11.521  14.297  68.228  1.00  0.00    -0.304 C  
HETATM   11  O   UNL     1     -12.124  14.916  69.110  1.00  0.00    -0.291 OA 
BRANCH  10  12
HETATM   12  C   UNL     1     -10.302  14.916  67.628  1.00  0.00    -0.242 A  
HETATM   13  C   UNL     1     -10.473  16.015  66.774  1.00  0.00    -0.308 A  
HETATM   14  C   UNL     1      -8.085  16.152  66.439  1.00  0.00    -0.305 A  
HETATM   15  C   UNL     1      -9.369  16.626  66.178  1.00  0.00    -0.318 A  
HETATM   16  C   UNL     1      -7.903  15.076  67.305  1.00  0.00    -0.241 A  
HETATM   17  C   UNL     1      -9.007  14.464  67.902  1.00  0.00    -0.186 A  
ENDBRANCH  10  12
ENDBRANCH   2  10
TORSDOF 3
ENDMDL
MODEL       71
REMARK 921   NORMALIZED FREE ENERGY PREDICTED BY IDOCK:   -5.05 KCAL/MOL
REMARK 922        TOTAL FREE ENERGY PREDICTED BY IDOCK:   -6.28 KCAL/MOL
REMARK 923 INTER-LIGAND FREE ENERGY PREDICTED BY IDOCK:   -5.57 KCAL/MOL
REMARK 924 INTRA-LIGAND FREE ENERGY PREDICTED BY IDOCK:   -0.71 KCAL/MOL
REMARK 927      BINDING AFFINITY PREDICTED BY RF-SCORE:    0.00 PKD
ROOT
HETATM    1  O   UNL     1      -9.672  15.899  69.713  1.00  0.00    -0.257 OA 
HETATM    2  C   UNL     1      -8.866  16.174  68.575  1.00  0.00    -0.200 C  
HETATM    3  H   UNL     1      -9.668  16.592  70.362  1.00  0.00     0.000 HD 
ENDROOT
BRANCH   2   4
HETATM    4  C   UNL     1      -9.193  17.534  67.983  1.00  0.00    -0.275 A  
HETATM    5  C   UNL     1      -9.749  20.050  66.853  1.00  0.00    -0.557 A  
HETATM    6  C   UNL     1      -8.424  18.030  66.915  1.00  0.00    -0.262 A  
HETATM    7  C   UNL     1     -10.250  18.321  68.463  1.00  0.00    -0.402 A  
HETATM    8  C   UNL     1     -10.529  19.568  67.900  1.00  0.00    -0.552 A  
HETATM    9  C   UNL     1      -8.696  19.283  66.361  1.00  0.00    -0.362 A  
ENDBRANCH   2   4
BRANCH   2  10
HETATM   10  C   UNL     1      -8.872  15.050  67.523  1.00  0.00    -0.185 C  
HETATM   11  O   UNL     1      -7.843  14.417  67.268  1.00  0.00    -0.195 OA 
BRANCH  10  12
HETATM   12  C   UNL     1     -10.121  14.709  66.780  1.00  0.00    -0.266 A  
HETATM   13  C   UNL     1     -10.268  15.205  65.476  1.00  0.00    -0.405 A  
HETATM   14  C   UNL     1     -12.428  14.139  65.293  1.00  0.00    -0.474 A  
HETATM   15  C   UNL     1     -11.420  14.925  64.738  1.00  0.00    -0.410 A  
HETATM   16  C   UNL     1     -12.281  13.623  66.578  1.00  0.00    -0.454 A  
HETATM   17  C   UNL     1     -11.129  13.901  67.317  1.00  0.00    -0.312 A  
ENDBRANCH  10  12
ENDBRANCH   2  10
TORSDOF 3
ENDMDL
MODEL       72
REMARK 921   NORMALIZED FREE ENERGY PREDICTED BY IDOCK:   -5.04 KCAL/MOL
REMARK 922        TOTAL FREE ENERGY PREDICTED BY IDOCK:   -6.26 KCAL/MOL
REMARK 923 INTER-LIGAND FREE ENERGY PREDICTED BY IDOCK:   -5.66 KCAL/MOL
REMARK 924 INTRA-LIGAND FREE ENERGY PREDICTED BY IDOCK:   -0.60 KCAL/MOL
REMARK 927      BINDING AFFINITY PREDICTED BY RF-SCORE:    0.00 PKD
ROOT
HETATM    1  O   UNL     1      -9.352  14.957  68.087  1.00  0.00    -0.185 OA 
HETATM    2  C   UNL     1     -10.313  14.487  69.023  1.00  0.00    -0.223 C  
HETATM    3  H   UNL     1      -8.625  14.361  67.951  1.00  0.00     0.000 HD 
ENDROOT
BRANCH   2   4
HETATM    4  C   UNL     1     -10.766  13.077  68.687  1.00  0.00    -0.273 A  
HETATM    5  C   UNL     1     -11.601  10.477  68.008  1.00  0.00    -0.107 A  
HETATM    6  C   UNL     1     -10.730  12.634  67.353  1.00  0.00    -0.251 A  
HETATM    7  C   UNL     1     -11.218  12.186  69.672  1.00  0.00    -0.137 A  
HETATM    8  C   UNL     1     -11.628  10.894  69.336  1.00  0.00    -0.387 A  
HETATM    9  C   UNL     1     -11.153  11.346  67.016  1.00  0.00    -0.364 A  
ENDBRANCH   2   4
BRANCH   2  10
HETATM   10  C   UNL     1     -11.490  15.454  69.243  1.00  0.00    -0.333 C  
HETATM   11  O   UNL     1     -11.882  16.190  68.333  1.00  0.00    -0.260 OA 
BRANCH  10  12
HETATM   12  C   UNL     1     -12.176  15.530  70.568  1.00  0.00    -0.444 A  
HETATM   13  C   UNL     1     -13.511  15.109  70.643  1.00  0.00    -0.243 A  
HETATM   14  C   UNL     1     -13.564  15.636  73.000  1.00  0.00    -0.619 A  
HETATM   15  C   UNL     1     -14.204  15.167  71.854  1.00  0.00    -0.676 A  
HETATM   16  C   UNL     1     -12.231  16.035  72.939  1.00  0.00    -0.621 A  
HETATM   17  C   UNL     1     -11.537  15.976  71.729  1.00  0.00    -0.534 A  
ENDBRANCH  10  12
ENDBRANCH   2  10
TORSDOF 3
ENDMDL
MODEL       73
REMARK 921   NORMALIZED FREE ENERGY PREDICTED BY IDOCK:   -5.03 KCAL/MOL
REMARK 922        TOTAL FREE ENERGY PREDICTED BY IDOCK:   -6.25 KCAL/MOL
REMARK 923 INTER-LIGAND FREE ENERGY PREDICTED BY IDOCK:   -5.70 KCAL/MOL
REMARK 924 INTRA-LIGAND FREE ENERGY PREDICTED BY IDOCK:   -0.55 KCAL/MOL
REMARK 927      BINDING AFFINITY PREDICTED BY RF-SCORE:    0.00 PKD
ROOT
HETATM    1  O   UNL     1      -9.299  10.678  69.702  1.00  0.00    -0.413 OA 
HETATM    2  C   UNL     1     -10.498  10.010  70.070  1.00  0.00    -0.287 C  
HETATM    3  H   UNL     1      -8.522  10.135  69.765  1.00  0.00     0.000 HD 
ENDROOT
BRANCH   2   4
HETATM    4  C   UNL     1     -10.644   8.690  69.332  1.00  0.00    -0.207 A  
HETATM    5  C   UNL     1     -10.921   6.217  68.018  1.00  0.00    -0.418 A  
HETATM    6  C   UNL     1     -11.028   7.537  70.039  1.00  0.00    -0.252 A  
HETATM    7  C   UNL     1     -10.411   8.578  67.954  1.00  0.00    -0.262 A  
HETATM    8  C   UNL     1     -10.553   7.352  67.300  1.00  0.00    -0.393 A  
HETATM    9  C   UNL     1     -11.157   6.309  69.387  1.00  0.00    -0.477 A  
ENDBRANCH   2   4
BRANCH   2  10
HETATM   10  C   UNL     1     -11.757  10.891  69.967  1.00  0.00    -0.345 C  
HETATM   11  O   UNL     1     -12.782  10.603  70.592  1.00  0.00    -0.352 OA 
BRANCH  10  12
HETATM   12  C   UNL     1     -11.767  12.107  69.100  1.00  0.00    -0.384 A  
HETATM   13  C   UNL     1     -11.846  11.924  67.711  1.00  0.00    -0.289 A  
HETATM   14  C   UNL     1     -11.787  14.315  67.374  1.00  0.00    -0.441 A  
HETATM   15  C   UNL     1     -11.850  13.025  66.852  1.00  0.00    -0.442 A  
HETATM   16  C   UNL     1     -11.731  14.507  68.753  1.00  0.00    -0.362 A  
HETATM   17  C   UNL     1     -11.729  13.407  69.613  1.00  0.00    -0.375 A  
ENDBRANCH  10  12
ENDBRANCH   2  10
TORSDOF 3
ENDMDL
MODEL       74
REMARK 921   NORMALIZED FREE ENERGY PREDICTED BY IDOCK:   -4.99 KCAL/MOL
REMARK 922        TOTAL FREE ENERGY PREDICTED BY IDOCK:   -6.20 KCAL/MOL
REMARK 923 INTER-LIGAND FREE ENERGY PREDICTED BY IDOCK:   -5.80 KCAL/MOL
REMARK 924 INTRA-LIGAND FREE ENERGY PREDICTED BY IDOCK:   -0.40 KCAL/MOL
REMARK 927      BINDING AFFINITY PREDICTED BY RF-SCORE:    0.00 PKD
ROOT
HETATM    1  O   UNL     1     -13.187  12.809  64.836  1.00  0.00    -0.808 OA 
HETATM    2  C   UNL     1     -12.042  12.346  65.538  1.00  0.00    -0.351 C  
HETATM    3  H   UNL     1     -13.986  12.789  65.349  1.00  0.00     0.000 HD 
ENDROOT
BRANCH   2   4
HETATM    4  C   UNL     1     -11.896  13.047  66.878  1.00  0.00    -0.442 A  
HETATM    5  C   UNL     1     -11.637  14.292  69.388  1.00  0.00    -0.354 A  
HETATM    6  C   UNL     1     -11.902  12.289  68.063  1.00  0.00    -0.368 A  
HETATM    7  C   UNL     1     -11.747  14.437  66.979  1.00  0.00    -0.420 A  
HETATM    8  C   UNL     1     -11.613  15.056  68.224  1.00  0.00    -0.355 A  
HETATM    9  C   UNL     1     -11.782  12.910  69.309  1.00  0.00    -0.378 A  
ENDBRANCH   2   4
BRANCH   2  10
HETATM   10  C   UNL     1     -10.747  12.378  64.706  1.00  0.00    -0.298 C  
HETATM   11  O   UNL     1     -10.339  13.433  64.212  1.00  0.00    -0.420 OA 
BRANCH  10  12
HETATM   12  C   UNL     1      -9.964  11.129  64.468  1.00  0.00    -0.350 A  
HETATM   13  C   UNL     1      -9.548  10.389  65.586  1.00  0.00    -0.281 A  
HETATM   14  C   UNL     1      -8.481   8.772  64.143  1.00  0.00    -0.123 A  
HETATM   15  C   UNL     1      -8.805   9.218  65.422  1.00  0.00    -0.230 A  
HETATM   16  C   UNL     1      -8.909   9.488  63.027  1.00  0.00    -0.242 A  
HETATM   17  C   UNL     1      -9.653  10.658  63.189  1.00  0.00    -0.382 A  
ENDBRANCH  10  12
ENDBRANCH   2  10
TORSDOF 3
ENDMDL
MODEL       75
REMARK 921   NORMALIZED FREE ENERGY PREDICTED BY IDOCK:   -4.98 KCAL/MOL
REMARK 922        TOTAL FREE ENERGY PREDICTED BY IDOCK:   -6.19 KCAL/MOL
REMARK 923 INTER-LIGAND FREE ENERGY PREDICTED BY IDOCK:   -5.73 KCAL/MOL
REMARK 924 INTRA-LIGAND FREE ENERGY PREDICTED BY IDOCK:   -0.46 KCAL/MOL
REMARK 927      BINDING AFFINITY PREDICTED BY RF-SCORE:    0.00 PKD
ROOT
HETATM    1  O   UNL     1     -10.172  10.031  68.042  1.00  0.00    -0.164 OA 
HETATM    2  C   UNL     1     -10.575  10.987  69.013  1.00  0.00    -0.225 C  
HETATM    3  H   UNL     1      -9.686   9.299  68.402  1.00  0.00     0.000 HD 
ENDROOT
BRANCH   2   4
HETATM    4  C   UNL     1     -11.293  10.323  70.176  1.00  0.00    -0.388 A  
HETATM    5  C   UNL     1     -12.574   9.057  72.338  1.00  0.00    -0.403 A  
HETATM    6  C   UNL     1     -10.604   9.397  70.981  1.00  0.00    -0.400 A  
HETATM    7  C   UNL     1     -12.631  10.606  70.485  1.00  0.00    -0.433 A  
HETATM    8  C   UNL     1     -13.266   9.982  71.561  1.00  0.00    -0.497 A  
HETATM    9  C   UNL     1     -11.245   8.763  72.048  1.00  0.00    -0.443 A  
ENDBRANCH   2   4
BRANCH   2  10
HETATM   10  C   UNL     1     -11.361  12.174  68.429  1.00  0.00    -0.286 C  
HETATM   11  O   UNL     1     -12.120  12.018  67.467  1.00  0.00    -0.555 OA 
BRANCH  10  12
HETATM   12  C   UNL     1     -11.213  13.544  69.006  1.00  0.00    -0.314 A  
HETATM   13  C   UNL     1     -10.120  14.318  68.591  1.00  0.00    -0.238 A  
HETATM   14  C   UNL     1     -10.831  16.125  70.028  1.00  0.00    -0.349 A  
HETATM   15  C   UNL     1      -9.927  15.602  69.105  1.00  0.00    -0.244 A  
HETATM   16  C   UNL     1     -11.932  15.372  70.428  1.00  0.00    -0.387 A  
HETATM   17  C   UNL     1     -12.127  14.089  69.914  1.00  0.00    -0.406 A  
ENDBRANCH  10  12
ENDBRANCH   2  10
TORSDOF 3
ENDMDL
MODEL       76
REMARK 921   NORMALIZED FREE ENERGY PREDICTED BY IDOCK:   -4.97 KCAL/MOL
REMARK 922        TOTAL FREE ENERGY PREDICTED BY IDOCK:   -6.18 KCAL/MOL
REMARK 923 INTER-LIGAND FREE ENERGY PREDICTED BY IDOCK:   -6.27 KCAL/MOL
REMARK 924 INTRA-LIGAND FREE ENERGY PREDICTED BY IDOCK:    0.09 KCAL/MOL
REMARK 927      BINDING AFFINITY PREDICTED BY RF-SCORE:    0.00 PKD
ROOT
HETATM    1  O   UNL     1     -10.893  13.458  69.555  1.00  0.00    -0.449 OA 
HETATM    2  C   UNL     1     -11.823  12.466  69.143  1.00  0.00    -0.300 C  
HETATM    3  H   UNL     1     -10.998  13.731  70.458  1.00  0.00     0.000 HD 
ENDROOT
BRANCH   2   4
HETATM    4  C   UNL     1     -11.847  11.295  70.111  1.00  0.00    -0.449 A  
HETATM    5  C   UNL     1     -11.842   9.104  71.877  1.00  0.00    -0.439 A  
HETATM    6  C   UNL     1     -10.792  10.365  70.103  1.00  0.00    -0.333 A  
HETATM    7  C   UNL     1     -12.891  11.109  71.028  1.00  0.00    -0.424 A  
HETATM    8  C   UNL     1     -12.887  10.024  71.909  1.00  0.00    -0.524 A  
HETATM    9  C   UNL     1     -10.796   9.273  70.974  1.00  0.00    -0.385 A  
ENDBRANCH   2   4
BRANCH   2  10
HETATM   10  C   UNL     1     -11.653  12.023  67.678  1.00  0.00    -0.321 C  
HETATM   11  O   UNL     1     -11.655  10.826  67.375  1.00  0.00    -0.485 OA 
BRANCH  10  12
HETATM   12  C   UNL     1     -11.470  13.033  66.594  1.00  0.00    -0.382 A  
HETATM   13  C   UNL     1     -12.613  13.496  65.925  1.00  0.00    -0.454 A  
HETATM   14  C   UNL     1     -11.245  14.924  64.536  1.00  0.00    -0.273 A  
HETATM   15  C   UNL     1     -12.499  14.434  64.896  1.00  0.00    -0.368 A  
HETATM   16  C   UNL     1     -10.107  14.487  65.210  1.00  0.00    -0.389 A  
HETATM   17  C   UNL     1     -10.220  13.551  66.240  1.00  0.00    -0.299 A  
ENDBRANCH  10  12
ENDBRANCH   2  10
TORSDOF 3
ENDMDL
MODEL       77
REMARK 921   NORMALIZED FREE ENERGY PREDICTED BY IDOCK:   -4.96 KCAL/MOL
REMARK 922        TOTAL FREE ENERGY PREDICTED BY IDOCK:   -6.17 KCAL/MOL
REMARK 923 INTER-LIGAND FREE ENERGY PREDICTED BY IDOCK:   -5.82 KCAL/MOL
REMARK 924 INTRA-LIGAND FREE ENERGY PREDICTED BY IDOCK:   -0.36 KCAL/MOL
REMARK 927      BINDING AFFINITY PREDICTED BY RF-SCORE:    0.00 PKD
ROOT
HETATM    1  O   UNL     1     -12.893  14.153  66.541  1.00  0.00    -0.472 OA 
HETATM    2  C   UNL     1     -11.497  14.219  66.281  1.00  0.00    -0.357 C  
HETATM    3  H   UNL     1     -13.416  13.933  65.780  1.00  0.00     0.000 HD 
ENDROOT
BRANCH   2   4
HETATM    4  C   UNL     1     -11.008  12.965  65.576  1.00  0.00    -0.301 A  
HETATM    5  C   UNL     1     -10.097  10.617  64.322  1.00  0.00    -0.411 A  
HETATM    6  C   UNL     1     -10.829  11.779  66.310  1.00  0.00    -0.325 A  
HETATM    7  C   UNL     1     -10.731  12.945  64.201  1.00  0.00    -0.443 A  
HETATM    8  C   UNL     1     -10.283  11.778  63.578  1.00  0.00    -0.483 A  
HETATM    9  C   UNL     1     -10.368  10.617  65.688  1.00  0.00    -0.285 A  
ENDBRANCH   2   4
BRANCH   2  10
HETATM   10  C   UNL     1     -10.651  14.576  67.516  1.00  0.00    -0.262 C  
HETATM   11  O   UNL     1      -9.453  14.851  67.403  1.00  0.00    -0.201 OA 
BRANCH  10  12
HETATM   12  C   UNL     1     -11.259  14.584  68.880  1.00  0.00    -0.283 A  
HETATM   13  C   UNL     1     -11.754  13.374  69.388  1.00  0.00    -0.382 A  
HETATM   14  C   UNL     1     -12.429  14.483  71.425  1.00  0.00    -0.423 A  
HETATM   15  C   UNL     1     -12.342  13.326  70.654  1.00  0.00    -0.416 A  
HETATM   16  C   UNL     1     -11.920  15.685  70.938  1.00  0.00    -0.440 A  
HETATM   17  C   UNL     1     -11.330  15.734  69.673  1.00  0.00    -0.334 A  
ENDBRANCH  10  12
ENDBRANCH   2  10
TORSDOF 3
ENDMDL
MODEL       78
REMARK 921   NORMALIZED FREE ENERGY PREDICTED BY IDOCK:   -4.94 KCAL/MOL
REMARK 922        TOTAL FREE ENERGY PREDICTED BY IDOCK:   -6.15 KCAL/MOL
REMARK 923 INTER-LIGAND FREE ENERGY PREDICTED BY IDOCK:   -5.67 KCAL/MOL
REMARK 924 INTRA-LIGAND FREE ENERGY PREDICTED BY IDOCK:   -0.48 KCAL/MOL
REMARK 927      BINDING AFFINITY PREDICTED BY RF-SCORE:    0.00 PKD
ROOT
HETATM    1  O   UNL     1     -12.596   7.555  70.617  1.00  0.00    -0.545 OA 
HETATM    2  C   UNL     1     -11.534   8.485  70.781  1.00  0.00    -0.253 C  
HETATM    3  H   UNL     1     -12.310   6.651  70.566  1.00  0.00     0.000 HD 
ENDROOT
BRANCH   2   4
HETATM    4  C   UNL     1     -10.628   8.090  71.934  1.00  0.00    -0.305 A  
HETATM    5  C   UNL     1      -8.994   7.330  74.095  1.00  0.00    -0.267 A  
HETATM    6  C   UNL     1     -11.086   7.173  72.896  1.00  0.00    -0.338 A  
HETATM    7  C   UNL     1      -9.332   8.609  72.074  1.00  0.00    -0.362 A  
HETATM    8  C   UNL     1      -8.519   8.228  73.144  1.00  0.00    -0.265 A  
HETATM    9  C   UNL     1     -10.277   6.803  73.973  1.00  0.00    -0.399 A  
ENDBRANCH   2   4
BRANCH   2  10
HETATM   10  C   UNL     1     -11.999   9.950  70.863  1.00  0.00    -0.345 C  
HETATM   11  O   UNL     1     -12.567  10.377  71.872  1.00  0.00    -0.397 OA 
BRANCH  10  12
HETATM   12  C   UNL     1     -11.782  10.884  69.717  1.00  0.00    -0.413 A  
HETATM   13  C   UNL     1     -12.011  12.251  69.930  1.00  0.00    -0.377 A  
HETATM   14  C   UNL     1     -11.414  12.726  67.638  1.00  0.00    -0.387 A  
HETATM   15  C   UNL     1     -11.833  13.168  68.891  1.00  0.00    -0.361 A  
HETATM   16  C   UNL     1     -11.163  11.373  67.424  1.00  0.00    -0.370 A  
HETATM   17  C   UNL     1     -11.339  10.456  68.462  1.00  0.00    -0.283 A  
ENDBRANCH  10  12
ENDBRANCH   2  10
TORSDOF 3
ENDMDL
MODEL       79
REMARK 921   NORMALIZED FREE ENERGY PREDICTED BY IDOCK:   -4.90 KCAL/MOL
REMARK 922        TOTAL FREE ENERGY PREDICTED BY IDOCK:   -6.09 KCAL/MOL
REMARK 923 INTER-LIGAND FREE ENERGY PREDICTED BY IDOCK:   -5.64 KCAL/MOL
REMARK 924 INTRA-LIGAND FREE ENERGY PREDICTED BY IDOCK:   -0.45 KCAL/MOL
REMARK 927      BINDING AFFINITY PREDICTED BY RF-SCORE:    0.00 PKD
ROOT
HETATM    1  O   UNL     1     -12.157  11.789  68.459  1.00  0.00    -0.454 OA 
HETATM    2  C   UNL     1     -11.311  12.485  67.554  1.00  0.00    -0.312 C  
HETATM    3  H   UNL     1     -11.919  11.901  69.371  1.00  0.00     0.000 HD 
ENDROOT
BRANCH   2   4
HETATM    4  C   UNL     1     -11.165  13.945  67.947  1.00  0.00    -0.302 A  
HETATM    5  C   UNL     1     -10.934  16.641  68.720  1.00  0.00    -0.309 A  
HETATM    6  C   UNL     1     -11.756  14.407  69.137  1.00  0.00    -0.354 A  
HETATM    7  C   UNL     1     -10.450  14.860  67.161  1.00  0.00    -0.271 A  
HETATM    8  C   UNL     1     -10.330  16.197  67.547  1.00  0.00    -0.286 A  
HETATM    9  C   UNL     1     -11.647  15.748  69.515  1.00  0.00    -0.368 A  
ENDBRANCH   2   4
BRANCH   2  10
HETATM   10  C   UNL     1     -11.698  12.303  66.075  1.00  0.00    -0.388 C  
HETATM   11  O   UNL     1     -12.716  12.830  65.619  1.00  0.00    -0.549 OA 
BRANCH  10  12
HETATM   12  C   UNL     1     -10.855  11.472  65.164  1.00  0.00    -0.326 A  
HETATM   13  C   UNL     1     -10.121  10.417  65.725  1.00  0.00    -0.329 A  
HETATM   14  C   UNL     1      -9.233   9.853  63.551  1.00  0.00    -0.279 A  
HETATM   15  C   UNL     1      -9.309   9.614  64.922  1.00  0.00    -0.306 A  
HETATM   16  C   UNL     1      -9.975  10.884  62.981  1.00  0.00    -0.317 A  
HETATM   17  C   UNL     1     -10.789  11.687  63.784  1.00  0.00    -0.493 A  
ENDBRANCH  10  12
ENDBRANCH   2  10
TORSDOF 3
ENDMDL
MODEL       80
REMARK 921   NORMALIZED FREE ENERGY PREDICTED BY IDOCK:   -4.88 KCAL/MOL
REMARK 922        TOTAL FREE ENERGY PREDICTED BY IDOCK:   -6.08 KCAL/MOL
REMARK 923 INTER-LIGAND FREE ENERGY PREDICTED BY IDOCK:   -5.97 KCAL/MOL
REMARK 924 INTRA-LIGAND FREE ENERGY PREDICTED BY IDOCK:   -0.10 KCAL/MOL
REMARK 927      BINDING AFFINITY PREDICTED BY RF-SCORE:    0.00 PKD
ROOT
HETATM    1  O   UNL     1      -9.499  13.155  68.669  1.00  0.00    -0.373 OA 
HETATM    2  C   UNL     1     -10.338  12.064  68.313  1.00  0.00    -0.204 C  
HETATM    3  H   UNL     1      -8.684  13.187  68.182  1.00  0.00     0.000 HD 
ENDROOT
BRANCH   2   4
HETATM    4  C   UNL     1     -10.550  11.999  66.810  1.00  0.00    -0.260 A  
HETATM    5  C   UNL     1     -10.905  11.832  64.024  1.00  0.00    -0.446 A  
HETATM    6  C   UNL     1      -9.994  10.937  66.075  1.00  0.00    -0.290 A  
HETATM    7  C   UNL     1     -11.295  12.967  66.121  1.00  0.00    -0.356 A  
HETATM    8  C   UNL     1     -11.476  12.882  64.739  1.00  0.00    -0.360 A  
HETATM    9  C   UNL     1     -10.164  10.860  64.691  1.00  0.00    -0.411 A  
ENDBRANCH   2   4
BRANCH   2  10
HETATM   10  C   UNL     1     -11.657  12.011  69.104  1.00  0.00    -0.312 C  
HETATM   11  O   UNL     1     -12.408  11.035  69.015  1.00  0.00    -0.481 OA 
BRANCH  10  12
HETATM   12  C   UNL     1     -12.063  13.146  69.986  1.00  0.00    -0.375 A  
HETATM   13  C   UNL     1     -11.943  14.448  69.481  1.00  0.00    -0.376 A  
HETATM   14  C   UNL     1     -12.787  15.352  71.556  1.00  0.00    -0.499 A  
HETATM   15  C   UNL     1     -12.299  15.547  70.266  1.00  0.00    -0.431 A  
HETATM   16  C   UNL     1     -12.931  14.061  72.058  1.00  0.00    -0.450 A  
HETATM   17  C   UNL     1     -12.577  12.961  71.274  1.00  0.00    -0.352 A  
ENDBRANCH  10  12
ENDBRANCH   2  10
TORSDOF 3
ENDMDL
MODEL       81
REMARK 921   NORMALIZED FREE ENERGY PREDICTED BY IDOCK:   -4.87 KCAL/MOL
REMARK 922        TOTAL FREE ENERGY PREDICTED BY IDOCK:   -6.07 KCAL/MOL
REMARK 923 INTER-LIGAND FREE ENERGY PREDICTED BY IDOCK:   -5.60 KCAL/MOL
REMARK 924 INTRA-LIGAND FREE ENERGY PREDICTED BY IDOCK:   -0.46 KCAL/MOL
REMARK 927      BINDING AFFINITY PREDICTED BY RF-SCORE:    0.00 PKD
ROOT
HETATM    1  O   UNL     1      -8.873  11.659  69.134  1.00  0.00    -0.370 OA 
HETATM    2  C   UNL     1      -9.681  11.106  68.104  1.00  0.00    -0.181 C  
HETATM    3  H   UNL     1      -8.374  12.420  68.863  1.00  0.00     0.000 HD 
ENDROOT
BRANCH   2   4
HETATM    4  C   UNL     1     -10.545  12.170  67.449  1.00  0.00    -0.253 A  
HETATM    5  C   UNL     1     -12.150  14.107  66.186  1.00  0.00    -0.454 A  
HETATM    6  C   UNL     1     -11.181  11.893  66.225  1.00  0.00    -0.392 A  
HETATM    7  C   UNL     1     -10.739  13.432  68.028  1.00  0.00    -0.261 A  
HETATM    8  C   UNL     1     -11.540  14.392  67.405  1.00  0.00    -0.398 A  
HETATM    9  C   UNL     1     -11.970  12.859  65.596  1.00  0.00    -0.490 A  
ENDBRANCH   2   4
BRANCH   2  10
HETATM   10  C   UNL     1     -10.489   9.871  68.544  1.00  0.00    -0.205 C  
HETATM   11  O   UNL     1     -10.500   8.846  67.857  1.00  0.00    -0.228 OA 
BRANCH  10  12
HETATM   12  C   UNL     1     -11.288   9.893  69.806  1.00  0.00    -0.241 A  
HETATM   13  C   UNL     1     -11.192   8.789  70.665  1.00  0.00    -0.294 A  
HETATM   14  C   UNL     1     -12.747   9.822  72.198  1.00  0.00    -0.410 A  
HETATM   15  C   UNL     1     -11.923   8.752  71.854  1.00  0.00    -0.435 A  
HETATM   16  C   UNL     1     -12.831  10.933  71.362  1.00  0.00    -0.554 A  
HETATM   17  C   UNL     1     -12.099  10.972  70.173  1.00  0.00    -0.438 A  
ENDBRANCH  10  12
ENDBRANCH   2  10
TORSDOF 3
ENDMDL
MODEL       82
REMARK 921   NORMALIZED FREE ENERGY PREDICTED BY IDOCK:   -4.87 KCAL/MOL
REMARK 922        TOTAL FREE ENERGY PREDICTED BY IDOCK:   -6.06 KCAL/MOL
REMARK 923 INTER-LIGAND FREE ENERGY PREDICTED BY IDOCK:   -5.69 KCAL/MOL
REMARK 924 INTRA-LIGAND FREE ENERGY PREDICTED BY IDOCK:   -0.37 KCAL/MOL
REMARK 927      BINDING AFFINITY PREDICTED BY RF-SCORE:    0.00 PKD
ROOT
HETATM    1  O   UNL     1     -13.305  10.115  72.386  1.00  0.00    -0.598 OA 
HETATM    2  C   UNL     1     -12.271   9.197  72.056  1.00  0.00    -0.373 C  
HETATM    3  H   UNL     1     -12.990  10.980  72.621  1.00  0.00     0.000 HD 
ENDROOT
BRANCH   2   4
HETATM    4  C   UNL     1     -11.325   9.779  71.020  1.00  0.00    -0.460 A  
HETATM    5  C   UNL     1      -9.528  10.827  69.125  1.00  0.00    -0.151 A  
HETATM    6  C   UNL     1     -10.006   9.298  70.934  1.00  0.00    -0.367 A  
HETATM    7  C   UNL     1     -11.724  10.787  70.130  1.00  0.00    -0.425 A  
HETATM    8  C   UNL     1     -10.834  11.304  69.186  1.00  0.00    -0.269 A  
HETATM    9  C   UNL     1      -9.113   9.825  69.999  1.00  0.00    -0.258 A  
ENDBRANCH   2   4
BRANCH   2  10
HETATM   10  C   UNL     1     -12.782   7.796  71.675  1.00  0.00    -0.335 C  
HETATM   11  O   UNL     1     -13.992   7.555  71.631  1.00  0.00    -0.393 OA 
BRANCH  10  12
HETATM   12  C   UNL     1     -11.823   6.695  71.362  1.00  0.00    -0.388 A  
HETATM   13  C   UNL     1     -11.289   5.963  72.433  1.00  0.00    -0.358 A  
HETATM   14  C   UNL     1     -10.009   4.610  70.894  1.00  0.00    -0.273 A  
HETATM   15  C   UNL     1     -10.380   4.928  72.199  1.00  0.00    -0.263 A  
HETATM   16  C   UNL     1     -10.552   5.316  69.823  1.00  0.00    -0.283 A  
HETATM   17  C   UNL     1     -11.461   6.350  70.056  1.00  0.00    -0.496 A  
ENDBRANCH  10  12
ENDBRANCH   2  10
TORSDOF 3
ENDMDL
MODEL       83
REMARK 921   NORMALIZED FREE ENERGY PREDICTED BY IDOCK:   -4.87 KCAL/MOL
REMARK 922        TOTAL FREE ENERGY PREDICTED BY IDOCK:   -6.06 KCAL/MOL
REMARK 923 INTER-LIGAND FREE ENERGY PREDICTED BY IDOCK:   -5.63 KCAL/MOL
REMARK 924 INTRA-LIGAND FREE ENERGY PREDICTED BY IDOCK:   -0.43 KCAL/MOL
REMARK 927      BINDING AFFINITY PREDICTED BY RF-SCORE:    0.00 PKD
ROOT
HETATM    1  O   UNL     1     -11.221  12.930  69.784  1.00  0.00    -0.481 OA 
HETATM    2  C   UNL     1     -11.001  13.974  68.845  1.00  0.00    -0.259 C  
HETATM    3  H   UNL     1     -10.766  12.123  69.576  1.00  0.00     0.000 HD 
ENDROOT
BRANCH   2   4
HETATM    4  C   UNL     1      -9.518  14.184  68.592  1.00  0.00    -0.163 A  
HETATM    5  C   UNL     1      -6.773  14.626  68.155  1.00  0.00    -0.135 A  
HETATM    6  C   UNL     1      -8.843  15.232  69.244  1.00  0.00    -0.242 A  
HETATM    7  C   UNL     1      -8.785  13.359  67.726  1.00  0.00    -0.197 A  
HETATM    8  C   UNL     1      -7.422  13.575  67.513  1.00  0.00    -0.177 A  
HETATM    9  C   UNL     1      -7.483  15.455  69.019  1.00  0.00    -0.165 A  
ENDBRANCH   2   4
BRANCH   2  10
HETATM   10  C   UNL     1     -11.739  15.281  69.183  1.00  0.00    -0.335 C  
HETATM   11  O   UNL     1     -11.831  16.188  68.351  1.00  0.00    -0.260 OA 
BRANCH  10  12
HETATM   12  C   UNL     1     -12.348  15.485  70.532  1.00  0.00    -0.461 A  
HETATM   13  C   UNL     1     -11.536  16.006  71.549  1.00  0.00    -0.529 A  
HETATM   14  C   UNL     1     -13.384  15.901  73.102  1.00  0.00    -0.681 A  
HETATM   15  C   UNL     1     -12.052  16.208  72.832  1.00  0.00    -0.643 A  
HETATM   16  C   UNL     1     -14.203  15.405  72.092  1.00  0.00    -0.660 A  
HETATM   17  C   UNL     1     -13.690  15.204  70.809  1.00  0.00    -0.244 A  
ENDBRANCH  10  12
ENDBRANCH   2  10
TORSDOF 3
ENDMDL
MODEL       84
REMARK 921   NORMALIZED FREE ENERGY PREDICTED BY IDOCK:   -4.86 KCAL/MOL
REMARK 922        TOTAL FREE ENERGY PREDICTED BY IDOCK:   -6.05 KCAL/MOL
REMARK 923 INTER-LIGAND FREE ENERGY PREDICTED BY IDOCK:   -5.49 KCAL/MOL
REMARK 924 INTRA-LIGAND FREE ENERGY PREDICTED BY IDOCK:   -0.56 KCAL/MOL
REMARK 927      BINDING AFFINITY PREDICTED BY RF-SCORE:    0.00 PKD
ROOT
HETATM    1  O   UNL     1     -10.770  17.261  65.149  1.00  0.00    -0.687 OA 
HETATM    2  C   UNL     1     -10.470  16.840  66.473  1.00  0.00    -0.258 C  
HETATM    3  H   UNL     1     -10.662  18.194  65.009  1.00  0.00     0.000 HD 
ENDROOT
BRANCH   2   4
HETATM    4  C   UNL     1      -9.109  17.347  66.918  1.00  0.00    -0.258 A  
HETATM    5  C   UNL     1      -6.615  18.323  67.782  1.00  0.00    -0.204 A  
HETATM    6  C   UNL     1      -9.015  18.198  68.034  1.00  0.00    -0.289 A  
HETATM    7  C   UNL     1      -7.927  16.990  66.253  1.00  0.00    -0.343 A  
HETATM    8  C   UNL     1      -6.688  17.470  66.684  1.00  0.00    -0.256 A  
HETATM    9  C   UNL     1      -7.777  18.688  68.456  1.00  0.00    -0.342 A  
ENDBRANCH   2   4
BRANCH   2  10
HETATM   10  C   UNL     1     -10.645  15.328  66.699  1.00  0.00    -0.304 C  
HETATM   11  O   UNL     1     -10.318  14.516  65.828  1.00  0.00    -0.298 OA 
BRANCH  10  12
HETATM   12  C   UNL     1     -11.225  14.811  67.975  1.00  0.00    -0.311 A  
HETATM   13  C   UNL     1     -11.743  15.741  68.887  1.00  0.00    -0.404 A  
HETATM   14  C   UNL     1     -12.332  13.955  70.403  1.00  0.00    -0.433 A  
HETATM   15  C   UNL     1     -12.290  15.314  70.099  1.00  0.00    -0.392 A  
HETATM   16  C   UNL     1     -11.841  13.022  69.493  1.00  0.00    -0.385 A  
HETATM   17  C   UNL     1     -11.296  13.448  68.280  1.00  0.00    -0.330 A  
ENDBRANCH  10  12
ENDBRANCH   2  10
TORSDOF 3
ENDMDL
MODEL       85
REMARK 921   NORMALIZED FREE ENERGY PREDICTED BY IDOCK:   -4.85 KCAL/MOL
REMARK 922        TOTAL FREE ENERGY PREDICTED BY IDOCK:   -6.04 KCAL/MOL
REMARK 923 INTER-LIGAND FREE ENERGY PREDICTED BY IDOCK:   -5.50 KCAL/MOL
REMARK 924 INTRA-LIGAND FREE ENERGY PREDICTED BY IDOCK:   -0.54 KCAL/MOL
REMARK 927      BINDING AFFINITY PREDICTED BY RF-SCORE:    0.00 PKD
ROOT
HETATM    1  O   UNL     1      -8.451  14.240  68.872  1.00  0.00    -0.279 OA 
HETATM    2  C   UNL     1      -9.418  14.967  68.126  1.00  0.00    -0.196 C  
HETATM    3  H   UNL     1      -8.820  13.544  69.403  1.00  0.00     0.000 HD 
ENDROOT
BRANCH   2   4
HETATM    4  C   UNL     1     -10.317  14.035  67.331  1.00  0.00    -0.259 A  
HETATM    5  C   UNL     1     -12.017  12.356  65.845  1.00  0.00    -0.434 A  
HETATM    6  C   UNL     1     -11.379  14.568  66.578  1.00  0.00    -0.354 A  
HETATM    7  C   UNL     1     -10.120  12.647  67.313  1.00  0.00    -0.215 A  
HETATM    8  C   UNL     1     -10.961  11.813  66.572  1.00  0.00    -0.342 A  
HETATM    9  C   UNL     1     -12.227  13.732  65.848  1.00  0.00    -0.501 A  
ENDBRANCH   2   4
BRANCH   2  10
HETATM   10  C   UNL     1      -8.821  16.096  67.266  1.00  0.00    -0.186 C  
HETATM   11  O   UNL     1      -7.853  15.884  66.530  1.00  0.00    -0.241 OA 
BRANCH  10  12
HETATM   12  C   UNL     1      -9.393  17.474  67.314  1.00  0.00    -0.244 A  
HETATM   13  C   UNL     1      -9.943  18.001  66.136  1.00  0.00    -0.288 A  
HETATM   14  C   UNL     1     -10.488  20.054  67.285  1.00  0.00    -0.505 A  
HETATM   15  C   UNL     1     -10.483  19.288  66.121  1.00  0.00    -0.577 A  
HETATM   16  C   UNL     1      -9.965  19.531  68.465  1.00  0.00    -0.538 A  
HETATM   17  C   UNL     1      -9.426  18.244  68.482  1.00  0.00    -0.346 A  
ENDBRANCH  10  12
ENDBRANCH   2  10
TORSDOF 3
ENDMDL
MODEL       86
REMARK 921   NORMALIZED FREE ENERGY PREDICTED BY IDOCK:   -4.85 KCAL/MOL
REMARK 922        TOTAL FREE ENERGY PREDICTED BY IDOCK:   -6.04 KCAL/MOL
REMARK 923 INTER-LIGAND FREE ENERGY PREDICTED BY IDOCK:   -5.75 KCAL/MOL
REMARK 924 INTRA-LIGAND FREE ENERGY PREDICTED BY IDOCK:   -0.29 KCAL/MOL
REMARK 927      BINDING AFFINITY PREDICTED BY RF-SCORE:    0.00 PKD
ROOT
HETATM    1  O   UNL     1     -12.619   6.841  70.404  1.00  0.00    -0.545 OA 
HETATM    2  C   UNL     1     -12.368   7.570  71.598  1.00  0.00    -0.333 C  
HETATM    3  H   UNL     1     -13.384   7.138  69.927  1.00  0.00     0.000 HD 
ENDROOT
BRANCH   2   4
HETATM    4  C   UNL     1     -12.353   9.067  71.338  1.00  0.00    -0.380 A  
HETATM    5  C   UNL     1     -12.372  11.846  70.892  1.00  0.00    -0.400 A  
HETATM    6  C   UNL     1     -13.202   9.910  72.076  1.00  0.00    -0.555 A  
HETATM    7  C   UNL     1     -11.508   9.648  70.381  1.00  0.00    -0.325 A  
HETATM    8  C   UNL     1     -11.513  11.027  70.162  1.00  0.00    -0.383 A  
HETATM    9  C   UNL     1     -13.217  11.288  71.847  1.00  0.00    -0.491 A  
ENDBRANCH   2   4
BRANCH   2  10
HETATM   10  C   UNL     1     -11.128   7.088  72.372  1.00  0.00    -0.259 C  
HETATM   11  O   UNL     1     -10.427   7.885  73.002  1.00  0.00    -0.334 OA 
BRANCH  10  12
HETATM   12  C   UNL     1     -10.741   5.646  72.367  1.00  0.00    -0.286 A  
HETATM   13  C   UNL     1     -11.258   4.821  73.377  1.00  0.00    -0.425 A  
HETATM   14  C   UNL     1     -10.075   2.925  72.461  1.00  0.00    -0.234 A  
HETATM   15  C   UNL     1     -10.922   3.467  73.426  1.00  0.00    -0.306 A  
HETATM   16  C   UNL     1      -9.574   3.731  71.442  1.00  0.00    -0.236 A  
HETATM   17  C   UNL     1      -9.911   5.085  71.391  1.00  0.00    -0.259 A  
ENDBRANCH  10  12
ENDBRANCH   2  10
TORSDOF 3
ENDMDL
MODEL       87
REMARK 921   NORMALIZED FREE ENERGY PREDICTED BY IDOCK:   -4.84 KCAL/MOL
REMARK 922        TOTAL FREE ENERGY PREDICTED BY IDOCK:   -6.02 KCAL/MOL
REMARK 923 INTER-LIGAND FREE ENERGY PREDICTED BY IDOCK:   -5.48 KCAL/MOL
REMARK 924 INTRA-LIGAND FREE ENERGY PREDICTED BY IDOCK:   -0.55 KCAL/MOL
REMARK 927      BINDING AFFINITY PREDICTED BY RF-SCORE:    0.00 PKD
ROOT
HETATM    1  O   UNL     1     -10.388   7.478  74.021  1.00  0.00    -0.377 OA 
HETATM    2  C   UNL     1     -10.516   7.353  72.611  1.00  0.00    -0.255 C  
HETATM    3  H   UNL     1     -10.072   8.327  74.304  1.00  0.00     0.000 HD 
ENDROOT
BRANCH   2   4
HETATM    4  C   UNL     1     -11.319   8.503  72.026  1.00  0.00    -0.425 A  
HETATM    5  C   UNL     1     -12.857  10.610  70.971  1.00  0.00    -0.496 A  
HETATM    6  C   UNL     1     -12.649   8.702  72.439  1.00  0.00    -0.426 A  
HETATM    7  C   UNL     1     -10.776   9.387  71.084  1.00  0.00    -0.417 A  
HETATM    8  C   UNL     1     -11.537  10.437  70.563  1.00  0.00    -0.433 A  
HETATM    9  C   UNL     1     -13.413   9.743  71.907  1.00  0.00    -0.485 A  
ENDBRANCH   2   4
BRANCH   2  10
HETATM   10  C   UNL     1     -11.027   5.976  72.152  1.00  0.00    -0.267 C  
HETATM   11  O   UNL     1     -11.852   5.351  72.825  1.00  0.00    -0.268 OA 
BRANCH  10  12
HETATM   12  C   UNL     1     -10.526   5.360  70.887  1.00  0.00    -0.307 A  
HETATM   13  C   UNL     1      -9.777   4.178  70.982  1.00  0.00    -0.260 A  
HETATM   14  C   UNL     1      -9.528   4.121  68.580  1.00  0.00    -0.216 A  
HETATM   15  C   UNL     1      -9.276   3.564  69.832  1.00  0.00    -0.217 A  
HETATM   16  C   UNL     1     -10.290   5.282  68.474  1.00  0.00    -0.182 A  
HETATM   17  C   UNL     1     -10.793   5.896  69.623  1.00  0.00    -0.444 A  
ENDBRANCH  10  12
ENDBRANCH   2  10
TORSDOF 3
ENDMDL
MODEL       88
REMARK 921   NORMALIZED FREE ENERGY PREDICTED BY IDOCK:   -4.83 KCAL/MOL
REMARK 922        TOTAL FREE ENERGY PREDICTED BY IDOCK:   -6.02 KCAL/MOL
REMARK 923 INTER-LIGAND FREE ENERGY PREDICTED BY IDOCK:   -5.60 KCAL/MOL
REMARK 924 INTRA-LIGAND FREE ENERGY PREDICTED BY IDOCK:   -0.41 KCAL/MOL
REMARK 927      BINDING AFFINITY PREDICTED BY RF-SCORE:    0.00 PKD
ROOT
HETATM    1  O   UNL     1     -12.452  14.263  67.808  1.00  0.00    -0.567 OA 
HETATM    2  C   UNL     1     -11.625  14.765  66.767  1.00  0.00    -0.324 C  
HETATM    3  H   UNL     1     -13.300  13.956  67.510  1.00  0.00     0.000 HD 
ENDROOT
BRANCH   2   4
HETATM    4  C   UNL     1     -11.522  13.775  65.618  1.00  0.00    -0.318 A  
HETATM    5  C   UNL     1     -11.387  11.924  63.503  1.00  0.00    -0.516 A  
HETATM    6  C   UNL     1     -12.661  13.054  65.218  1.00  0.00    -0.516 A  
HETATM    7  C   UNL     1     -10.320  13.556  64.930  1.00  0.00    -0.395 A  
HETATM    8  C   UNL     1     -10.254  12.641  63.876  1.00  0.00    -0.340 A  
HETATM    9  C   UNL     1     -12.590  12.129  64.174  1.00  0.00    -0.466 A  
ENDBRANCH   2   4
BRANCH   2  10
HETATM   10  C   UNL     1     -10.251  15.262  67.249  1.00  0.00    -0.248 C  
HETATM   11  O   UNL     1      -9.514  14.532  67.919  1.00  0.00    -0.204 OA 
BRANCH  10  12
HETATM   12  C   UNL     1      -9.784  16.643  66.926  1.00  0.00    -0.261 A  
HETATM   13  C   UNL     1     -10.741  17.583  66.517  1.00  0.00    -0.085 A  
HETATM   14  C   UNL     1      -9.021  19.263  66.287  1.00  0.00    -0.347 A  
HETATM   15  C   UNL     1     -10.359  18.886  66.193  1.00  0.00    -0.517 A  
HETATM   16  C   UNL     1      -8.067  18.343  66.714  1.00  0.00    -0.266 A  
HETATM   17  C   UNL     1      -8.448  17.040  67.039  1.00  0.00    -0.234 A  
ENDBRANCH  10  12
ENDBRANCH   2  10
TORSDOF 3
ENDMDL
MODEL       89
REMARK 921   NORMALIZED FREE ENERGY PREDICTED BY IDOCK:   -4.83 KCAL/MOL
REMARK 922        TOTAL FREE ENERGY PREDICTED BY IDOCK:   -6.01 KCAL/MOL
REMARK 923 INTER-LIGAND FREE ENERGY PREDICTED BY IDOCK:   -5.53 KCAL/MOL
REMARK 924 INTRA-LIGAND FREE ENERGY PREDICTED BY IDOCK:   -0.49 KCAL/MOL
REMARK 927      BINDING AFFINITY PREDICTED BY RF-SCORE:    0.00 PKD
ROOT
HETATM    1  O   UNL     1      -9.105  11.051  69.436  1.00  0.00    -0.395 OA 
HETATM    2  C   UNL     1     -10.513  11.216  69.336  1.00  0.00    -0.095 C  
HETATM    3  H   UNL     1      -8.762  11.203  70.308  1.00  0.00     0.000 HD 
ENDROOT
BRANCH   2   4
HETATM    4  C   UNL     1     -11.239  10.411  70.400  1.00  0.00    -0.399 A  
HETATM    5  C   UNL     1     -12.539   8.883  72.374  1.00  0.00    -0.423 A  
HETATM    6  C   UNL     1     -10.578   9.348  71.041  1.00  0.00    -0.400 A  
HETATM    7  C   UNL     1     -12.560  10.696  70.777  1.00  0.00    -0.479 A  
HETATM    8  C   UNL     1     -13.204   9.941  71.760  1.00  0.00    -0.535 A  
HETATM    9  C   UNL     1     -11.227   8.585  72.014  1.00  0.00    -0.418 A  
ENDBRANCH   2   4
BRANCH   2  10
HETATM   10  C   UNL     1     -11.068  10.970  67.922  1.00  0.00    -0.288 C  
HETATM   11  O   UNL     1     -12.128  11.490  67.559  1.00  0.00    -0.614 OA 
BRANCH  10  12
HETATM   12  C   UNL     1     -10.342  10.086  66.961  1.00  0.00    -0.305 A  
HETATM   13  C   UNL     1      -9.785  10.675  65.817  1.00  0.00    -0.272 A  
HETATM   14  C   UNL     1      -8.965   8.524  65.086  1.00  0.00    -0.059 A  
HETATM   15  C   UNL     1      -9.104   9.895  64.880  1.00  0.00    -0.271 A  
HETATM   16  C   UNL     1      -9.495   7.934  66.230  1.00  0.00    -0.220 A  
HETATM   17  C   UNL     1     -10.176   8.713  67.168  1.00  0.00    -0.353 A  
ENDBRANCH  10  12
ENDBRANCH   2  10
TORSDOF 3
ENDMDL
MODEL       90
REMARK 921   NORMALIZED FREE ENERGY PREDICTED BY IDOCK:   -4.83 KCAL/MOL
REMARK 922        TOTAL FREE ENERGY PREDICTED BY IDOCK:   -6.01 KCAL/MOL
REMARK 923 INTER-LIGAND FREE ENERGY PREDICTED BY IDOCK:   -5.44 KCAL/MOL
REMARK 924 INTRA-LIGAND FREE ENERGY PREDICTED BY IDOCK:   -0.58 KCAL/MOL
REMARK 927      BINDING AFFINITY PREDICTED BY RF-SCORE:    0.00 PKD
ROOT
HETATM    1  O   UNL     1     -10.661   7.916  73.292  1.00  0.00    -0.341 OA 
HETATM    2  C   UNL     1     -10.723   7.912  71.872  1.00  0.00    -0.237 C  
HETATM    3  H   UNL     1     -10.222   8.676  73.655  1.00  0.00     0.000 HD 
ENDROOT
BRANCH   2   4
HETATM    4  C   UNL     1     -11.281   9.222  71.340  1.00  0.00    -0.433 A  
HETATM    5  C   UNL     1     -12.264  11.654  70.322  1.00  0.00    -0.401 A  
HETATM    6  C   UNL     1     -10.623   9.880  70.286  1.00  0.00    -0.359 A  
HETATM    7  C   UNL     1     -12.444   9.802  71.864  1.00  0.00    -0.451 A  
HETATM    8  C   UNL     1     -12.936  11.007  71.356  1.00  0.00    -0.517 A  
HETATM    9  C   UNL     1     -11.108  11.092  69.788  1.00  0.00    -0.303 A  
ENDBRANCH   2   4
BRANCH   2  10
HETATM   10  C   UNL     1     -11.435   6.680  71.284  1.00  0.00    -0.311 C  
HETATM   11  O   UNL     1     -12.450   6.223  71.816  1.00  0.00    -0.248 OA 
BRANCH  10  12
HETATM   12  C   UNL     1     -10.903   6.004  70.063  1.00  0.00    -0.429 A  
HETATM   13  C   UNL     1     -11.235   6.547  68.813  1.00  0.00    -0.319 A  
HETATM   14  C   UNL     1      -9.968   4.815  67.703  1.00  0.00    -0.178 A  
HETATM   15  C   UNL     1     -10.773   5.950  67.638  1.00  0.00    -0.352 A  
HETATM   16  C   UNL     1      -9.615   4.282  68.941  1.00  0.00    -0.227 A  
HETATM   17  C   UNL     1     -10.075   4.879  70.117  1.00  0.00    -0.332 A  
ENDBRANCH  10  12
ENDBRANCH   2  10
TORSDOF 3
ENDMDL
MODEL       91
REMARK 921   NORMALIZED FREE ENERGY PREDICTED BY IDOCK:   -4.81 KCAL/MOL
REMARK 922        TOTAL FREE ENERGY PREDICTED BY IDOCK:   -5.99 KCAL/MOL
REMARK 923 INTER-LIGAND FREE ENERGY PREDICTED BY IDOCK:   -5.77 KCAL/MOL
REMARK 924 INTRA-LIGAND FREE ENERGY PREDICTED BY IDOCK:   -0.22 KCAL/MOL
REMARK 927      BINDING AFFINITY PREDICTED BY RF-SCORE:    0.00 PKD
ROOT
HETATM    1  O   UNL     1      -9.096  12.548  68.764  1.00  0.00    -0.389 OA 
HETATM    2  C   UNL     1     -10.045  11.535  68.459  1.00  0.00    -0.207 C  
HETATM    3  H   UNL     1      -8.279  12.464  68.288  1.00  0.00     0.000 HD 
ENDROOT
BRANCH   2   4
HETATM    4  C   UNL     1     -10.250  11.404  66.959  1.00  0.00    -0.246 A  
HETATM    5  C   UNL     1     -10.597  11.112  64.182  1.00  0.00    -0.436 A  
HETATM    6  C   UNL     1      -9.815  10.243  66.296  1.00  0.00    -0.276 A  
HETATM    7  C   UNL     1     -10.870  12.409  66.203  1.00  0.00    -0.308 A  
HETATM    8  C   UNL     1     -11.048  12.262  64.825  1.00  0.00    -0.356 A  
HETATM    9  C   UNL     1      -9.980  10.103  64.916  1.00  0.00    -0.358 A  
ENDBRANCH   2   4
BRANCH   2  10
HETATM   10  C   UNL     1     -11.369  11.671  69.231  1.00  0.00    -0.290 C  
HETATM   11  O   UNL     1     -12.140  12.608  69.005  1.00  0.00    -0.261 OA 
BRANCH  10  12
HETATM   12  C   UNL     1     -11.745  10.676  70.280  1.00  0.00    -0.433 A  
HETATM   13  C   UNL     1     -10.906   9.567  70.467  1.00  0.00    -0.352 A  
HETATM   14  C   UNL     1     -12.355   8.741  72.214  1.00  0.00    -0.448 A  
HETATM   15  C   UNL     1     -11.214   8.601  71.427  1.00  0.00    -0.345 A  
HETATM   16  C   UNL     1     -13.182   9.850  72.051  1.00  0.00    -0.555 A  
HETATM   17  C   UNL     1     -12.875  10.818  71.092  1.00  0.00    -0.513 A  
ENDBRANCH  10  12
ENDBRANCH   2  10
TORSDOF 3
ENDMDL
MODEL       92
REMARK 921   NORMALIZED FREE ENERGY PREDICTED BY IDOCK:   -4.77 KCAL/MOL
REMARK 922        TOTAL FREE ENERGY PREDICTED BY IDOCK:   -5.95 KCAL/MOL
REMARK 923 INTER-LIGAND FREE ENERGY PREDICTED BY IDOCK:   -5.42 KCAL/MOL
REMARK 924 INTRA-LIGAND FREE ENERGY PREDICTED BY IDOCK:   -0.53 KCAL/MOL
REMARK 927      BINDING AFFINITY PREDICTED BY RF-SCORE:    0.00 PKD
ROOT
HETATM    1  O   UNL     1      -9.214   7.924  71.625  1.00  0.00    -0.132 OA 
HETATM    2  C   UNL     1     -10.256   7.957  70.659  1.00  0.00    -0.196 C  
HETATM    3  H   UNL     1      -8.803   8.766  71.775  1.00  0.00     0.000 HD 
ENDROOT
BRANCH   2   4
HETATM    4  C   UNL     1     -11.261   9.054  70.968  1.00  0.00    -0.361 A  
HETATM    5  C   UNL     1     -13.090  11.123  71.507  1.00  0.00    -0.489 A  
HETATM    6  C   UNL     1     -11.176  10.285  70.294  1.00  0.00    -0.395 A  
HETATM    7  C   UNL     1     -12.286   8.880  71.909  1.00  0.00    -0.445 A  
HETATM    8  C   UNL     1     -13.198   9.905  72.173  1.00  0.00    -0.511 A  
HETATM    9  C   UNL     1     -12.080  11.314  70.569  1.00  0.00    -0.481 A  
ENDBRANCH   2   4
BRANCH   2  10
HETATM   10  C   UNL     1     -10.922   6.591  70.415  1.00  0.00    -0.298 C  
HETATM   11  O   UNL     1     -11.619   6.398  69.415  1.00  0.00    -0.382 OA 
BRANCH  10  12
HETATM   12  C   UNL     1     -10.747   5.473  71.390  1.00  0.00    -0.290 A  
HETATM   13  C   UNL     1      -9.879   4.427  71.045  1.00  0.00    -0.260 A  
HETATM   14  C   UNL     1     -10.348   3.321  73.140  1.00  0.00    -0.242 A  
HETATM   15  C   UNL     1      -9.685   3.353  71.915  1.00  0.00    -0.235 A  
HETATM   16  C   UNL     1     -11.195   4.366  73.501  1.00  0.00    -0.375 A  
HETATM   17  C   UNL     1     -11.388   5.442  72.633  1.00  0.00    -0.327 A  
ENDBRANCH  10  12
ENDBRANCH   2  10
TORSDOF 3
ENDMDL
MODEL       93
REMARK 921   NORMALIZED FREE ENERGY PREDICTED BY IDOCK:   -4.75 KCAL/MOL
REMARK 922        TOTAL FREE ENERGY PREDICTED BY IDOCK:   -5.93 KCAL/MOL
REMARK 923 INTER-LIGAND FREE ENERGY PREDICTED BY IDOCK:   -5.31 KCAL/MOL
REMARK 924 INTRA-LIGAND FREE ENERGY PREDICTED BY IDOCK:   -0.62 KCAL/MOL
REMARK 927      BINDING AFFINITY PREDICTED BY RF-SCORE:    0.00 PKD
ROOT
HETATM    1  O   UNL     1     -11.663  16.471  71.552  1.00  0.00    -0.658 OA 
HETATM    2  C   UNL     1     -11.173  15.434  70.711  1.00  0.00    -0.346 C  
HETATM    3  H   UNL     1     -10.980  17.004  71.941  1.00  0.00     0.000 HD 
ENDROOT
BRANCH   2   4
HETATM    4  C   UNL     1     -10.192  15.973  69.685  1.00  0.00    -0.265 A  
HETATM    5  C   UNL     1      -8.416  17.010  67.764  1.00  0.00    -0.199 A  
HETATM    6  C   UNL     1     -10.534  17.105  68.924  1.00  0.00    -0.346 A  
HETATM    7  C   UNL     1      -8.940  15.380  69.469  1.00  0.00    -0.229 A  
HETATM    8  C   UNL     1      -8.055  15.897  68.519  1.00  0.00    -0.157 A  
HETATM    9  C   UNL     1      -9.655  17.614  67.965  1.00  0.00    -0.289 A  
ENDBRANCH   2   4
BRANCH   2  10
HETATM   10  C   UNL     1     -12.280  14.570  70.081  1.00  0.00    -0.342 C  
HETATM   11  O   UNL     1     -13.427  14.581  70.536  1.00  0.00    -0.151 OA 
BRANCH  10  12
HETATM   12  C   UNL     1     -11.985  13.690  68.910  1.00  0.00    -0.392 A  
HETATM   13  C   UNL     1     -12.062  14.253  67.628  1.00  0.00    -0.332 A  
HETATM   14  C   UNL     1     -11.460  12.132  66.641  1.00  0.00    -0.426 A  
HETATM   15  C   UNL     1     -11.805  13.474  66.497  1.00  0.00    -0.441 A  
HETATM   16  C   UNL     1     -11.360  11.571  67.911  1.00  0.00    -0.372 A  
HETATM   17  C   UNL     1     -11.614  12.349  69.042  1.00  0.00    -0.362 A  
ENDBRANCH  10  12
ENDBRANCH   2  10
TORSDOF 3
ENDMDL
MODEL       94
REMARK 921   NORMALIZED FREE ENERGY PREDICTED BY IDOCK:   -4.74 KCAL/MOL
REMARK 922        TOTAL FREE ENERGY PREDICTED BY IDOCK:   -5.91 KCAL/MOL
REMARK 923 INTER-LIGAND FREE ENERGY PREDICTED BY IDOCK:   -5.48 KCAL/MOL
REMARK 924 INTRA-LIGAND FREE ENERGY PREDICTED BY IDOCK:   -0.43 KCAL/MOL
REMARK 927      BINDING AFFINITY PREDICTED BY RF-SCORE:    0.00 PKD
ROOT
HETATM    1  O   UNL     1     -11.077  16.787  70.169  1.00  0.00    -0.451 OA 
HETATM    2  C   UNL     1     -10.484  15.551  69.794  1.00  0.00    -0.301 C  
HETATM    3  H   UNL     1     -10.457  17.424  70.502  1.00  0.00     0.000 HD 
ENDROOT
BRANCH   2   4
HETATM    4  C   UNL     1      -9.303  15.765  68.862  1.00  0.00    -0.228 A  
HETATM    5  C   UNL     1      -7.098  16.106  67.148  1.00  0.00    -0.253 A  
HETATM    6  C   UNL     1      -8.456  14.686  68.555  1.00  0.00    -0.161 A  
HETATM    7  C   UNL     1      -9.028  17.012  68.285  1.00  0.00    -0.242 A  
HETATM    8  C   UNL     1      -7.936  17.181  67.429  1.00  0.00    -0.197 A  
HETATM    9  C   UNL     1      -7.356  14.859  67.710  1.00  0.00    -0.183 A  
ENDBRANCH   2   4
BRANCH   2  10
HETATM   10  C   UNL     1     -11.489  14.517  69.255  1.00  0.00    -0.288 C  
HETATM   11  O   UNL     1     -11.854  14.547  68.076  1.00  0.00    -0.330 OA 
BRANCH  10  12
HETATM   12  C   UNL     1     -12.053  13.463  70.150  1.00  0.00    -0.415 A  
HETATM   13  C   UNL     1     -11.803  12.122  69.826  1.00  0.00    -0.397 A  
HETATM   14  C   UNL     1     -13.067  11.401  71.754  1.00  0.00    -0.523 A  
HETATM   15  C   UNL     1     -12.313  11.095  70.623  1.00  0.00    -0.482 A  
HETATM   16  C   UNL     1     -13.301  12.731  72.096  1.00  0.00    -0.593 A  
HETATM   17  C   UNL     1     -12.790  13.759  71.301  1.00  0.00    -0.434 A  
ENDBRANCH  10  12
ENDBRANCH   2  10
TORSDOF 3
ENDMDL
MODEL       95
REMARK 921   NORMALIZED FREE ENERGY PREDICTED BY IDOCK:   -4.73 KCAL/MOL
REMARK 922        TOTAL FREE ENERGY PREDICTED BY IDOCK:   -5.90 KCAL/MOL
REMARK 923 INTER-LIGAND FREE ENERGY PREDICTED BY IDOCK:   -5.42 KCAL/MOL
REMARK 924 INTRA-LIGAND FREE ENERGY PREDICTED BY IDOCK:   -0.48 KCAL/MOL
REMARK 927      BINDING AFFINITY PREDICTED BY RF-SCORE:    0.00 PKD
ROOT
HETATM    1  O   UNL     1      -9.656   9.919  70.445  1.00  0.00    -0.354 OA 
HETATM    2  C   UNL     1     -11.023  10.259  70.252  1.00  0.00    -0.309 C  
HETATM    3  H   UNL     1      -9.445   9.670  71.336  1.00  0.00     0.000 HD 
ENDROOT
BRANCH   2   4
HETATM    4  C   UNL     1     -11.942   9.177  70.793  1.00  0.00    -0.243 A  
HETATM    5  C   UNL     1     -13.683   7.215  71.812  1.00  0.00    -0.361 A  
HETATM    6  C   UNL     1     -13.223   9.522  71.258  1.00  0.00    -0.400 A  
HETATM    7  C   UNL     1     -11.557   7.829  70.841  1.00  0.00    -0.289 A  
HETATM    8  C   UNL     1     -12.423   6.854  71.342  1.00  0.00    -0.413 A  
HETATM    9  C   UNL     1     -14.083   8.548  71.772  1.00  0.00    -0.515 A  
ENDBRANCH   2   4
BRANCH   2  10
HETATM   10  C   UNL     1     -11.365  10.663  68.807  1.00  0.00    -0.277 C  
HETATM   11  O   UNL     1     -12.274  11.465  68.573  1.00  0.00    -0.557 OA 
BRANCH  10  12
HETATM   12  C   UNL     1     -10.612  10.083  67.655  1.00  0.00    -0.323 A  
HETATM   13  C   UNL     1     -10.003  10.968  66.754  1.00  0.00    -0.240 A  
HETATM   14  C   UNL     1      -9.180   9.106  65.452  1.00  0.00    -0.266 A  
HETATM   15  C   UNL     1      -9.294  10.480  65.654  1.00  0.00    -0.242 A  
HETATM   16  C   UNL     1      -9.762   8.220  66.355  1.00  0.00    -0.300 A  
HETATM   17  C   UNL     1     -10.470   8.706  67.456  1.00  0.00    -0.335 A  
ENDBRANCH  10  12
ENDBRANCH   2  10
TORSDOF 3
ENDMDL
MODEL       96
REMARK 921   NORMALIZED FREE ENERGY PREDICTED BY IDOCK:   -4.72 KCAL/MOL
REMARK 922        TOTAL FREE ENERGY PREDICTED BY IDOCK:   -5.89 KCAL/MOL
REMARK 923 INTER-LIGAND FREE ENERGY PREDICTED BY IDOCK:   -5.09 KCAL/MOL
REMARK 924 INTRA-LIGAND FREE ENERGY PREDICTED BY IDOCK:   -0.80 KCAL/MOL
REMARK 927      BINDING AFFINITY PREDICTED BY RF-SCORE:    0.00 PKD
ROOT
HETATM    1  O   UNL     1      -7.670   6.695  71.091  1.00  0.00    -0.094 OA 
HETATM    2  C   UNL     1      -9.045   7.044  71.010  1.00  0.00    -0.151 C  
HETATM    3  H   UNL     1      -7.441   5.918  70.595  1.00  0.00     0.000 HD 
ENDROOT
BRANCH   2   4
HETATM    4  C   UNL     1      -9.514   7.109  69.566  1.00  0.00    -0.151 A  
HETATM    5  C   UNL     1     -10.417   7.180  66.902  1.00  0.00    -0.364 A  
HETATM    6  C   UNL     1     -10.534   6.246  69.127  1.00  0.00    -0.291 A  
HETATM    7  C   UNL     1      -8.966   8.013  68.645  1.00  0.00    -0.134 A  
HETATM    8  C   UNL     1      -9.416   8.052  67.323  1.00  0.00    -0.196 A  
HETATM    9  C   UNL     1     -10.975   6.276  67.802  1.00  0.00    -0.427 A  
ENDBRANCH   2   4
BRANCH   2  10
HETATM   10  C   UNL     1      -9.416   8.304  71.813  1.00  0.00    -0.209 C  
HETATM   11  O   UNL     1      -8.604   8.822  72.585  1.00  0.00    -0.411 OA 
BRANCH  10  12
HETATM   12  C   UNL     1     -10.771   8.919  71.683  1.00  0.00    -0.418 A  
HETATM   13  C   UNL     1     -11.833   8.324  72.379  1.00  0.00    -0.461 A  
HETATM   14  C   UNL     1     -13.358   9.983  71.508  1.00  0.00    -0.451 A  
HETATM   15  C   UNL     1     -13.123   8.852  72.287  1.00  0.00    -0.491 A  
HETATM   16  C   UNL     1     -12.305  10.593  70.831  1.00  0.00    -0.502 A  
HETATM   17  C   UNL     1     -11.014  10.068  70.924  1.00  0.00    -0.337 A  
ENDBRANCH  10  12
ENDBRANCH   2  10
TORSDOF 3
ENDMDL
MODEL       97
REMARK 921   NORMALIZED FREE ENERGY PREDICTED BY IDOCK:   -4.69 KCAL/MOL
REMARK 922        TOTAL FREE ENERGY PREDICTED BY IDOCK:   -5.85 KCAL/MOL
REMARK 923 INTER-LIGAND FREE ENERGY PREDICTED BY IDOCK:   -5.23 KCAL/MOL
REMARK 924 INTRA-LIGAND FREE ENERGY PREDICTED BY IDOCK:   -0.62 KCAL/MOL
REMARK 927      BINDING AFFINITY PREDICTED BY RF-SCORE:    0.00 PKD
ROOT
HETATM    1  O   UNL     1     -10.257  20.037  67.925  1.00  0.00    -0.414 OA 
HETATM    2  C   UNL     1      -9.750  19.270  66.842  1.00  0.00    -0.331 C  
HETATM    3  H   UNL     1     -11.197  19.962  68.042  1.00  0.00     0.000 HD 
ENDROOT
BRANCH   2   4
HETATM    4  C   UNL     1     -10.219  17.827  66.920  1.00  0.00    -0.346 A  
HETATM    5  C   UNL     1     -11.093  15.160  67.124  1.00  0.00    -0.335 A  
HETATM    6  C   UNL     1     -10.710  17.320  68.136  1.00  0.00    -0.363 A  
HETATM    7  C   UNL     1     -10.185  16.972  65.809  1.00  0.00    -0.262 A  
HETATM    8  C   UNL     1     -10.624  15.649  65.908  1.00  0.00    -0.354 A  
HETATM    9  C   UNL     1     -11.136  15.994  68.238  1.00  0.00    -0.351 A  
ENDBRANCH   2   4
BRANCH   2  10
HETATM   10  C   UNL     1      -8.227  19.391  66.654  1.00  0.00    -0.306 C  
HETATM   11  O   UNL     1      -7.737  19.510  65.527  1.00  0.00    -0.419 OA 
BRANCH  10  12
HETATM   12  C   UNL     1      -7.309  19.356  67.831  1.00  0.00    -0.295 A  
HETATM   13  C   UNL     1      -7.096  18.123  68.464  1.00  0.00    -0.262 A  
HETATM   14  C   UNL     1      -5.612  19.174  70.054  1.00  0.00    -0.256 A  
HETATM   15  C   UNL     1      -6.254  18.034  69.575  1.00  0.00    -0.237 A  
HETATM   16  C   UNL     1      -5.800  20.398  69.419  1.00  0.00    -0.385 A  
HETATM   17  C   UNL     1      -6.639  20.489  68.307  1.00  0.00    -0.315 A  
ENDBRANCH  10  12
ENDBRANCH   2  10
TORSDOF 3
ENDMDL
MODEL       98
REMARK 921   NORMALIZED FREE ENERGY PREDICTED BY IDOCK:   -4.69 KCAL/MOL
REMARK 922        TOTAL FREE ENERGY PREDICTED BY IDOCK:   -5.85 KCAL/MOL
REMARK 923 INTER-LIGAND FREE ENERGY PREDICTED BY IDOCK:   -5.26 KCAL/MOL
REMARK 924 INTRA-LIGAND FREE ENERGY PREDICTED BY IDOCK:   -0.59 KCAL/MOL
REMARK 927      BINDING AFFINITY PREDICTED BY RF-SCORE:    0.00 PKD
ROOT
HETATM    1  O   UNL     1     -10.685  13.064  69.083  1.00  0.00    -0.413 OA 
HETATM    2  C   UNL     1     -11.470  13.869  68.214  1.00  0.00    -0.311 C  
HETATM    3  H   UNL     1     -10.884  12.137  69.032  1.00  0.00     0.000 HD 
ENDROOT
BRANCH   2   4
HETATM    4  C   UNL     1     -11.436  13.339  66.790  1.00  0.00    -0.387 A  
HETATM    5  C   UNL     1     -11.422  12.388  64.142  1.00  0.00    -0.448 A  
HETATM    6  C   UNL     1     -12.327  13.857  65.834  1.00  0.00    -0.517 A  
HETATM    7  C   UNL     1     -10.534  12.343  66.388  1.00  0.00    -0.267 A  
HETATM    8  C   UNL     1     -10.523  11.874  65.072  1.00  0.00    -0.333 A  
HETATM    9  C   UNL     1     -12.325  13.378  64.522  1.00  0.00    -0.415 A  
ENDBRANCH   2   4
BRANCH   2  10
HETATM   10  C   UNL     1     -11.148  15.371  68.297  1.00  0.00    -0.309 C  
HETATM   11  O   UNL     1     -11.887  16.143  68.914  1.00  0.00    -0.338 OA 
BRANCH  10  12
HETATM   12  C   UNL     1      -9.938  15.930  67.622  1.00  0.00    -0.237 A  
HETATM   13  C   UNL     1      -8.718  15.260  67.798  1.00  0.00    -0.168 A  
HETATM   14  C   UNL     1      -7.602  16.890  66.408  1.00  0.00    -0.339 A  
HETATM   15  C   UNL     1      -7.554  15.743  67.197  1.00  0.00    -0.259 A  
HETATM   16  C   UNL     1      -8.813  17.549  66.209  1.00  0.00    -0.216 A  
HETATM   17  C   UNL     1      -9.978  17.066  66.808  1.00  0.00    -0.297 A  
ENDBRANCH  10  12
ENDBRANCH   2  10
TORSDOF 3
ENDMDL
MODEL       99
REMARK 921   NORMALIZED FREE ENERGY PREDICTED BY IDOCK:   -4.66 KCAL/MOL
REMARK 922        TOTAL FREE ENERGY PREDICTED BY IDOCK:   -5.82 KCAL/MOL
REMARK 923 INTER-LIGAND FREE ENERGY PREDICTED BY IDOCK:   -5.30 KCAL/MOL
REMARK 924 INTRA-LIGAND FREE ENERGY PREDICTED BY IDOCK:   -0.52 KCAL/MOL
REMARK 927      BINDING AFFINITY PREDICTED BY RF-SCORE:    0.00 PKD
ROOT
HETATM    1  O   UNL     1      -9.165  10.769  68.656  1.00  0.00    -0.168 OA 
HETATM    2  C   UNL     1     -10.279  10.198  69.329  1.00  0.00    -0.223 C  
HETATM    3  H   UNL     1      -8.380  10.236  68.693  1.00  0.00     0.000 HD 
ENDROOT
BRANCH   2   4
HETATM    4  C   UNL     1     -10.520   8.766  68.881  1.00  0.00    -0.217 A  
HETATM    5  C   UNL     1     -10.961   6.132  67.996  1.00  0.00    -0.399 A  
HETATM    6  C   UNL     1     -10.358   8.425  67.527  1.00  0.00    -0.333 A  
HETATM    7  C   UNL     1     -10.897   7.759  69.781  1.00  0.00    -0.211 A  
HETATM    8  C   UNL     1     -11.111   6.450  69.343  1.00  0.00    -0.450 A  
HETATM    9  C   UNL     1     -10.586   7.119  67.087  1.00  0.00    -0.417 A  
ENDBRANCH   2   4
BRANCH   2  10
HETATM   10  C   UNL     1     -11.551  11.063  69.269  1.00  0.00    -0.314 C  
HETATM   11  O   UNL     1     -12.448  10.926  70.107  1.00  0.00    -0.314 OA 
BRANCH  10  12
HETATM   12  C   UNL     1     -11.732  12.078  68.189  1.00  0.00    -0.398 A  
HETATM   13  C   UNL     1     -11.795  13.429  68.559  1.00  0.00    -0.401 A  
HETATM   14  C   UNL     1     -12.078  14.068  66.247  1.00  0.00    -0.482 A  
HETATM   15  C   UNL     1     -11.973  14.420  67.591  1.00  0.00    -0.378 A  
HETATM   16  C   UNL     1     -11.994  12.731  65.868  1.00  0.00    -0.506 A  
HETATM   17  C   UNL     1     -11.815  11.739  66.834  1.00  0.00    -0.090 A  
ENDBRANCH  10  12
ENDBRANCH   2  10
TORSDOF 3
ENDMDL
MODEL      100
REMARK 921   NORMALIZED FREE ENERGY PREDICTED BY IDOCK:   -4.65 KCAL/MOL
REMARK 922        TOTAL FREE ENERGY PREDICTED BY IDOCK:   -5.81 KCAL/MOL
REMARK 923 INTER-LIGAND FREE ENERGY PREDICTED BY IDOCK:   -5.30 KCAL/MOL
REMARK 924 INTRA-LIGAND FREE ENERGY PREDICTED BY IDOCK:   -0.51 KCAL/MOL
REMARK 927      BINDING AFFINITY PREDICTED BY RF-SCORE:    0.00 PKD
ROOT
HETATM    1  O   UNL     1      -8.723  14.285  69.037  1.00  0.00    -0.349 OA 
HETATM    2  C   UNL     1      -9.437  14.683  67.874  1.00  0.00    -0.210 C  
HETATM    3  H   UNL     1      -7.883  14.717  69.139  1.00  0.00     0.000 HD 
ENDROOT
BRANCH   2   4
HETATM    4  C   UNL     1      -9.540  16.196  67.781  1.00  0.00    -0.223 A  
HETATM    5  C   UNL     1      -9.760  18.999  67.660  1.00  0.00    -0.373 A  
HETATM    6  C   UNL     1     -10.025  16.929  68.878  1.00  0.00    -0.279 A  
HETATM    7  C   UNL     1      -9.158  16.898  66.629  1.00  0.00    -0.280 A  
HETATM    8  C   UNL     1      -9.262  18.290  66.570  1.00  0.00    -0.298 A  
HETATM    9  C   UNL     1     -10.142  18.319  68.814  1.00  0.00    -0.393 A  
ENDBRANCH   2   4
BRANCH   2  10
HETATM   10  C   UNL     1     -10.797  13.983  67.710  1.00  0.00    -0.247 C  
HETATM   11  O   UNL     1     -11.484  14.165  66.700  1.00  0.00    -0.337 OA 
BRANCH  10  12
HETATM   12  C   UNL     1     -11.321  13.075  68.774  1.00  0.00    -0.332 A  
HETATM   13  C   UNL     1     -11.959  13.657  69.880  1.00  0.00    -0.415 A  
HETATM   14  C   UNL     1     -12.335  11.471  70.836  1.00  0.00    -0.460 A  
HETATM   15  C   UNL     1     -12.459  12.856  70.909  1.00  0.00    -0.383 A  
HETATM   16  C   UNL     1     -11.723  10.883  69.732  1.00  0.00    -0.413 A  
HETATM   17  C   UNL     1     -11.223  11.682  68.701  1.00  0.00    -0.308 A  
ENDBRANCH  10  12
ENDBRANCH   2  10
TORSDOF 3
ENDMDL
MODEL      101
REMARK 921   NORMALIZED FREE ENERGY PREDICTED BY IDOCK:   -4.64 KCAL/MOL
REMARK 922        TOTAL FREE ENERGY PREDICTED BY IDOCK:   -5.79 KCAL/MOL
REMARK 923 INTER-LIGAND FREE ENERGY PREDICTED BY IDOCK:   -5.54 KCAL/MOL
REMARK 924 INTRA-LIGAND FREE ENERGY PREDICTED BY IDOCK:   -0.25 KCAL/MOL
REMARK 927      BINDING AFFINITY PREDICTED BY RF-SCORE:    0.00 PKD
ROOT
HETATM    1  O   UNL     1      -9.254  13.416  68.733  1.00  0.00    -0.383 OA 
HETATM    2  C   UNL     1     -10.015  13.188  67.554  1.00  0.00    -0.223 C  
HETATM    3  H   UNL     1      -8.448  13.895  68.583  1.00  0.00     0.000 HD 
ENDROOT
BRANCH   2   4
HETATM    4  C   UNL     1     -10.233  14.478  66.780  1.00  0.00    -0.266 A  
HETATM    5  C   UNL     1     -10.646  16.834  65.298  1.00  0.00    -0.185 A  
HETATM    6  C   UNL     1     -10.658  14.422  65.441  1.00  0.00    -0.380 A  
HETATM    7  C   UNL     1     -10.029  15.738  67.361  1.00  0.00    -0.237 A  
HETATM    8  C   UNL     1     -10.239  16.908  66.627  1.00  0.00    -0.312 A  
HETATM    9  C   UNL     1     -10.854  15.592  64.704  1.00  0.00    -0.277 A  
ENDBRANCH   2   4
BRANCH   2  10
HETATM   10  C   UNL     1     -11.321  12.411  67.796  1.00  0.00    -0.299 C  
HETATM   11  O   UNL     1     -11.943  11.911  66.855  1.00  0.00    -0.614 OA 
BRANCH  10  12
HETATM   12  C   UNL     1     -11.870  12.256  69.177  1.00  0.00    -0.355 A  
HETATM   13  C   UNL     1     -12.338  13.405  69.832  1.00  0.00    -0.259 A  
HETATM   14  C   UNL     1     -12.913  12.086  71.772  1.00  0.00    -0.445 A  
HETATM   15  C   UNL     1     -12.853  13.319  71.127  1.00  0.00    -0.363 A  
HETATM   16  C   UNL     1     -12.472  10.937  71.121  1.00  0.00    -0.511 A  
HETATM   17  C   UNL     1     -11.959  11.020  69.825  1.00  0.00    -0.428 A  
ENDBRANCH  10  12
ENDBRANCH   2  10
TORSDOF 3
ENDMDL
MODEL      102
REMARK 921   NORMALIZED FREE ENERGY PREDICTED BY IDOCK:   -4.63 KCAL/MOL
REMARK 922        TOTAL FREE ENERGY PREDICTED BY IDOCK:   -5.79 KCAL/MOL
REMARK 923 INTER-LIGAND FREE ENERGY PREDICTED BY IDOCK:   -5.58 KCAL/MOL
REMARK 924 INTRA-LIGAND FREE ENERGY PREDICTED BY IDOCK:   -0.20 KCAL/MOL
REMARK 927      BINDING AFFINITY PREDICTED BY RF-SCORE:    0.00 PKD
ROOT
HETATM    1  O   UNL     1     -13.907   8.049  71.051  1.00  0.00    -0.579 OA 
HETATM    2  C   UNL     1     -12.983   8.754  71.869  1.00  0.00    -0.376 C  
HETATM    3  H   UNL     1     -14.716   8.520  70.891  1.00  0.00     0.000 HD 
ENDROOT
BRANCH   2   4
HETATM    4  C   UNL     1     -12.749  10.163  71.350  1.00  0.00    -0.530 A  
HETATM    5  C   UNL     1     -12.356  12.792  70.427  1.00  0.00    -0.324 A  
HETATM    6  C   UNL     1     -13.322  11.256  72.023  1.00  0.00    -0.386 A  
HETATM    7  C   UNL     1     -11.969  10.417  70.213  1.00  0.00    -0.387 A  
HETATM    8  C   UNL     1     -11.769  11.722  69.757  1.00  0.00    -0.408 A  
HETATM    9  C   UNL     1     -13.133  12.560  71.559  1.00  0.00    -0.373 A  
ENDBRANCH   2   4
BRANCH   2  10
HETATM   10  C   UNL     1     -11.672   7.990  72.128  1.00  0.00    -0.344 C  
HETATM   11  O   UNL     1     -11.231   7.863  73.274  1.00  0.00    -0.308 OA 
BRANCH  10  12
HETATM   12  C   UNL     1     -10.900   7.396  70.996  1.00  0.00    -0.254 A  
HETATM   13  C   UNL     1      -9.552   7.755  70.858  1.00  0.00    -0.173 A  
HETATM   14  C   UNL     1      -9.357   6.349  68.904  1.00  0.00    -0.130 A  
HETATM   15  C   UNL     1      -8.785   7.237  69.813  1.00  0.00    -0.142 A  
HETATM   16  C   UNL     1     -10.689   5.969  69.046  1.00  0.00    -0.393 A  
HETATM   17  C   UNL     1     -11.456   6.485  70.092  1.00  0.00    -0.477 A  
ENDBRANCH  10  12
ENDBRANCH   2  10
TORSDOF 3
ENDMDL
MODEL      103
REMARK 921   NORMALIZED FREE ENERGY PREDICTED BY IDOCK:   -4.63 KCAL/MOL
REMARK 922        TOTAL FREE ENERGY PREDICTED BY IDOCK:   -5.78 KCAL/MOL
REMARK 923 INTER-LIGAND FREE ENERGY PREDICTED BY IDOCK:   -5.26 KCAL/MOL
REMARK 924 INTRA-LIGAND FREE ENERGY PREDICTED BY IDOCK:   -0.53 KCAL/MOL
REMARK 927      BINDING AFFINITY PREDICTED BY RF-SCORE:    0.00 PKD
ROOT
HETATM    1  O   UNL     1     -13.096  13.278  65.038  1.00  0.00    -0.737 OA 
HETATM    2  C   UNL     1     -11.938  12.632  65.548  1.00  0.00    -0.456 C  
HETATM    3  H   UNL     1     -13.654  13.651  65.709  1.00  0.00     0.000 HD 
ENDROOT
BRANCH   2   4
HETATM    4  C   UNL     1     -11.180  13.535  66.507  1.00  0.00    -0.322 A  
HETATM    5  C   UNL     1      -9.754  15.237  68.235  1.00  0.00    -0.210 A  
HETATM    6  C   UNL     1     -10.516  14.672  66.013  1.00  0.00    -0.313 A  
HETATM    7  C   UNL     1     -11.122  13.277  67.884  1.00  0.00    -0.287 A  
HETATM    8  C   UNL     1     -10.419  14.124  68.743  1.00  0.00    -0.249 A  
HETATM    9  C   UNL     1      -9.801  15.511  66.871  1.00  0.00    -0.245 A  
ENDBRANCH   2   4
BRANCH   2  10
HETATM   10  C   UNL     1     -11.033  12.027  64.460  1.00  0.00    -0.318 C  
HETATM   11  O   UNL     1     -11.001  12.508  63.324  1.00  0.00    -0.425 OA 
BRANCH  10  12
HETATM   12  C   UNL     1     -10.182  10.834  64.753  1.00  0.00    -0.403 A  
HETATM   13  C   UNL     1      -9.430  10.288  63.703  1.00  0.00    -0.348 A  
HETATM   14  C   UNL     1      -8.557   8.593  65.185  1.00  0.00    -0.200 A  
HETATM   15  C   UNL     1      -8.625   9.168  63.918  1.00  0.00    -0.188 A  
HETATM   16  C   UNL     1      -9.282   9.142  66.239  1.00  0.00    -0.246 A  
HETATM   17  C   UNL     1     -10.087  10.264  66.026  1.00  0.00    -0.311 A  
ENDBRANCH  10  12
ENDBRANCH   2  10
TORSDOF 3
ENDMDL
MODEL      104
REMARK 921   NORMALIZED FREE ENERGY PREDICTED BY IDOCK:   -4.63 KCAL/MOL
REMARK 922        TOTAL FREE ENERGY PREDICTED BY IDOCK:   -5.78 KCAL/MOL
REMARK 923 INTER-LIGAND FREE ENERGY PREDICTED BY IDOCK:   -5.23 KCAL/MOL
REMARK 924 INTRA-LIGAND FREE ENERGY PREDICTED BY IDOCK:   -0.55 KCAL/MOL
REMARK 927      BINDING AFFINITY PREDICTED BY RF-SCORE:    0.00 PKD
ROOT
HETATM    1  O   UNL     1     -10.125  16.499  65.418  1.00  0.00    -0.570 OA 
HETATM    2  C   UNL     1     -10.346  15.965  66.716  1.00  0.00    -0.298 C  
HETATM    3  H   UNL     1      -9.555  17.258  65.407  1.00  0.00     0.000 HD 
ENDROOT
BRANCH   2   4
HETATM    4  C   UNL     1      -9.035  15.725  67.445  1.00  0.00    -0.204 A  
HETATM    5  C   UNL     1      -6.576  15.292  68.743  1.00  0.00    -0.102 A  
HETATM    6  C   UNL     1      -7.818  15.989  66.791  1.00  0.00    -0.288 A  
HETATM    7  C   UNL     1      -8.992  15.251  68.764  1.00  0.00    -0.200 A  
HETATM    8  C   UNL     1      -7.771  15.041  69.411  1.00  0.00    -0.190 A  
HETATM    9  C   UNL     1      -6.598  15.765  67.434  1.00  0.00    -0.215 A  
ENDBRANCH   2   4
BRANCH   2  10
HETATM   10  C   UNL     1     -11.270  14.734  66.734  1.00  0.00    -0.344 C  
HETATM   11  O   UNL     1     -12.045  14.539  67.675  1.00  0.00    -0.343 OA 
BRANCH  10  12
HETATM   12  C   UNL     1     -11.239  13.743  65.617  1.00  0.00    -0.306 A  
HETATM   13  C   UNL     1     -10.186  12.817  65.587  1.00  0.00    -0.292 A  
HETATM   14  C   UNL     1     -11.076  11.841  63.565  1.00  0.00    -0.503 A  
HETATM   15  C   UNL     1     -10.103  11.873  64.561  1.00  0.00    -0.302 A  
HETATM   16  C   UNL     1     -12.138  12.741  63.599  1.00  0.00    -0.624 A  
HETATM   17  C   UNL     1     -12.223  13.684  64.625  1.00  0.00    -0.448 A  
ENDBRANCH  10  12
ENDBRANCH   2  10
TORSDOF 3
ENDMDL
MODEL      105
REMARK 921   NORMALIZED FREE ENERGY PREDICTED BY IDOCK:   -4.58 KCAL/MOL
REMARK 922        TOTAL FREE ENERGY PREDICTED BY IDOCK:   -5.73 KCAL/MOL
REMARK 923 INTER-LIGAND FREE ENERGY PREDICTED BY IDOCK:   -5.51 KCAL/MOL
REMARK 924 INTRA-LIGAND FREE ENERGY PREDICTED BY IDOCK:   -0.22 KCAL/MOL
REMARK 927      BINDING AFFINITY PREDICTED BY RF-SCORE:    0.00 PKD
ROOT
HETATM    1  O   UNL     1      -8.542  16.592  68.848  1.00  0.00    -0.247 OA 
HETATM    2  C   UNL     1      -9.820  17.057  68.432  1.00  0.00    -0.283 C  
HETATM    3  H   UNL     1      -8.539  15.689  69.142  1.00  0.00     0.000 HD 
ENDROOT
BRANCH   2   4
HETATM    4  C   UNL     1     -10.450  16.110  67.425  1.00  0.00    -0.310 A  
HETATM    5  C   UNL     1     -11.594  14.388  65.515  1.00  0.00    -0.347 A  
HETATM    6  C   UNL     1     -10.140  16.240  66.059  1.00  0.00    -0.377 A  
HETATM    7  C   UNL     1     -11.336  15.094  67.811  1.00  0.00    -0.335 A  
HETATM    8  C   UNL     1     -11.901  14.236  66.865  1.00  0.00    -0.458 A  
HETATM    9  C   UNL     1     -10.715  15.390  65.112  1.00  0.00    -0.460 A  
ENDBRANCH   2   4
BRANCH   2  10
HETATM   10  C   UNL     1      -9.825  18.520  67.956  1.00  0.00    -0.341 C  
HETATM   11  O   UNL     1     -10.886  19.104  67.717  1.00  0.00    -0.407 OA 
BRANCH  10  12
HETATM   12  C   UNL     1      -8.543  19.263  67.762  1.00  0.00    -0.341 A  
HETATM   13  C   UNL     1      -7.762  19.536  68.894  1.00  0.00    -0.369 A  
HETATM   14  C   UNL     1      -6.123  20.655  67.518  1.00  0.00    -0.296 A  
HETATM   15  C   UNL     1      -6.559  20.235  68.772  1.00  0.00    -0.312 A  
HETATM   16  C   UNL     1      -6.881  20.368  66.385  1.00  0.00    -0.290 A  
HETATM   17  C   UNL     1      -8.083  19.668  66.505  1.00  0.00    -0.338 A  
ENDBRANCH  10  12
ENDBRANCH   2  10
TORSDOF 3
ENDMDL
MODEL      106
REMARK 921   NORMALIZED FREE ENERGY PREDICTED BY IDOCK:   -4.58 KCAL/MOL
REMARK 922        TOTAL FREE ENERGY PREDICTED BY IDOCK:   -5.72 KCAL/MOL
REMARK 923 INTER-LIGAND FREE ENERGY PREDICTED BY IDOCK:   -5.21 KCAL/MOL
REMARK 924 INTRA-LIGAND FREE ENERGY PREDICTED BY IDOCK:   -0.51 KCAL/MOL
REMARK 927      BINDING AFFINITY PREDICTED BY RF-SCORE:    0.00 PKD
ROOT
HETATM    1  O   UNL     1      -8.715   6.307  70.539  1.00  0.00    -0.140 OA 
HETATM    2  C   UNL     1      -9.924   6.302  71.287  1.00  0.00    -0.180 C  
HETATM    3  H   UNL     1      -7.965   5.978  71.020  1.00  0.00     0.000 HD 
ENDROOT
BRANCH   2   4
HETATM    4  C   UNL     1     -10.179   4.943  71.915  1.00  0.00    -0.267 A  
HETATM    5  C   UNL     1     -10.679   2.451  73.124  1.00  0.00    -0.262 A  
HETATM    6  C   UNL     1     -10.998   4.845  73.054  1.00  0.00    -0.358 A  
HETATM    7  C   UNL     1      -9.626   3.765  71.391  1.00  0.00    -0.236 A  
HETATM    8  C   UNL     1      -9.877   2.527  71.988  1.00  0.00    -0.226 A  
HETATM    9  C   UNL     1     -11.238   3.609  73.658  1.00  0.00    -0.278 A  
ENDBRANCH   2   4
BRANCH   2  10
HETATM   10  C   UNL     1     -11.139   6.835  70.508  1.00  0.00    -0.298 C  
HETATM   11  O   UNL     1     -11.525   6.275  69.478  1.00  0.00    -0.428 OA 
BRANCH  10  12
HETATM   12  C   UNL     1     -11.871   8.050  70.976  1.00  0.00    -0.280 A  
HETATM   13  C   UNL     1     -11.351   9.306  70.630  1.00  0.00    -0.330 A  
HETATM   14  C   UNL     1     -13.157  10.399  71.806  1.00  0.00    -0.567 A  
HETATM   15  C   UNL     1     -11.989  10.476  71.049  1.00  0.00    -0.466 A  
HETATM   16  C   UNL     1     -13.693   9.156  72.134  1.00  0.00    -0.531 A  
HETATM   17  C   UNL     1     -13.057   7.986  71.715  1.00  0.00    -0.360 A  
ENDBRANCH  10  12
ENDBRANCH   2  10
TORSDOF 3
ENDMDL
MODEL      107
REMARK 921   NORMALIZED FREE ENERGY PREDICTED BY IDOCK:   -4.58 KCAL/MOL
REMARK 922        TOTAL FREE ENERGY PREDICTED BY IDOCK:   -5.72 KCAL/MOL
REMARK 923 INTER-LIGAND FREE ENERGY PREDICTED BY IDOCK:   -4.93 KCAL/MOL
REMARK 924 INTRA-LIGAND FREE ENERGY PREDICTED BY IDOCK:   -0.79 KCAL/MOL
REMARK 927      BINDING AFFINITY PREDICTED BY RF-SCORE:    0.00 PKD
ROOT
HETATM    1  O   UNL     1     -11.649   5.301  73.380  1.00  0.00    -0.504 OA 
HETATM    2  C   UNL     1     -11.047   6.199  72.458  1.00  0.00    -0.274 C  
HETATM    3  H   UNL     1     -12.023   5.727  74.142  1.00  0.00     0.000 HD 
ENDROOT
BRANCH   2   4
HETATM    4  C   UNL     1     -11.992   7.331  72.092  1.00  0.00    -0.307 A  
HETATM    5  C   UNL     1     -13.701   9.466  71.429  1.00  0.00    -0.309 A  
HETATM    6  C   UNL     1     -11.522   8.656  72.086  1.00  0.00    -0.443 A  
HETATM    7  C   UNL     1     -13.332   7.099  71.749  1.00  0.00    -0.347 A  
HETATM    8  C   UNL     1     -14.180   8.158  71.415  1.00  0.00    -0.431 A  
HETATM    9  C   UNL     1     -12.374   9.715  71.766  1.00  0.00    -0.474 A  
ENDBRANCH   2   4
BRANCH   2  10
HETATM   10  C   UNL     1     -10.439   5.508  71.224  1.00  0.00    -0.239 C  
HETATM   11  O   UNL     1     -10.110   4.320  71.263  1.00  0.00    -0.177 OA 
BRANCH  10  12
HETATM   12  C   UNL     1     -10.224   6.267  69.955  1.00  0.00    -0.232 A  
HETATM   13  C   UNL     1      -9.073   7.061  69.849  1.00  0.00    -0.141 A  
HETATM   14  C   UNL     1      -9.722   7.739  67.623  1.00  0.00    -0.193 A  
HETATM   15  C   UNL     1      -8.827   7.798  68.689  1.00  0.00    -0.131 A  
HETATM   16  C   UNL     1     -10.857   6.935  67.711  1.00  0.00    -0.312 A  
HETATM   17  C   UNL     1     -11.103   6.196  68.869  1.00  0.00    -0.417 A  
ENDBRANCH  10  12
ENDBRANCH   2  10
TORSDOF 3
ENDMDL
MODEL      108
REMARK 921   NORMALIZED FREE ENERGY PREDICTED BY IDOCK:   -4.58 KCAL/MOL
REMARK 922        TOTAL FREE ENERGY PREDICTED BY IDOCK:   -5.72 KCAL/MOL
REMARK 923 INTER-LIGAND FREE ENERGY PREDICTED BY IDOCK:   -5.41 KCAL/MOL
REMARK 924 INTRA-LIGAND FREE ENERGY PREDICTED BY IDOCK:   -0.31 KCAL/MOL
REMARK 927      BINDING AFFINITY PREDICTED BY RF-SCORE:    0.00 PKD
ROOT
HETATM    1  O   UNL     1     -13.318  10.358  69.766  1.00  0.00    -0.466 OA 
HETATM    2  C   UNL     1     -12.041  10.968  69.895  1.00  0.00    -0.361 C  
HETATM    3  H   UNL     1     -14.029  10.977  69.651  1.00  0.00     0.000 HD 
ENDROOT
BRANCH   2   4
HETATM    4  C   UNL     1     -11.784  11.954  68.768  1.00  0.00    -0.379 A  
HETATM    5  C   UNL     1     -11.311  13.826  66.721  1.00  0.00    -0.345 A  
HETATM    6  C   UNL     1     -11.580  13.313  69.067  1.00  0.00    -0.359 A  
HETATM    7  C   UNL     1     -11.735  11.554  67.425  1.00  0.00    -0.231 A  
HETATM    8  C   UNL     1     -11.496  12.482  66.409  1.00  0.00    -0.418 A  
HETATM    9  C   UNL     1     -11.354  14.243  68.049  1.00  0.00    -0.318 A  
ENDBRANCH   2   4
BRANCH   2  10
HETATM   10  C   UNL     1     -10.889   9.964  70.082  1.00  0.00    -0.304 C  
HETATM   11  O   UNL     1      -9.750  10.229  69.685  1.00  0.00    -0.228 OA 
BRANCH  10  12
HETATM   12  C   UNL     1     -11.128   8.644  70.737  1.00  0.00    -0.295 A  
HETATM   13  C   UNL     1     -11.425   8.633  72.108  1.00  0.00    -0.443 A  
HETATM   14  C   UNL     1     -11.587   6.223  72.072  1.00  0.00    -0.372 A  
HETATM   15  C   UNL     1     -11.648   7.426  72.773  1.00  0.00    -0.255 A  
HETATM   16  C   UNL     1     -11.315   6.226  70.707  1.00  0.00    -0.397 A  
HETATM   17  C   UNL     1     -11.093   7.432  70.039  1.00  0.00    -0.238 A  
ENDBRANCH  10  12
ENDBRANCH   2  10
TORSDOF 3
ENDMDL
MODEL      109
REMARK 921   NORMALIZED FREE ENERGY PREDICTED BY IDOCK:   -4.57 KCAL/MOL
REMARK 922        TOTAL FREE ENERGY PREDICTED BY IDOCK:   -5.71 KCAL/MOL
REMARK 923 INTER-LIGAND FREE ENERGY PREDICTED BY IDOCK:   -5.19 KCAL/MOL
REMARK 924 INTRA-LIGAND FREE ENERGY PREDICTED BY IDOCK:   -0.52 KCAL/MOL
REMARK 927      BINDING AFFINITY PREDICTED BY RF-SCORE:    0.00 PKD
ROOT
HETATM    1  O   UNL     1     -10.657  18.986  68.687  1.00  0.00    -0.413 OA 
HETATM    2  C   UNL     1     -10.512  17.930  67.748  1.00  0.00    -0.400 C  
HETATM    3  H   UNL     1     -11.507  19.010  69.110  1.00  0.00     0.000 HD 
ENDROOT
BRANCH   2   4
HETATM    4  C   UNL     1     -10.902  16.593  68.356  1.00  0.00    -0.361 A  
HETATM    5  C   UNL     1     -11.646  14.100  69.430  1.00  0.00    -0.353 A  
HETATM    6  C   UNL     1     -11.365  15.559  67.523  1.00  0.00    -0.232 A  
HETATM    7  C   UNL     1     -10.812  16.348  69.734  1.00  0.00    -0.343 A  
HETATM    8  C   UNL     1     -11.176  15.109  70.267  1.00  0.00    -0.306 A  
HETATM    9  C   UNL     1     -11.742  14.325  68.059  1.00  0.00    -0.386 A  
ENDBRANCH   2   4
BRANCH   2  10
HETATM   10  C   UNL     1      -9.135  17.892  67.061  1.00  0.00    -0.253 C  
HETATM   11  O   UNL     1      -8.999  17.381  65.946  1.00  0.00    -0.521 OA 
BRANCH  10  12
HETATM   12  C   UNL     1      -7.931  18.462  67.737  1.00  0.00    -0.258 A  
HETATM   13  C   UNL     1      -7.488  19.730  67.333  1.00  0.00    -0.298 A  
HETATM   14  C   UNL     1      -5.679  19.627  68.931  1.00  0.00    -0.249 A  
HETATM   15  C   UNL     1      -6.362  20.307  67.925  1.00  0.00    -0.283 A  
HETATM   16  C   UNL     1      -6.125  18.377  69.354  1.00  0.00    -0.263 A  
HETATM   17  C   UNL     1      -7.252  17.800  68.765  1.00  0.00    -0.271 A  
ENDBRANCH  10  12
ENDBRANCH   2  10
TORSDOF 3
ENDMDL
MODEL      110
REMARK 921   NORMALIZED FREE ENERGY PREDICTED BY IDOCK:   -4.56 KCAL/MOL
REMARK 922        TOTAL FREE ENERGY PREDICTED BY IDOCK:   -5.70 KCAL/MOL
REMARK 923 INTER-LIGAND FREE ENERGY PREDICTED BY IDOCK:   -5.07 KCAL/MOL
REMARK 924 INTRA-LIGAND FREE ENERGY PREDICTED BY IDOCK:   -0.63 KCAL/MOL
REMARK 927      BINDING AFFINITY PREDICTED BY RF-SCORE:    0.00 PKD
ROOT
HETATM    1  O   UNL     1     -12.507  13.699  66.013  1.00  0.00    -0.445 OA 
HETATM    2  C   UNL     1     -12.047  13.374  67.318  1.00  0.00    -0.304 C  
HETATM    3  H   UNL     1     -12.949  14.538  65.960  1.00  0.00     0.000 HD 
ENDROOT
BRANCH   2   4
HETATM    4  C   UNL     1     -11.228  14.507  67.913  1.00  0.00    -0.310 A  
HETATM    5  C   UNL     1      -9.674  16.602  68.967  1.00  0.00    -0.260 A  
HETATM    6  C   UNL     1     -10.189  15.082  67.160  1.00  0.00    -0.249 A  
HETATM    7  C   UNL     1     -11.476  15.010  69.198  1.00  0.00    -0.320 A  
HETATM    8  C   UNL     1     -10.708  16.054  69.720  1.00  0.00    -0.331 A  
HETATM    9  C   UNL     1      -9.412  16.117  67.688  1.00  0.00    -0.220 A  
ENDBRANCH   2   4
BRANCH   2  10
HETATM   10  C   UNL     1     -11.332  12.013  67.404  1.00  0.00    -0.327 C  
HETATM   11  O   UNL     1     -10.741  11.547  66.426  1.00  0.00    -0.254 OA 
BRANCH  10  12
HETATM   12  C   UNL     1     -11.349  11.223  68.672  1.00  0.00    -0.336 A  
HETATM   13  C   UNL     1     -10.243  10.408  68.955  1.00  0.00    -0.220 A  
HETATM   14  C   UNL     1     -11.276   9.690  71.017  1.00  0.00    -0.445 A  
HETATM   15  C   UNL     1     -10.210   9.641  70.121  1.00  0.00    -0.313 A  
HETATM   16  C   UNL     1     -12.368  10.513  70.755  1.00  0.00    -0.474 A  
HETATM   17  C   UNL     1     -12.402  11.282  69.590  1.00  0.00    -0.262 A  
ENDBRANCH  10  12
ENDBRANCH   2  10
TORSDOF 3
ENDMDL
MODEL      111
REMARK 921   NORMALIZED FREE ENERGY PREDICTED BY IDOCK:   -4.53 KCAL/MOL
REMARK 922        TOTAL FREE ENERGY PREDICTED BY IDOCK:   -5.66 KCAL/MOL
REMARK 923 INTER-LIGAND FREE ENERGY PREDICTED BY IDOCK:   -5.10 KCAL/MOL
REMARK 924 INTRA-LIGAND FREE ENERGY PREDICTED BY IDOCK:   -0.56 KCAL/MOL
REMARK 927      BINDING AFFINITY PREDICTED BY RF-SCORE:    0.00 PKD
ROOT
HETATM    1  O   UNL     1     -10.003  15.509  68.581  1.00  0.00    -0.199 OA 
HETATM    2  C   UNL     1     -10.632  14.548  67.744  1.00  0.00    -0.250 C  
HETATM    3  H   UNL     1     -10.363  15.548  69.458  1.00  0.00     0.000 HD 
ENDROOT
BRANCH   2   4
HETATM    4  C   UNL     1     -10.691  13.186  68.415  1.00  0.00    -0.270 A  
HETATM    5  C   UNL     1     -10.850  10.681  69.687  1.00  0.00    -0.318 A  
HETATM    6  C   UNL     1     -11.803  12.850  69.208  1.00  0.00    -0.363 A  
HETATM    7  C   UNL     1      -9.669  12.238  68.266  1.00  0.00    -0.219 A  
HETATM    8  C   UNL     1      -9.750  10.992  68.893  1.00  0.00    -0.184 A  
HETATM    9  C   UNL     1     -11.876  11.610  69.846  1.00  0.00    -0.434 A  
ENDBRANCH   2   4
BRANCH   2  10
HETATM   10  C   UNL     1     -10.048  14.485  66.321  1.00  0.00    -0.295 C  
HETATM   11  O   UNL     1      -9.023  15.108  66.031  1.00  0.00    -0.259 OA 
BRANCH  10  12
HETATM   12  C   UNL     1     -10.718  13.678  65.258  1.00  0.00    -0.340 A  
HETATM   13  C   UNL     1     -10.081  12.507  64.821  1.00  0.00    -0.251 A  
HETATM   14  C   UNL     1     -11.878  12.089  63.262  1.00  0.00    -0.450 A  
HETATM   15  C   UNL     1     -10.658  11.718  63.823  1.00  0.00    -0.470 A  
HETATM   16  C   UNL     1     -12.528  13.238  63.705  1.00  0.00    -0.347 A  
HETATM   17  C   UNL     1     -11.954  14.026  64.704  1.00  0.00    -0.449 A  
ENDBRANCH  10  12
ENDBRANCH   2  10
TORSDOF 3
ENDMDL
MODEL      112
REMARK 921   NORMALIZED FREE ENERGY PREDICTED BY IDOCK:   -4.51 KCAL/MOL
REMARK 922        TOTAL FREE ENERGY PREDICTED BY IDOCK:   -5.64 KCAL/MOL
REMARK 923 INTER-LIGAND FREE ENERGY PREDICTED BY IDOCK:   -5.14 KCAL/MOL
REMARK 924 INTRA-LIGAND FREE ENERGY PREDICTED BY IDOCK:   -0.51 KCAL/MOL
REMARK 927      BINDING AFFINITY PREDICTED BY RF-SCORE:    0.00 PKD
ROOT
HETATM    1  O   UNL     1      -9.564   4.830  71.566  1.00  0.00    -0.146 OA 
HETATM    2  C   UNL     1     -10.507   5.619  70.853  1.00  0.00    -0.256 C  
HETATM    3  H   UNL     1      -9.505   3.933  71.259  1.00  0.00     0.000 HD 
ENDROOT
BRANCH   2   4
HETATM    4  C   UNL     1     -10.283   5.526  69.354  1.00  0.00    -0.329 A  
HETATM    5  C   UNL     1      -9.911   5.395  66.567  1.00  0.00    -0.222 A  
HETATM    6  C   UNL     1     -10.917   6.444  68.498  1.00  0.00    -0.396 A  
HETATM    7  C   UNL     1      -9.453   4.550  68.784  1.00  0.00    -0.221 A  
HETATM    8  C   UNL     1      -9.264   4.487  67.401  1.00  0.00    -0.154 A  
HETATM    9  C   UNL     1     -10.738   6.372  67.114  1.00  0.00    -0.433 A  
ENDBRANCH   2   4
BRANCH   2  10
HETATM   10  C   UNL     1     -10.603   7.073  71.351  1.00  0.00    -0.217 C  
HETATM   11  O   UNL     1      -9.585   7.733  71.575  1.00  0.00    -0.153 OA 
BRANCH  10  12
HETATM   12  C   UNL     1     -11.933   7.711  71.586  1.00  0.00    -0.329 A  
HETATM   13  C   UNL     1     -11.963   9.082  71.877  1.00  0.00    -0.445 A  
HETATM   14  C   UNL     1     -14.372   9.012  72.051  1.00  0.00    -0.327 A  
HETATM   15  C   UNL     1     -13.178   9.729  72.114  1.00  0.00    -0.530 A  
HETATM   16  C   UNL     1     -14.353   7.654  71.741  1.00  0.00    -0.586 A  
HETATM   17  C   UNL     1     -13.139   7.007  71.502  1.00  0.00    -0.395 A  
ENDBRANCH  10  12
ENDBRANCH   2  10
TORSDOF 3
ENDMDL
MODEL      113
REMARK 921   NORMALIZED FREE ENERGY PREDICTED BY IDOCK:   -4.49 KCAL/MOL
REMARK 922        TOTAL FREE ENERGY PREDICTED BY IDOCK:   -5.62 KCAL/MOL
REMARK 923 INTER-LIGAND FREE ENERGY PREDICTED BY IDOCK:   -5.13 KCAL/MOL
REMARK 924 INTRA-LIGAND FREE ENERGY PREDICTED BY IDOCK:   -0.49 KCAL/MOL
REMARK 927      BINDING AFFINITY PREDICTED BY RF-SCORE:    0.00 PKD
ROOT
HETATM    1  O   UNL     1     -12.317  12.484  66.373  1.00  0.00    -0.537 OA 
HETATM    2  C   UNL     1     -10.902  12.384  66.451  1.00  0.00    -0.258 C  
HETATM    3  H   UNL     1     -12.699  11.976  65.667  1.00  0.00     0.000 HD 
ENDROOT
BRANCH   2   4
HETATM    4  C   UNL     1     -10.451  10.933  66.460  1.00  0.00    -0.308 A  
HETATM    5  C   UNL     1      -9.638   8.240  66.533  1.00  0.00    -0.312 A  
HETATM    6  C   UNL     1     -10.837  10.092  67.519  1.00  0.00    -0.326 A  
HETATM    7  C   UNL     1      -9.659  10.393  65.437  1.00  0.00    -0.303 A  
HETATM    8  C   UNL     1      -9.259   9.055  65.469  1.00  0.00    -0.262 A  
HETATM    9  C   UNL     1     -10.425   8.757  67.558  1.00  0.00    -0.340 A  
ENDBRANCH   2   4
BRANCH   2  10
HETATM   10  C   UNL     1     -10.282  13.207  67.595  1.00  0.00    -0.224 C  
HETATM   11  O   UNL     1      -9.063  13.386  67.656  1.00  0.00    -0.184 OA 
BRANCH  10  12
HETATM   12  C   UNL     1     -11.145  13.796  68.663  1.00  0.00    -0.293 A  
HETATM   13  C   UNL     1     -11.689  12.930  69.622  1.00  0.00    -0.367 A  
HETATM   14  C   UNL     1     -12.783  14.790  70.708  1.00  0.00    -0.422 A  
HETATM   15  C   UNL     1     -12.509  13.425  70.638  1.00  0.00    -0.385 A  
HETATM   16  C   UNL     1     -12.229  15.660  69.773  1.00  0.00    -0.293 A  
HETATM   17  C   UNL     1     -11.407  15.166  68.758  1.00  0.00    -0.313 A  
ENDBRANCH  10  12
ENDBRANCH   2  10
TORSDOF 3
ENDMDL
MODEL      114
REMARK 921   NORMALIZED FREE ENERGY PREDICTED BY IDOCK:   -4.48 KCAL/MOL
REMARK 922        TOTAL FREE ENERGY PREDICTED BY IDOCK:   -5.60 KCAL/MOL
REMARK 923 INTER-LIGAND FREE ENERGY PREDICTED BY IDOCK:   -4.86 KCAL/MOL
REMARK 924 INTRA-LIGAND FREE ENERGY PREDICTED BY IDOCK:   -0.74 KCAL/MOL
REMARK 927      BINDING AFFINITY PREDICTED BY RF-SCORE:    0.00 PKD
ROOT
HETATM    1  O   UNL     1      -9.421   7.699  72.701  1.00  0.00    -0.150 OA 
HETATM    2  C   UNL     1      -9.944   8.811  71.986  1.00  0.00    -0.321 C  
HETATM    3  H   UNL     1      -9.866   7.528  73.522  1.00  0.00     0.000 HD 
ENDROOT
BRANCH   2   4
HETATM    4  C   UNL     1     -11.451   8.706  71.827  1.00  0.00    -0.394 A  
HETATM    5  C   UNL     1     -14.247   8.571  71.537  1.00  0.00    -0.448 A  
HETATM    6  C   UNL     1     -12.218   9.875  71.681  1.00  0.00    -0.482 A  
HETATM    7  C   UNL     1     -12.114   7.470  71.814  1.00  0.00    -0.340 A  
HETATM    8  C   UNL     1     -13.501   7.402  71.665  1.00  0.00    -0.437 A  
HETATM    9  C   UNL     1     -13.607   9.807  71.546  1.00  0.00    -0.351 A  
ENDBRANCH   2   4
BRANCH   2  10
HETATM   10  C   UNL     1      -9.223   9.089  70.655  1.00  0.00    -0.231 C  
HETATM   11  O   UNL     1      -8.232   9.824  70.615  1.00  0.00    -0.246 OA 
BRANCH  10  12
HETATM   12  C   UNL     1      -9.716   8.485  69.381  1.00  0.00    -0.177 A  
HETATM   13  C   UNL     1      -9.697   7.088  69.264  1.00  0.00    -0.158 A  
HETATM   14  C   UNL     1     -10.610   7.243  67.033  1.00  0.00    -0.415 A  
HETATM   15  C   UNL     1     -10.138   6.470  68.092  1.00  0.00    -0.170 A  
HETATM   16  C   UNL     1     -10.654   8.630  67.149  1.00  0.00    -0.304 A  
HETATM   17  C   UNL     1     -10.215   9.249  68.321  1.00  0.00    -0.236 A  
ENDBRANCH  10  12
ENDBRANCH   2  10
TORSDOF 3
ENDMDL
MODEL      115
REMARK 921   NORMALIZED FREE ENERGY PREDICTED BY IDOCK:   -4.48 KCAL/MOL
REMARK 922        TOTAL FREE ENERGY PREDICTED BY IDOCK:   -5.60 KCAL/MOL
REMARK 923 INTER-LIGAND FREE ENERGY PREDICTED BY IDOCK:   -4.80 KCAL/MOL
REMARK 924 INTRA-LIGAND FREE ENERGY PREDICTED BY IDOCK:   -0.80 KCAL/MOL
REMARK 927      BINDING AFFINITY PREDICTED BY RF-SCORE:    0.00 PKD
ROOT
HETATM    1  O   UNL     1     -12.865   6.419  72.245  1.00  0.00    -0.551 OA 
HETATM    2  C   UNL     1     -12.274   7.165  71.189  1.00  0.00    -0.365 C  
HETATM    3  H   UNL     1     -13.279   5.613  71.960  1.00  0.00     0.000 HD 
ENDROOT
BRANCH   2   4
HETATM    4  C   UNL     1     -11.353   6.297  70.349  1.00  0.00    -0.440 A  
HETATM    5  C   UNL     1      -9.669   4.715  68.742  1.00  0.00    -0.230 A  
HETATM    6  C   UNL     1     -11.260   6.521  68.964  1.00  0.00    -0.354 A  
HETATM    7  C   UNL     1     -10.578   5.272  70.910  1.00  0.00    -0.247 A  
HETATM    8  C   UNL     1      -9.738   4.490  70.114  1.00  0.00    -0.287 A  
HETATM    9  C   UNL     1     -10.430   5.729  68.166  1.00  0.00    -0.277 A  
ENDBRANCH   2   4
BRANCH   2  10
HETATM   10  C   UNL     1     -11.604   8.471  71.651  1.00  0.00    -0.299 C  
HETATM   11  O   UNL     1     -12.262   9.508  71.780  1.00  0.00    -0.363 OA 
BRANCH  10  12
HETATM   12  C   UNL     1     -10.139   8.515  71.941  1.00  0.00    -0.367 A  
HETATM   13  C   UNL     1      -9.299   9.126  70.998  1.00  0.00    -0.333 A  
HETATM   14  C   UNL     1      -7.374   8.647  72.376  1.00  0.00    -0.020 A  
HETATM   15  C   UNL     1      -7.921   9.187  71.214  1.00  0.00    -0.066 A  
HETATM   16  C   UNL     1      -8.203   8.059  73.328  1.00  0.00    -0.254 A  
HETATM   17  C   UNL     1      -9.581   7.999  73.115  1.00  0.00    -0.344 A  
ENDBRANCH  10  12
ENDBRANCH   2  10
TORSDOF 3
ENDMDL
MODEL      116
REMARK 921   NORMALIZED FREE ENERGY PREDICTED BY IDOCK:   -4.47 KCAL/MOL
REMARK 922        TOTAL FREE ENERGY PREDICTED BY IDOCK:   -5.60 KCAL/MOL
REMARK 923 INTER-LIGAND FREE ENERGY PREDICTED BY IDOCK:   -5.10 KCAL/MOL
REMARK 924 INTRA-LIGAND FREE ENERGY PREDICTED BY IDOCK:   -0.50 KCAL/MOL
REMARK 927      BINDING AFFINITY PREDICTED BY RF-SCORE:    0.00 PKD
ROOT
HETATM    1  O   UNL     1      -8.624  11.055  67.862  1.00  0.00    -0.127 OA 
HETATM    2  C   UNL     1      -9.261  10.192  66.929  1.00  0.00    -0.146 C  
HETATM    3  H   UNL     1      -8.009  11.661  67.467  1.00  0.00     0.000 HD 
ENDROOT
BRANCH   2   4
HETATM    4  C   UNL     1      -9.868  10.976  65.778  1.00  0.00    -0.282 A  
HETATM    5  C   UNL     1     -11.015  12.467  63.685  1.00  0.00    -0.525 A  
HETATM    6  C   UNL     1     -10.502  12.206  66.032  1.00  0.00    -0.281 A  
HETATM    7  C   UNL     1      -9.813  10.517  64.454  1.00  0.00    -0.405 A  
HETATM    8  C   UNL     1     -10.378  11.259  63.414  1.00  0.00    -0.449 A  
HETATM    9  C   UNL     1     -11.078  12.940  64.993  1.00  0.00    -0.320 A  
ENDBRANCH   2   4
BRANCH   2  10
HETATM   10  C   UNL     1     -10.258   9.210  67.570  1.00  0.00    -0.245 C  
HETATM   11  O   UNL     1     -10.567   8.160  66.999  1.00  0.00    -0.329 OA 
BRANCH  10  12
HETATM   12  C   UNL     1     -10.881   9.512  68.894  1.00  0.00    -0.177 A  
HETATM   13  C   UNL     1     -11.762  10.600  68.973  1.00  0.00    -0.305 A  
HETATM   14  C   UNL     1     -12.103  10.177  71.327  1.00  0.00    -0.489 A  
HETATM   15  C   UNL     1     -12.366  10.934  70.187  1.00  0.00    -0.399 A  
HETATM   16  C   UNL     1     -11.247   9.081  71.252  1.00  0.00    -0.385 A  
HETATM   17  C   UNL     1     -10.643   8.745  70.038  1.00  0.00    -0.232 A  
ENDBRANCH  10  12
ENDBRANCH   2  10
TORSDOF 3
ENDMDL
MODEL      117
REMARK 921   NORMALIZED FREE ENERGY PREDICTED BY IDOCK:   -4.46 KCAL/MOL
REMARK 922        TOTAL FREE ENERGY PREDICTED BY IDOCK:   -5.59 KCAL/MOL
REMARK 923 INTER-LIGAND FREE ENERGY PREDICTED BY IDOCK:   -5.22 KCAL/MOL
REMARK 924 INTRA-LIGAND FREE ENERGY PREDICTED BY IDOCK:   -0.36 KCAL/MOL
REMARK 927      BINDING AFFINITY PREDICTED BY RF-SCORE:    0.00 PKD
ROOT
HETATM    1  O   UNL     1     -11.543   6.924  67.357  1.00  0.00    -0.652 OA 
HETATM    2  C   UNL     1     -10.412   7.186  68.176  1.00  0.00    -0.200 C  
HETATM    3  H   UNL     1     -12.120   6.253  67.703  1.00  0.00     0.000 HD 
ENDROOT
BRANCH   2   4
HETATM    4  C   UNL     1     -10.821   7.449  69.616  1.00  0.00    -0.222 A  
HETATM    5  C   UNL     1     -11.535   7.975  72.286  1.00  0.00    -0.419 A  
HETATM    6  C   UNL     1     -10.193   8.477  70.340  1.00  0.00    -0.215 A  
HETATM    7  C   UNL     1     -11.820   6.699  70.254  1.00  0.00    -0.378 A  
HETATM    8  C   UNL     1     -12.178   6.963  71.578  1.00  0.00    -0.415 A  
HETATM    9  C   UNL     1     -10.542   8.731  71.669  1.00  0.00    -0.401 A  
ENDBRANCH   2   4
BRANCH   2  10
HETATM   10  C   UNL     1      -9.476   8.272  67.616  1.00  0.00    -0.149 C  
HETATM   11  O   UNL     1      -8.253   8.182  67.748  1.00  0.00    -0.125 OA 
BRANCH  10  12
HETATM   12  C   UNL     1     -10.032   9.465  66.909  1.00  0.00    -0.293 A  
HETATM   13  C   UNL     1      -9.717   9.632  65.553  1.00  0.00    -0.372 A  
HETATM   14  C   UNL     1     -11.012  11.670  65.485  1.00  0.00    -0.327 A  
HETATM   15  C   UNL     1     -10.202  10.735  64.845  1.00  0.00    -0.388 A  
HETATM   16  C   UNL     1     -11.349  11.500  66.825  1.00  0.00    -0.309 A  
HETATM   17  C   UNL     1     -10.866  10.398  67.534  1.00  0.00    -0.358 A  
ENDBRANCH  10  12
ENDBRANCH   2  10
TORSDOF 3
ENDMDL
MODEL      118
REMARK 921   NORMALIZED FREE ENERGY PREDICTED BY IDOCK:   -4.46 KCAL/MOL
REMARK 922        TOTAL FREE ENERGY PREDICTED BY IDOCK:   -5.58 KCAL/MOL
REMARK 923 INTER-LIGAND FREE ENERGY PREDICTED BY IDOCK:   -5.18 KCAL/MOL
REMARK 924 INTRA-LIGAND FREE ENERGY PREDICTED BY IDOCK:   -0.40 KCAL/MOL
REMARK 927      BINDING AFFINITY PREDICTED BY RF-SCORE:    0.00 PKD
ROOT
HETATM    1  O   UNL     1     -11.231   7.667  67.406  1.00  0.00    -0.499 OA 
HETATM    2  C   UNL     1     -10.215   8.012  68.338  1.00  0.00    -0.207 C  
HETATM    3  H   UNL     1     -11.646   6.832  67.583  1.00  0.00     0.000 HD 
ENDROOT
BRANCH   2   4
HETATM    4  C   UNL     1     -10.715   7.897  69.768  1.00  0.00    -0.233 A  
HETATM    5  C   UNL     1     -11.671   7.633  72.402  1.00  0.00    -0.366 A  
HETATM    6  C   UNL     1     -11.387   6.731  70.178  1.00  0.00    -0.404 A  
HETATM    7  C   UNL     1     -10.526   8.920  70.708  1.00  0.00    -0.283 A  
HETATM    8  C   UNL     1     -10.995   8.788  72.017  1.00  0.00    -0.438 A  
HETATM    9  C   UNL     1     -11.868   6.606  71.483  1.00  0.00    -0.387 A  
ENDBRANCH   2   4
BRANCH   2  10
HETATM   10  C   UNL     1      -9.541   9.366  68.051  1.00  0.00    -0.138 C  
HETATM   11  O   UNL     1      -8.389   9.592  68.432  1.00  0.00    -0.115 OA 
BRANCH  10  12
HETATM   12  C   UNL     1     -10.273  10.440  67.313  1.00  0.00    -0.258 A  
HETATM   13  C   UNL     1     -11.068  11.324  68.057  1.00  0.00    -0.325 A  
HETATM   14  C   UNL     1     -11.696  12.488  66.035  1.00  0.00    -0.472 A  
HETATM   15  C   UNL     1     -11.781  12.340  67.418  1.00  0.00    -0.405 A  
HETATM   16  C   UNL     1     -10.890  11.628  65.292  1.00  0.00    -0.340 A  
HETATM   17  C   UNL     1     -10.175  10.612  65.929  1.00  0.00    -0.314 A  
ENDBRANCH  10  12
ENDBRANCH   2  10
TORSDOF 3
ENDMDL
MODEL      119
REMARK 921   NORMALIZED FREE ENERGY PREDICTED BY IDOCK:   -4.46 KCAL/MOL
REMARK 922        TOTAL FREE ENERGY PREDICTED BY IDOCK:   -5.58 KCAL/MOL
REMARK 923 INTER-LIGAND FREE ENERGY PREDICTED BY IDOCK:   -5.02 KCAL/MOL
REMARK 924 INTRA-LIGAND FREE ENERGY PREDICTED BY IDOCK:   -0.56 KCAL/MOL
REMARK 927      BINDING AFFINITY PREDICTED BY RF-SCORE:    0.00 PKD
ROOT
HETATM    1  O   UNL     1      -9.225  12.729  66.325  1.00  0.00    -0.376 OA 
HETATM    2  C   UNL     1      -9.749  11.914  67.365  1.00  0.00    -0.184 C  
HETATM    3  H   UNL     1      -8.296  12.606  66.172  1.00  0.00     0.000 HD 
ENDROOT
BRANCH   2   4
HETATM    4  C   UNL     1      -9.377  10.455  67.162  1.00  0.00    -0.177 A  
HETATM    5  C   UNL     1      -8.705   7.756  66.730  1.00  0.00    -0.143 A  
HETATM    6  C   UNL     1      -9.435   9.895  65.874  1.00  0.00    -0.272 A  
HETATM    7  C   UNL     1      -8.966   9.637  68.225  1.00  0.00    -0.123 A  
HETATM    8  C   UNL     1      -8.628   8.299  68.010  1.00  0.00    -0.132 A  
HETATM    9  C   UNL     1      -9.109   8.553  65.662  1.00  0.00    -0.189 A  
ENDBRANCH   2   4
BRANCH   2  10
HETATM   10  C   UNL     1     -11.255  12.114  67.613  1.00  0.00    -0.286 C  
HETATM   11  O   UNL     1     -12.050  12.162  66.671  1.00  0.00    -0.622 OA 
BRANCH  10  12
HETATM   12  C   UNL     1     -11.784  12.268  69.002  1.00  0.00    -0.376 A  
HETATM   13  C   UNL     1     -12.078  11.104  69.727  1.00  0.00    -0.414 A  
HETATM   14  C   UNL     1     -12.788  12.435  71.613  1.00  0.00    -0.375 A  
HETATM   15  C   UNL     1     -12.583  11.188  71.026  1.00  0.00    -0.503 A  
HETATM   16  C   UNL     1     -12.478  13.596  70.909  1.00  0.00    -0.448 A  
HETATM   17  C   UNL     1     -11.971  13.513  69.611  1.00  0.00    -0.397 A  
ENDBRANCH  10  12
ENDBRANCH   2  10
TORSDOF 3
ENDMDL
MODEL      120
REMARK 921   NORMALIZED FREE ENERGY PREDICTED BY IDOCK:   -4.45 KCAL/MOL
REMARK 922        TOTAL FREE ENERGY PREDICTED BY IDOCK:   -5.57 KCAL/MOL
REMARK 923 INTER-LIGAND FREE ENERGY PREDICTED BY IDOCK:   -5.14 KCAL/MOL
REMARK 924 INTRA-LIGAND FREE ENERGY PREDICTED BY IDOCK:   -0.44 KCAL/MOL
REMARK 927      BINDING AFFINITY PREDICTED BY RF-SCORE:    0.00 PKD
ROOT
HETATM    1  O   UNL     1     -11.933   6.791  70.048  1.00  0.00    -0.636 OA 
HETATM    2  C   UNL     1     -10.766   7.599  70.106  1.00  0.00    -0.240 C  
HETATM    3  H   UNL     1     -11.814   5.918  70.402  1.00  0.00     0.000 HD 
ENDROOT
BRANCH   2   4
HETATM    4  C   UNL     1     -10.171   7.610  71.505  1.00  0.00    -0.212 A  
HETATM    5  C   UNL     1      -9.023   7.660  74.073  1.00  0.00    -0.299 A  
HETATM    6  C   UNL     1      -9.001   8.347  71.757  1.00  0.00    -0.262 A  
HETATM    7  C   UNL     1     -10.757   6.909  72.568  1.00  0.00    -0.263 A  
HETATM    8  C   UNL     1     -10.191   6.937  73.844  1.00  0.00    -0.401 A  
HETATM    9  C   UNL     1      -8.427   8.364  73.030  1.00  0.00    -0.209 A  
ENDBRANCH   2   4
BRANCH   2  10
HETATM   10  C   UNL     1     -10.959   9.014  69.531  1.00  0.00    -0.106 C  
HETATM   11  O   UNL     1     -10.481   9.321  68.435  1.00  0.00    -0.204 OA 
BRANCH  10  12
HETATM   12  C   UNL     1     -11.720  10.049  70.293  1.00  0.00    -0.327 A  
HETATM   13  C   UNL     1     -11.463  11.398  70.008  1.00  0.00    -0.331 A  
HETATM   14  C   UNL     1     -13.082  12.076  71.667  1.00  0.00    -0.422 A  
HETATM   15  C   UNL     1     -12.138  12.407  70.697  1.00  0.00    -0.317 A  
HETATM   16  C   UNL     1     -13.360  10.739  71.940  1.00  0.00    -0.445 A  
HETATM   17  C   UNL     1     -12.687   9.729  71.251  1.00  0.00    -0.464 A  
ENDBRANCH  10  12
ENDBRANCH   2  10
TORSDOF 3
ENDMDL
MODEL      121
REMARK 921   NORMALIZED FREE ENERGY PREDICTED BY IDOCK:   -4.44 KCAL/MOL
REMARK 922        TOTAL FREE ENERGY PREDICTED BY IDOCK:   -5.56 KCAL/MOL
REMARK 923 INTER-LIGAND FREE ENERGY PREDICTED BY IDOCK:   -4.97 KCAL/MOL
REMARK 924 INTRA-LIGAND FREE ENERGY PREDICTED BY IDOCK:   -0.59 KCAL/MOL
REMARK 927      BINDING AFFINITY PREDICTED BY RF-SCORE:    0.00 PKD
ROOT
HETATM    1  O   UNL     1      -8.822   8.947  67.738  1.00  0.00    -0.134 OA 
HETATM    2  C   UNL     1      -9.957   9.532  68.362  1.00  0.00    -0.164 C  
HETATM    3  H   UNL     1      -8.843   8.986  66.790  1.00  0.00     0.000 HD 
ENDROOT
BRANCH   2   4
HETATM    4  C   UNL     1     -10.213  10.935  67.838  1.00  0.00    -0.205 A  
HETATM    5  C   UNL     1     -10.627  13.545  66.870  1.00  0.00    -0.270 A  
HETATM    6  C   UNL     1      -9.125  11.761  67.503  1.00  0.00    -0.175 A  
HETATM    7  C   UNL     1     -11.509  11.441  67.667  1.00  0.00    -0.348 A  
HETATM    8  C   UNL     1     -11.716  12.735  67.182  1.00  0.00    -0.443 A  
HETATM    9  C   UNL     1      -9.332  13.059  67.031  1.00  0.00    -0.236 A  
ENDBRANCH   2   4
BRANCH   2  10
HETATM   10  C   UNL     1      -9.924   9.468  69.899  1.00  0.00    -0.230 C  
HETATM   11  O   UNL     1      -8.855   9.539  70.512  1.00  0.00    -0.233 OA 
BRANCH  10  12
HETATM   12  C   UNL     1     -11.186   9.306  70.682  1.00  0.00    -0.333 A  
HETATM   13  C   UNL     1     -11.613   8.003  70.979  1.00  0.00    -0.303 A  
HETATM   14  C   UNL     1     -13.542   8.881  72.139  1.00  0.00    -0.502 A  
HETATM   15  C   UNL     1     -12.790   7.793  71.701  1.00  0.00    -0.365 A  
HETATM   16  C   UNL     1     -13.113  10.178  71.868  1.00  0.00    -0.571 A  
HETATM   17  C   UNL     1     -11.936  10.390  71.148  1.00  0.00    -0.460 A  
ENDBRANCH  10  12
ENDBRANCH   2  10
TORSDOF 3
ENDMDL
MODEL      122
REMARK 921   NORMALIZED FREE ENERGY PREDICTED BY IDOCK:   -4.44 KCAL/MOL
REMARK 922        TOTAL FREE ENERGY PREDICTED BY IDOCK:   -5.56 KCAL/MOL
REMARK 923 INTER-LIGAND FREE ENERGY PREDICTED BY IDOCK:   -5.56 KCAL/MOL
REMARK 924 INTRA-LIGAND FREE ENERGY PREDICTED BY IDOCK:   -0.00 KCAL/MOL
REMARK 927      BINDING AFFINITY PREDICTED BY RF-SCORE:    0.00 PKD
ROOT
HETATM    1  O   UNL     1     -10.656  17.227  65.084  1.00  0.00    -0.686 OA 
HETATM    2  C   UNL     1     -10.511  17.175  66.497  1.00  0.00    -0.255 C  
HETATM    3  H   UNL     1     -10.309  18.019  64.692  1.00  0.00     0.000 HD 
ENDROOT
BRANCH   2   4
HETATM    4  C   UNL     1      -9.078  17.458  66.915  1.00  0.00    -0.258 A  
HETATM    5  C   UNL     1      -6.443  18.024  67.727  1.00  0.00    -0.185 A  
HETATM    6  C   UNL     1      -8.825  18.348  67.974  1.00  0.00    -0.302 A  
HETATM    7  C   UNL     1      -7.984  16.852  66.281  1.00  0.00    -0.350 A  
HETATM    8  C   UNL     1      -6.676  17.129  66.687  1.00  0.00    -0.277 A  
HETATM    9  C   UNL     1      -7.517  18.635  68.370  1.00  0.00    -0.320 A  
ENDBRANCH   2   4
BRANCH   2  10
HETATM   10  C   UNL     1     -11.074  15.891  67.133  1.00  0.00    -0.148 C  
HETATM   11  O   UNL     1     -11.520  15.900  68.284  1.00  0.00    -0.363 OA 
BRANCH  10  12
HETATM   12  C   UNL     1     -11.081  14.605  66.374  1.00  0.00    -0.334 A  
HETATM   13  C   UNL     1     -11.819  13.534  66.901  1.00  0.00    -0.452 A  
HETATM   14  C   UNL     1     -11.161  12.142  65.040  1.00  0.00    -0.372 A  
HETATM   15  C   UNL     1     -11.854  12.306  66.238  1.00  0.00    -0.387 A  
HETATM   16  C   UNL     1     -10.445  13.206  64.498  1.00  0.00    -0.425 A  
HETATM   17  C   UNL     1     -10.410  14.435  65.159  1.00  0.00    -0.447 A  
ENDBRANCH  10  12
ENDBRANCH   2  10
TORSDOF 3
ENDMDL
MODEL      123
REMARK 921   NORMALIZED FREE ENERGY PREDICTED BY IDOCK:   -4.38 KCAL/MOL
REMARK 922        TOTAL FREE ENERGY PREDICTED BY IDOCK:   -5.49 KCAL/MOL
REMARK 923 INTER-LIGAND FREE ENERGY PREDICTED BY IDOCK:   -4.79 KCAL/MOL
REMARK 924 INTRA-LIGAND FREE ENERGY PREDICTED BY IDOCK:   -0.70 KCAL/MOL
REMARK 927      BINDING AFFINITY PREDICTED BY RF-SCORE:    0.00 PKD
ROOT
HETATM    1  O   UNL     1     -13.002  12.603  65.402  1.00  0.00    -0.535 OA 
HETATM    2  C   UNL     1     -11.676  13.115  65.430  1.00  0.00    -0.350 C  
HETATM    3  H   UNL     1     -13.204  12.106  64.618  1.00  0.00     0.000 HD 
ENDROOT
BRANCH   2   4
HETATM    4  C   UNL     1     -10.657  12.024  65.147  1.00  0.00    -0.330 A  
HETATM    5  C   UNL     1      -8.767   9.992  64.680  1.00  0.00    -0.210 A  
HETATM    6  C   UNL     1     -10.262  11.156  66.180  1.00  0.00    -0.293 A  
HETATM    7  C   UNL     1     -10.093  11.845  63.875  1.00  0.00    -0.396 A  
HETATM    8  C   UNL     1      -9.158  10.833  63.642  1.00  0.00    -0.224 A  
HETATM    9  C   UNL     1      -9.317  10.153  65.948  1.00  0.00    -0.224 A  
ENDBRANCH   2   4
BRANCH   2  10
HETATM   10  C   UNL     1     -11.348  13.920  66.701  1.00  0.00    -0.331 C  
HETATM   11  O   UNL     1     -12.137  13.953  67.649  1.00  0.00    -0.377 OA 
BRANCH  10  12
HETATM   12  C   UNL     1     -10.072  14.688  66.807  1.00  0.00    -0.266 A  
HETATM   13  C   UNL     1      -9.894  15.790  65.958  1.00  0.00    -0.366 A  
HETATM   14  C   UNL     1      -7.713  16.199  66.913  1.00  0.00    -0.284 A  
HETATM   15  C   UNL     1      -8.716  16.539  66.008  1.00  0.00    -0.255 A  
HETATM   16  C   UNL     1      -7.891  15.120  67.776  1.00  0.00    -0.161 A  
HETATM   17  C   UNL     1      -9.068  14.371  67.728  1.00  0.00    -0.192 A  
ENDBRANCH  10  12
ENDBRANCH   2  10
TORSDOF 3
ENDMDL
MODEL      124
REMARK 921   NORMALIZED FREE ENERGY PREDICTED BY IDOCK:   -4.37 KCAL/MOL
REMARK 922        TOTAL FREE ENERGY PREDICTED BY IDOCK:   -5.47 KCAL/MOL
REMARK 923 INTER-LIGAND FREE ENERGY PREDICTED BY IDOCK:   -4.97 KCAL/MOL
REMARK 924 INTRA-LIGAND FREE ENERGY PREDICTED BY IDOCK:   -0.50 KCAL/MOL
REMARK 927      BINDING AFFINITY PREDICTED BY RF-SCORE:    0.00 PKD
ROOT
HETATM    1  O   UNL     1      -9.861   6.955  68.027  1.00  0.00    -0.135 OA 
HETATM    2  C   UNL     1     -10.489   8.221  68.177  1.00  0.00    -0.171 C  
HETATM    3  H   UNL     1     -10.045   6.531  67.198  1.00  0.00     0.000 HD 
ENDROOT
BRANCH   2   4
HETATM    4  C   UNL     1     -10.210   9.120  66.985  1.00  0.00    -0.333 A  
HETATM    5  C   UNL     1      -9.728  10.828  64.801  1.00  0.00    -0.338 A  
HETATM    6  C   UNL     1     -10.656  10.454  67.000  1.00  0.00    -0.305 A  
HETATM    7  C   UNL     1      -9.510   8.666  65.858  1.00  0.00    -0.243 A  
HETATM    8  C   UNL     1      -9.266   9.514  64.775  1.00  0.00    -0.267 A  
HETATM    9  C   UNL     1     -10.423  11.297  65.912  1.00  0.00    -0.314 A  
ENDBRANCH   2   4
BRANCH   2  10
HETATM   10  C   UNL     1     -10.192   8.907  69.523  1.00  0.00    -0.204 C  
HETATM   11  O   UNL     1      -9.030   9.098  69.892  1.00  0.00    -0.149 OA 
BRANCH  10  12
HETATM   12  C   UNL     1     -11.306   9.347  70.416  1.00  0.00    -0.295 A  
HETATM   13  C   UNL     1     -11.852   8.405  71.300  1.00  0.00    -0.327 A  
HETATM   14  C   UNL     1     -13.404  10.057  72.133  1.00  0.00    -0.469 A  
HETATM   15  C   UNL     1     -12.901   8.758  72.151  1.00  0.00    -0.456 A  
HETATM   16  C   UNL     1     -12.853  11.006  71.274  1.00  0.00    -0.528 A  
HETATM   17  C   UNL     1     -11.803  10.654  70.424  1.00  0.00    -0.441 A  
ENDBRANCH  10  12
ENDBRANCH   2  10
TORSDOF 3
ENDMDL
MODEL      125
REMARK 921   NORMALIZED FREE ENERGY PREDICTED BY IDOCK:   -4.36 KCAL/MOL
REMARK 922        TOTAL FREE ENERGY PREDICTED BY IDOCK:   -5.46 KCAL/MOL
REMARK 923 INTER-LIGAND FREE ENERGY PREDICTED BY IDOCK:   -4.78 KCAL/MOL
REMARK 924 INTRA-LIGAND FREE ENERGY PREDICTED BY IDOCK:   -0.68 KCAL/MOL
REMARK 927      BINDING AFFINITY PREDICTED BY RF-SCORE:    0.00 PKD
ROOT
HETATM    1  O   UNL     1      -7.797  12.621  66.647  1.00  0.00    -0.396 OA 
HETATM    2  C   UNL     1      -8.783  12.414  67.649  1.00  0.00    -0.178 C  
HETATM    3  H   UNL     1      -7.162  11.917  66.582  1.00  0.00     0.000 HD 
ENDROOT
BRANCH   2   4
HETATM    4  C   UNL     1      -9.434  11.048  67.510  1.00  0.00    -0.175 A  
HETATM    5  C   UNL     1     -10.659   8.523  67.308  1.00  0.00    -0.315 A  
HETATM    6  C   UNL     1     -10.265  10.567  68.536  1.00  0.00    -0.190 A  
HETATM    7  C   UNL     1      -9.239  10.243  66.379  1.00  0.00    -0.186 A  
HETATM    8  C   UNL     1      -9.851   8.991  66.275  1.00  0.00    -0.361 A  
HETATM    9  C   UNL     1     -10.866   9.309  68.438  1.00  0.00    -0.125 A  
ENDBRANCH   2   4
BRANCH   2  10
HETATM   10  C   UNL     1      -9.810  13.555  67.755  1.00  0.00    -0.233 C  
HETATM   11  O   UNL     1      -9.934  14.198  68.802  1.00  0.00    -0.228 OA 
BRANCH  10  12
HETATM   12  C   UNL     1     -10.688  13.900  66.597  1.00  0.00    -0.281 A  
HETATM   13  C   UNL     1     -11.892  13.197  66.451  1.00  0.00    -0.455 A  
HETATM   14  C   UNL     1     -12.409  14.458  64.457  1.00  0.00    -0.440 A  
HETATM   15  C   UNL     1     -12.746  13.472  65.381  1.00  0.00    -0.495 A  
HETATM   16  C   UNL     1     -11.226  15.178  64.607  1.00  0.00    -0.352 A  
HETATM   17  C   UNL     1     -10.371  14.905  65.677  1.00  0.00    -0.370 A  
ENDBRANCH  10  12
ENDBRANCH   2  10
TORSDOF 3
ENDMDL
MODEL      126
REMARK 921   NORMALIZED FREE ENERGY PREDICTED BY IDOCK:   -4.36 KCAL/MOL
REMARK 922        TOTAL FREE ENERGY PREDICTED BY IDOCK:   -5.46 KCAL/MOL
REMARK 923 INTER-LIGAND FREE ENERGY PREDICTED BY IDOCK:   -4.75 KCAL/MOL
REMARK 924 INTRA-LIGAND FREE ENERGY PREDICTED BY IDOCK:   -0.71 KCAL/MOL
REMARK 927      BINDING AFFINITY PREDICTED BY RF-SCORE:    0.00 PKD
ROOT
HETATM    1  O   UNL     1     -12.260  10.782  68.570  1.00  0.00    -0.824 OA 
HETATM    2  C   UNL     1     -11.040  10.992  67.871  1.00  0.00    -0.288 C  
HETATM    3  H   UNL     1     -12.549  11.535  69.071  1.00  0.00     0.000 HD 
ENDROOT
BRANCH   2   4
HETATM    4  C   UNL     1     -11.091  12.264  67.042  1.00  0.00    -0.339 A  
HETATM    5  C   UNL     1     -11.136  14.641  65.535  1.00  0.00    -0.345 A  
HETATM    6  C   UNL     1     -10.040  13.195  67.132  1.00  0.00    -0.242 A  
HETATM    7  C   UNL     1     -12.156  12.546  66.175  1.00  0.00    -0.357 A  
HETATM    8  C   UNL     1     -12.177  13.723  65.423  1.00  0.00    -0.465 A  
HETATM    9  C   UNL     1     -10.069  14.378  66.390  1.00  0.00    -0.294 A  
ENDBRANCH   2   4
BRANCH   2  10
HETATM   10  C   UNL     1     -10.571   9.771  67.059  1.00  0.00    -0.199 C  
HETATM   11  O   UNL     1     -11.013   8.644  67.300  1.00  0.00    -0.114 OA 
BRANCH  10  12
HETATM   12  C   UNL     1      -9.560   9.923  65.970  1.00  0.00    -0.284 A  
HETATM   13  C   UNL     1      -8.207   9.754  66.299  1.00  0.00    -0.116 A  
HETATM   14  C   UNL     1      -7.576  10.192  64.009  1.00  0.00    -0.128 A  
HETATM   15  C   UNL     1      -7.219   9.894  65.323  1.00  0.00    -0.131 A  
HETATM   16  C   UNL     1      -8.918  10.339  63.669  1.00  0.00    -0.259 A  
HETATM   17  C   UNL     1      -9.907  10.198  64.644  1.00  0.00    -0.361 A  
ENDBRANCH  10  12
ENDBRANCH   2  10
TORSDOF 3
ENDMDL
MODEL      127
REMARK 921   NORMALIZED FREE ENERGY PREDICTED BY IDOCK:   -4.35 KCAL/MOL
REMARK 922        TOTAL FREE ENERGY PREDICTED BY IDOCK:   -5.45 KCAL/MOL
REMARK 923 INTER-LIGAND FREE ENERGY PREDICTED BY IDOCK:   -4.91 KCAL/MOL
REMARK 924 INTRA-LIGAND FREE ENERGY PREDICTED BY IDOCK:   -0.54 KCAL/MOL
REMARK 927      BINDING AFFINITY PREDICTED BY RF-SCORE:    0.00 PKD
ROOT
HETATM    1  O   UNL     1     -11.655   6.518  68.231  1.00  0.00    -0.540 OA 
HETATM    2  C   UNL     1     -10.450   6.479  68.983  1.00  0.00    -0.216 C  
HETATM    3  H   UNL     1     -12.124   5.693  68.215  1.00  0.00     0.000 HD 
ENDROOT
BRANCH   2   4
HETATM    4  C   UNL     1     -10.685   5.912  70.373  1.00  0.00    -0.373 A  
HETATM    5  C   UNL     1     -11.162   4.904  72.957  1.00  0.00    -0.367 A  
HETATM    6  C   UNL     1     -11.725   6.427  71.167  1.00  0.00    -0.359 A  
HETATM    7  C   UNL     1      -9.899   4.876  70.897  1.00  0.00    -0.277 A  
HETATM    8  C   UNL     1     -10.138   4.372  72.178  1.00  0.00    -0.262 A  
HETATM    9  C   UNL     1     -11.954   5.932  72.453  1.00  0.00    -0.206 A  
ENDBRANCH   2   4
BRANCH   2  10
HETATM   10  C   UNL     1      -9.689   7.817  69.008  1.00  0.00    -0.157 C  
HETATM   11  O   UNL     1      -8.456   7.842  69.066  1.00  0.00    -0.130 OA 
BRANCH  10  12
HETATM   12  C   UNL     1     -10.428   9.115  68.974  1.00  0.00    -0.238 A  
HETATM   13  C   UNL     1     -10.759   9.716  70.198  1.00  0.00    -0.321 A  
HETATM   14  C   UNL     1     -11.821  11.546  69.033  1.00  0.00    -0.408 A  
HETATM   15  C   UNL     1     -11.457  10.925  70.226  1.00  0.00    -0.391 A  
HETATM   16  C   UNL     1     -11.476  10.968  67.813  1.00  0.00    -0.339 A  
HETATM   17  C   UNL     1     -10.776   9.760  67.784  1.00  0.00    -0.329 A  
ENDBRANCH  10  12
ENDBRANCH   2  10
TORSDOF 3
ENDMDL
MODEL      128
REMARK 921   NORMALIZED FREE ENERGY PREDICTED BY IDOCK:   -4.35 KCAL/MOL
REMARK 922        TOTAL FREE ENERGY PREDICTED BY IDOCK:   -5.45 KCAL/MOL
REMARK 923 INTER-LIGAND FREE ENERGY PREDICTED BY IDOCK:   -5.29 KCAL/MOL
REMARK 924 INTRA-LIGAND FREE ENERGY PREDICTED BY IDOCK:   -0.15 KCAL/MOL
REMARK 927      BINDING AFFINITY PREDICTED BY RF-SCORE:    0.00 PKD
ROOT
HETATM    1  O   UNL     1     -10.186  12.432  68.054  1.00  0.00    -0.206 OA 
HETATM    2  C   UNL     1     -10.890  12.684  69.262  1.00  0.00     0.009 C  
HETATM    3  H   UNL     1      -9.507  11.773  68.136  1.00  0.00     0.000 HD 
ENDROOT
BRANCH   2   4
HETATM    4  C   UNL     1     -11.396  11.394  69.885  1.00  0.00    -0.300 A  
HETATM    5  C   UNL     1     -12.367   9.037  71.077  1.00  0.00    -0.244 A  
HETATM    6  C   UNL     1     -12.420  11.442  70.849  1.00  0.00    -0.478 A  
HETATM    7  C   UNL     1     -10.879  10.141  69.526  1.00  0.00    -0.289 A  
HETATM    8  C   UNL     1     -11.364   8.970  70.114  1.00  0.00    -0.139 A  
HETATM    9  C   UNL     1     -12.894  10.272  71.446  1.00  0.00    -0.544 A  
ENDBRANCH   2   4
BRANCH   2  10
HETATM   10  C   UNL     1     -11.990  13.753  69.130  1.00  0.00    -0.361 C  
HETATM   11  O   UNL     1     -12.526  13.977  68.041  1.00  0.00    -0.110 OA 
BRANCH  10  12
HETATM   12  C   UNL     1     -12.425  14.550  70.316  1.00  0.00    -0.405 A  
HETATM   13  C   UNL     1     -11.488  15.408  70.911  1.00  0.00    -0.396 A  
HETATM   14  C   UNL     1     -13.126  16.089  72.551  1.00  0.00    -0.437 A  
HETATM   15  C   UNL     1     -11.837  16.170  72.028  1.00  0.00    -0.615 A  
HETATM   16  C   UNL     1     -14.069  15.257  71.952  1.00  0.00    -0.656 A  
HETATM   17  C   UNL     1     -13.722  14.495  70.835  1.00  0.00    -0.123 A  
ENDBRANCH  10  12
ENDBRANCH   2  10
TORSDOF 3
ENDMDL
MODEL      129
REMARK 921   NORMALIZED FREE ENERGY PREDICTED BY IDOCK:   -4.33 KCAL/MOL
REMARK 922        TOTAL FREE ENERGY PREDICTED BY IDOCK:   -5.43 KCAL/MOL
REMARK 923 INTER-LIGAND FREE ENERGY PREDICTED BY IDOCK:   -4.70 KCAL/MOL
REMARK 924 INTRA-LIGAND FREE ENERGY PREDICTED BY IDOCK:   -0.74 KCAL/MOL
REMARK 927      BINDING AFFINITY PREDICTED BY RF-SCORE:    0.00 PKD
ROOT
HETATM    1  O   UNL     1      -8.826   4.767  70.581  1.00  0.00    -0.107 OA 
HETATM    2  C   UNL     1     -10.092   5.406  70.480  1.00  0.00    -0.236 C  
HETATM    3  H   UNL     1      -8.552   4.330  69.783  1.00  0.00     0.000 HD 
ENDROOT
BRANCH   2   4
HETATM    4  C   UNL     1     -10.159   6.310  69.262  1.00  0.00    -0.213 A  
HETATM    5  C   UNL     1     -10.243   8.023  67.030  1.00  0.00    -0.374 A  
HETATM    6  C   UNL     1      -9.268   7.393  69.150  1.00  0.00    -0.147 A  
HETATM    7  C   UNL     1     -11.083   6.100  68.229  1.00  0.00    -0.336 A  
HETATM    8  C   UNL     1     -11.122   6.947  67.118  1.00  0.00    -0.362 A  
HETATM    9  C   UNL     1      -9.317   8.247  68.045  1.00  0.00    -0.141 A  
ENDBRANCH   2   4
BRANCH   2  10
HETATM   10  C   UNL     1     -10.534   6.115  71.773  1.00  0.00    -0.216 C  
HETATM   11  O   UNL     1     -10.047   5.803  72.864  1.00  0.00    -0.177 OA 
BRANCH  10  12
HETATM   12  C   UNL     1     -11.572   7.188  71.736  1.00  0.00    -0.314 A  
HETATM   13  C   UNL     1     -12.914   6.802  71.605  1.00  0.00    -0.292 A  
HETATM   14  C   UNL     1     -13.604   9.117  71.647  1.00  0.00    -0.451 A  
HETATM   15  C   UNL     1     -13.925   7.764  71.556  1.00  0.00    -0.468 A  
HETATM   16  C   UNL     1     -12.276   9.508  71.800  1.00  0.00    -0.465 A  
HETATM   17  C   UNL     1     -11.264   8.547  71.851  1.00  0.00    -0.397 A  
ENDBRANCH  10  12
ENDBRANCH   2  10
TORSDOF 3
ENDMDL
MODEL      130
REMARK 921   NORMALIZED FREE ENERGY PREDICTED BY IDOCK:   -4.31 KCAL/MOL
REMARK 922        TOTAL FREE ENERGY PREDICTED BY IDOCK:   -5.41 KCAL/MOL
REMARK 923 INTER-LIGAND FREE ENERGY PREDICTED BY IDOCK:   -4.85 KCAL/MOL
REMARK 924 INTRA-LIGAND FREE ENERGY PREDICTED BY IDOCK:   -0.56 KCAL/MOL
REMARK 927      BINDING AFFINITY PREDICTED BY RF-SCORE:    0.00 PKD
ROOT
HETATM    1  O   UNL     1     -11.813  15.555  67.604  1.00  0.00    -0.240 OA 
HETATM    2  C   UNL     1     -10.476  15.969  67.850  1.00  0.00    -0.292 C  
HETATM    3  H   UNL     1     -12.464  16.065  68.070  1.00  0.00     0.000 HD 
ENDROOT
BRANCH   2   4
HETATM    4  C   UNL     1     -10.313  17.464  67.637  1.00  0.00    -0.355 A  
HETATM    5  C   UNL     1     -10.015  20.243  67.304  1.00  0.00    -0.580 A  
HETATM    6  C   UNL     1     -10.157  18.311  68.749  1.00  0.00    -0.393 A  
HETATM    7  C   UNL     1     -10.306  18.038  66.358  1.00  0.00    -0.382 A  
HETATM    8  C   UNL     1     -10.154  19.417  66.191  1.00  0.00    -0.533 A  
HETATM    9  C   UNL     1     -10.018  19.691  68.582  1.00  0.00    -0.553 A  
ENDBRANCH   2   4
BRANCH   2  10
HETATM   10  C   UNL     1      -9.420  15.142  67.094  1.00  0.00    -0.216 C  
HETATM   11  O   UNL     1      -9.753  14.357  66.201  1.00  0.00    -0.297 OA 
BRANCH  10  12
HETATM   12  C   UNL     1      -7.971  15.264  67.434  1.00  0.00    -0.211 A  
HETATM   13  C   UNL     1      -7.365  14.203  68.122  1.00  0.00    -0.130 A  
HETATM   14  C   UNL     1      -5.259  15.387  68.130  1.00  0.00    -0.124 A  
HETATM   15  C   UNL     1      -6.014  14.268  68.473  1.00  0.00    -0.093 A  
HETATM   16  C   UNL     1      -5.847  16.435  67.426  1.00  0.00    -0.189 A  
HETATM   17  C   UNL     1      -7.196  16.371  67.073  1.00  0.00    -0.257 A  
ENDBRANCH  10  12
ENDBRANCH   2  10
TORSDOF 3
ENDMDL
MODEL      131
REMARK 921   NORMALIZED FREE ENERGY PREDICTED BY IDOCK:   -4.31 KCAL/MOL
REMARK 922        TOTAL FREE ENERGY PREDICTED BY IDOCK:   -5.41 KCAL/MOL
REMARK 923 INTER-LIGAND FREE ENERGY PREDICTED BY IDOCK:   -5.09 KCAL/MOL
REMARK 924 INTRA-LIGAND FREE ENERGY PREDICTED BY IDOCK:   -0.32 KCAL/MOL
REMARK 927      BINDING AFFINITY PREDICTED BY RF-SCORE:    0.00 PKD
ROOT
HETATM    1  O   UNL     1      -9.616  10.057  69.041  1.00  0.00    -0.176 OA 
HETATM    2  C   UNL     1     -10.542  10.164  70.114  1.00  0.00    -0.281 C  
HETATM    3  H   UNL     1      -8.823   9.583  69.265  1.00  0.00     0.000 HD 
ENDROOT
BRANCH   2   4
HETATM    4  C   UNL     1     -10.825   8.808  70.737  1.00  0.00    -0.282 A  
HETATM    5  C   UNL     1     -11.356   6.272  71.836  1.00  0.00    -0.348 A  
HETATM    6  C   UNL     1     -10.912   7.670  69.915  1.00  0.00    -0.208 A  
HETATM    7  C   UNL     1     -11.000   8.645  72.118  1.00  0.00    -0.434 A  
HETATM    8  C   UNL     1     -11.258   7.386  72.665  1.00  0.00    -0.379 A  
HETATM    9  C   UNL     1     -11.184   6.413  70.461  1.00  0.00    -0.414 A  
ENDBRANCH   2   4
BRANCH   2  10
HETATM   10  C   UNL     1     -11.826  10.933  69.752  1.00  0.00    -0.345 C  
HETATM   11  O   UNL     1     -12.905  10.345  69.645  1.00  0.00    -0.078 OA 
BRANCH  10  12
HETATM   12  C   UNL     1     -11.789  12.406  69.510  1.00  0.00    -0.368 A  
HETATM   13  C   UNL     1     -12.049  13.258  70.594  1.00  0.00    -0.361 A  
HETATM   14  C   UNL     1     -11.754  15.188  69.172  1.00  0.00    -0.349 A  
HETATM   15  C   UNL     1     -12.037  14.644  70.423  1.00  0.00    -0.383 A  
HETATM   16  C   UNL     1     -11.472  14.351  68.095  1.00  0.00    -0.337 A  
HETATM   17  C   UNL     1     -11.483  12.965  68.265  1.00  0.00    -0.348 A  
ENDBRANCH  10  12
ENDBRANCH   2  10
TORSDOF 3
ENDMDL
MODEL      132
REMARK 921   NORMALIZED FREE ENERGY PREDICTED BY IDOCK:   -4.26 KCAL/MOL
REMARK 922        TOTAL FREE ENERGY PREDICTED BY IDOCK:   -5.34 KCAL/MOL
REMARK 923 INTER-LIGAND FREE ENERGY PREDICTED BY IDOCK:   -4.88 KCAL/MOL
REMARK 924 INTRA-LIGAND FREE ENERGY PREDICTED BY IDOCK:   -0.47 KCAL/MOL
REMARK 927      BINDING AFFINITY PREDICTED BY RF-SCORE:    0.00 PKD
ROOT
HETATM    1  O   UNL     1      -8.900  11.569  65.900  1.00  0.00    -0.298 OA 
HETATM    2  C   UNL     1      -9.729  11.432  67.046  1.00  0.00    -0.190 C  
HETATM    3  H   UNL     1      -8.102  11.056  65.941  1.00  0.00     0.000 HD 
ENDROOT
BRANCH   2   4
HETATM    4  C   UNL     1      -9.987   9.970  67.369  1.00  0.00    -0.242 A  
HETATM    5  C   UNL     1     -10.467   7.277  68.026  1.00  0.00    -0.249 A  
HETATM    6  C   UNL     1     -10.303   9.595  68.687  1.00  0.00    -0.226 A  
HETATM    7  C   UNL     1      -9.928   8.970  66.389  1.00  0.00    -0.370 A  
HETATM    8  C   UNL     1     -10.171   7.633  66.713  1.00  0.00    -0.333 A  
HETATM    9  C   UNL     1     -10.532   8.256  69.013  1.00  0.00    -0.212 A  
ENDBRANCH   2   4
BRANCH   2  10
HETATM   10  C   UNL     1     -11.022  12.265  66.980  1.00  0.00    -0.268 C  
HETATM   11  O   UNL     1     -12.006  11.855  66.358  1.00  0.00    -0.572 OA 
BRANCH  10  12
HETATM   12  C   UNL     1     -11.109  13.592  67.660  1.00  0.00    -0.290 A  
HETATM   13  C   UNL     1     -11.390  13.611  69.034  1.00  0.00    -0.333 A  
HETATM   14  C   UNL     1     -11.304  16.025  69.037  1.00  0.00    -0.363 A  
HETATM   15  C   UNL     1     -11.492  14.824  69.718  1.00  0.00    -0.330 A  
HETATM   16  C   UNL     1     -11.002  16.015  67.678  1.00  0.00    -0.284 A  
HETATM   17  C   UNL     1     -10.898  14.803  66.993  1.00  0.00    -0.315 A  
ENDBRANCH  10  12
ENDBRANCH   2  10
TORSDOF 3
ENDMDL
MODEL      133
REMARK 921   NORMALIZED FREE ENERGY PREDICTED BY IDOCK:   -4.23 KCAL/MOL
REMARK 922        TOTAL FREE ENERGY PREDICTED BY IDOCK:   -5.31 KCAL/MOL
REMARK 923 INTER-LIGAND FREE ENERGY PREDICTED BY IDOCK:   -4.86 KCAL/MOL
REMARK 924 INTRA-LIGAND FREE ENERGY PREDICTED BY IDOCK:   -0.45 KCAL/MOL
REMARK 927      BINDING AFFINITY PREDICTED BY RF-SCORE:    0.00 PKD
ROOT
HETATM    1  O   UNL     1     -11.768  10.523  67.461  1.00  0.00    -0.567 OA 
HETATM    2  C   UNL     1     -11.612  10.784  68.849  1.00  0.00    -0.291 C  
HETATM    3  H   UNL     1     -12.458  11.030  67.050  1.00  0.00     0.000 HD 
ENDROOT
BRANCH   2   4
HETATM    4  C   UNL     1     -11.488  12.274  69.120  1.00  0.00    -0.352 A  
HETATM    5  C   UNL     1     -11.214  15.037  69.582  1.00  0.00    -0.296 A  
HETATM    6  C   UNL     1     -10.651  13.061  68.309  1.00  0.00    -0.260 A  
HETATM    7  C   UNL     1     -12.191  12.903  70.158  1.00  0.00    -0.336 A  
HETATM    8  C   UNL     1     -12.059  14.275  70.385  1.00  0.00    -0.409 A  
HETATM    9  C   UNL     1     -10.509  14.430  68.545  1.00  0.00    -0.254 A  
ENDBRANCH   2   4
BRANCH   2  10
HETATM   10  C   UNL     1     -10.493   9.963  69.515  1.00  0.00    -0.241 C  
HETATM   11  O   UNL     1      -9.331  10.028  69.104  1.00  0.00    -0.171 OA 
BRANCH  10  12
HETATM   12  C   UNL     1     -10.794   9.060  70.666  1.00  0.00    -0.295 A  
HETATM   13  C   UNL     1     -12.045   8.426  70.697  1.00  0.00     0.035 A  
HETATM   14  C   UNL     1     -11.468   7.349  72.781  1.00  0.00    -0.312 A  
HETATM   15  C   UNL     1     -12.382   7.578  71.754  1.00  0.00    -0.357 A  
HETATM   16  C   UNL     1     -10.215   7.956  72.747  1.00  0.00    -0.380 A  
HETATM   17  C   UNL     1      -9.876   8.802  71.689  1.00  0.00    -0.378 A  
ENDBRANCH  10  12
ENDBRANCH   2  10
TORSDOF 3
ENDMDL
MODEL      134
REMARK 921   NORMALIZED FREE ENERGY PREDICTED BY IDOCK:   -4.22 KCAL/MOL
REMARK 922        TOTAL FREE ENERGY PREDICTED BY IDOCK:   -5.30 KCAL/MOL
REMARK 923 INTER-LIGAND FREE ENERGY PREDICTED BY IDOCK:   -4.88 KCAL/MOL
REMARK 924 INTRA-LIGAND FREE ENERGY PREDICTED BY IDOCK:   -0.42 KCAL/MOL
REMARK 927      BINDING AFFINITY PREDICTED BY RF-SCORE:    0.00 PKD
ROOT
HETATM    1  O   UNL     1     -12.224  12.263  67.047  1.00  0.00    -0.522 OA 
HETATM    2  C   UNL     1     -11.058  13.074  67.106  1.00  0.00    -0.273 C  
HETATM    3  H   UNL     1     -12.076  11.406  66.665  1.00  0.00     0.000 HD 
ENDROOT
BRANCH   2   4
HETATM    4  C   UNL     1      -9.903  12.332  67.757  1.00  0.00    -0.201 A  
HETATM    5  C   UNL     1      -7.802  10.917  68.984  1.00  0.00    -0.138 A  
HETATM    6  C   UNL     1     -10.130  11.081  68.358  1.00  0.00    -0.194 A  
HETATM    7  C   UNL     1      -8.600  12.851  67.776  1.00  0.00    -0.185 A  
HETATM    8  C   UNL     1      -7.556  12.147  68.380  1.00  0.00    -0.128 A  
HETATM    9  C   UNL     1      -9.088  10.384  68.974  1.00  0.00    -0.193 A  
ENDBRANCH   2   4
BRANCH   2  10
HETATM   10  C   UNL     1     -11.297  14.463  67.725  1.00  0.00    -0.312 C  
HETATM   11  O   UNL     1     -11.227  15.483  67.034  1.00  0.00    -0.285 OA 
BRANCH  10  12
HETATM   12  C   UNL     1     -11.607  14.606  69.179  1.00  0.00    -0.331 A  
HETATM   13  C   UNL     1     -11.361  15.846  69.786  1.00  0.00    -0.347 A  
HETATM   14  C   UNL     1     -12.145  14.987  71.903  1.00  0.00    -0.443 A  
HETATM   15  C   UNL     1     -11.624  16.033  71.145  1.00  0.00    -0.492 A  
HETATM   16  C   UNL     1     -12.415  13.759  71.303  1.00  0.00    -0.428 A  
HETATM   17  C   UNL     1     -12.153  13.571  69.945  1.00  0.00    -0.408 A  
ENDBRANCH  10  12
ENDBRANCH   2  10
TORSDOF 3
ENDMDL
MODEL      135
REMARK 921   NORMALIZED FREE ENERGY PREDICTED BY IDOCK:   -4.20 KCAL/MOL
REMARK 922        TOTAL FREE ENERGY PREDICTED BY IDOCK:   -5.27 KCAL/MOL
REMARK 923 INTER-LIGAND FREE ENERGY PREDICTED BY IDOCK:   -4.71 KCAL/MOL
REMARK 924 INTRA-LIGAND FREE ENERGY PREDICTED BY IDOCK:   -0.56 KCAL/MOL
REMARK 927      BINDING AFFINITY PREDICTED BY RF-SCORE:    0.00 PKD
ROOT
HETATM    1  O   UNL     1      -9.666   9.731  63.052  1.00  0.00    -0.531 OA 
HETATM    2  C   UNL     1      -9.600  10.668  64.118  1.00  0.00    -0.300 C  
HETATM    3  H   UNL     1      -8.915   9.153  63.002  1.00  0.00     0.000 HD 
ENDROOT
BRANCH   2   4
HETATM    4  C   UNL     1      -9.300   9.980  65.439  1.00  0.00    -0.284 A  
HETATM    5  C   UNL     1      -8.685   8.713  67.876  1.00  0.00    -0.137 A  
HETATM    6  C   UNL     1      -7.977   9.935  65.915  1.00  0.00    -0.115 A  
HETATM    7  C   UNL     1     -10.306   9.387  66.215  1.00  0.00    -0.211 A  
HETATM    8  C   UNL     1     -10.002   8.762  67.427  1.00  0.00    -0.267 A  
HETATM    9  C   UNL     1      -7.672   9.298  67.120  1.00  0.00    -0.095 A  
ENDBRANCH   2   4
BRANCH   2  10
HETATM   10  C   UNL     1     -10.818  11.606  64.199  1.00  0.00    -0.372 C  
HETATM   11  O   UNL     1     -11.757  11.492  63.406  1.00  0.00    -0.355 OA 
BRANCH  10  12
HETATM   12  C   UNL     1     -10.883  12.683  65.232  1.00  0.00    -0.319 A  
HETATM   13  C   UNL     1     -12.146  13.056  65.715  1.00  0.00    -0.510 A  
HETATM   14  C   UNL     1     -11.127  14.696  67.166  1.00  0.00    -0.328 A  
HETATM   15  C   UNL     1     -12.267  14.063  66.675  1.00  0.00    -0.463 A  
HETATM   16  C   UNL     1      -9.868  14.316  66.709  1.00  0.00    -0.274 A  
HETATM   17  C   UNL     1      -9.745  13.308  65.751  1.00  0.00    -0.149 A  
ENDBRANCH  10  12
ENDBRANCH   2  10
TORSDOF 3
ENDMDL
MODEL      136
REMARK 921   NORMALIZED FREE ENERGY PREDICTED BY IDOCK:   -4.18 KCAL/MOL
REMARK 922        TOTAL FREE ENERGY PREDICTED BY IDOCK:   -5.25 KCAL/MOL
REMARK 923 INTER-LIGAND FREE ENERGY PREDICTED BY IDOCK:   -4.44 KCAL/MOL
REMARK 924 INTRA-LIGAND FREE ENERGY PREDICTED BY IDOCK:   -0.82 KCAL/MOL
REMARK 927      BINDING AFFINITY PREDICTED BY RF-SCORE:    0.00 PKD
ROOT
HETATM    1  O   UNL     1     -11.339  14.321  70.549  1.00  0.00    -0.485 OA 
HETATM    2  C   UNL     1     -11.548  14.814  69.232  1.00  0.00    -0.303 C  
HETATM    3  H   UNL     1     -11.911  13.600  70.784  1.00  0.00     0.000 HD 
ENDROOT
BRANCH   2   4
HETATM    4  C   UNL     1     -11.524  13.689  68.211  1.00  0.00    -0.348 A  
HETATM    5  C   UNL     1     -11.516  11.638  66.285  1.00  0.00    -0.217 A  
HETATM    6  C   UNL     1     -12.102  13.887  66.945  1.00  0.00    -0.467 A  
HETATM    7  C   UNL     1     -10.935  12.446  68.487  1.00  0.00    -0.277 A  
HETATM    8  C   UNL     1     -10.926  11.429  67.529  1.00  0.00    -0.312 A  
HETATM    9  C   UNL     1     -12.104  12.865  65.993  1.00  0.00    -0.484 A  
ENDBRANCH   2   4
BRANCH   2  10
HETATM   10  C   UNL     1     -10.621  15.982  68.852  1.00  0.00    -0.257 C  
HETATM   11  O   UNL     1     -11.045  17.141  68.819  1.00  0.00    -0.205 OA 
BRANCH  10  12
HETATM   12  C   UNL     1      -9.189  15.737  68.502  1.00  0.00    -0.198 A  
HETATM   13  C   UNL     1      -8.774  16.016  67.192  1.00  0.00    -0.212 A  
HETATM   14  C   UNL     1      -6.529  15.307  67.733  1.00  0.00    -0.179 A  
HETATM   15  C   UNL     1      -7.449  15.796  66.808  1.00  0.00    -0.135 A  
HETATM   16  C   UNL     1      -6.927  15.048  69.042  1.00  0.00    -0.127 A  
HETATM   17  C   UNL     1      -8.251  15.268  69.428  1.00  0.00    -0.233 A  
ENDBRANCH  10  12
ENDBRANCH   2  10
TORSDOF 3
ENDMDL
MODEL      137
REMARK 921   NORMALIZED FREE ENERGY PREDICTED BY IDOCK:   -4.14 KCAL/MOL
REMARK 922        TOTAL FREE ENERGY PREDICTED BY IDOCK:   -5.21 KCAL/MOL
REMARK 923 INTER-LIGAND FREE ENERGY PREDICTED BY IDOCK:   -4.87 KCAL/MOL
REMARK 924 INTRA-LIGAND FREE ENERGY PREDICTED BY IDOCK:   -0.34 KCAL/MOL
REMARK 927      BINDING AFFINITY PREDICTED BY RF-SCORE:    0.00 PKD
ROOT
HETATM    1  O   UNL     1     -12.285  12.029  67.517  1.00  0.00    -0.490 OA 
HETATM    2  C   UNL     1     -11.359  10.951  67.553  1.00  0.00    -0.232 C  
HETATM    3  H   UNL     1     -13.135  11.817  67.883  1.00  0.00     0.000 HD 
ENDROOT
BRANCH   2   4
HETATM    4  C   UNL     1     -11.266  10.349  68.945  1.00  0.00    -0.290 A  
HETATM    5  C   UNL     1     -11.059   9.192  71.502  1.00  0.00    -0.436 A  
HETATM    6  C   UNL     1     -10.387   9.277  69.182  1.00  0.00    -0.222 A  
HETATM    7  C   UNL     1     -12.029  10.833  70.018  1.00  0.00    -0.427 A  
HETATM    8  C   UNL     1     -11.923  10.262  71.288  1.00  0.00    -0.457 A  
HETATM    9  C   UNL     1     -10.292   8.698  70.450  1.00  0.00    -0.225 A  
ENDBRANCH   2   4
BRANCH   2  10
HETATM   10  C   UNL     1      -9.981  11.294  66.960  1.00  0.00    -0.198 C  
HETATM   11  O   UNL     1      -9.115  11.841  67.648  1.00  0.00    -0.167 OA 
BRANCH  10  12
HETATM   12  C   UNL     1      -9.667  10.982  65.533  1.00  0.00    -0.274 A  
HETATM   13  C   UNL     1      -9.965  11.954  64.566  1.00  0.00    -0.255 A  
HETATM   14  C   UNL     1      -9.128  10.504  62.825  1.00  0.00    -0.299 A  
HETATM   15  C   UNL     1      -9.700  11.712  63.216  1.00  0.00    -0.390 A  
HETATM   16  C   UNL     1      -8.808   9.543  63.780  1.00  0.00    -0.238 A  
HETATM   17  C   UNL     1      -9.070   9.783  65.131  1.00  0.00    -0.270 A  
ENDBRANCH  10  12
ENDBRANCH   2  10
TORSDOF 3
ENDMDL
MODEL      138
REMARK 921   NORMALIZED FREE ENERGY PREDICTED BY IDOCK:   -4.13 KCAL/MOL
REMARK 922        TOTAL FREE ENERGY PREDICTED BY IDOCK:   -5.19 KCAL/MOL
REMARK 923 INTER-LIGAND FREE ENERGY PREDICTED BY IDOCK:   -4.65 KCAL/MOL
REMARK 924 INTRA-LIGAND FREE ENERGY PREDICTED BY IDOCK:   -0.54 KCAL/MOL
REMARK 927      BINDING AFFINITY PREDICTED BY RF-SCORE:    0.00 PKD
ROOT
HETATM    1  O   UNL     1      -8.025   7.349  70.420  1.00  0.00    -0.100 OA 
HETATM    2  C   UNL     1      -9.191   7.691  71.157  1.00  0.00    -0.147 C  
HETATM    3  H   UNL     1      -7.290   7.090  70.963  1.00  0.00     0.000 HD 
ENDROOT
BRANCH   2   4
HETATM    4  C   UNL     1      -9.553   6.604  72.154  1.00  0.00    -0.149 A  
HETATM    5  C   UNL     1     -10.203   4.624  74.044  1.00  0.00    -0.256 A  
HETATM    6  C   UNL     1      -9.443   6.859  73.532  1.00  0.00    -0.207 A  
HETATM    7  C   UNL     1     -10.005   5.341  71.745  1.00  0.00    -0.245 A  
HETATM    8  C   UNL     1     -10.333   4.359  72.684  1.00  0.00    -0.248 A  
HETATM    9  C   UNL     1      -9.757   5.872  74.469  1.00  0.00    -0.241 A  
ENDBRANCH   2   4
BRANCH   2  10
HETATM   10  C   UNL     1     -10.381   8.112  70.276  1.00  0.00    -0.209 C  
HETATM   11  O   UNL     1     -10.595   7.557  69.195  1.00  0.00    -0.219 OA 
BRANCH  10  12
HETATM   12  C   UNL     1     -11.296   9.211  70.707  1.00  0.00    -0.337 A  
HETATM   13  C   UNL     1     -12.285   8.911  71.655  1.00  0.00    -0.409 A  
HETATM   14  C   UNL     1     -13.074  11.193  71.583  1.00  0.00    -0.529 A  
HETATM   15  C   UNL     1     -13.174   9.898  72.086  1.00  0.00    -0.511 A  
HETATM   16  C   UNL     1     -12.081  11.506  70.658  1.00  0.00    -0.450 A  
HETATM   17  C   UNL     1     -11.190  10.521  70.227  1.00  0.00    -0.391 A  
ENDBRANCH  10  12
ENDBRANCH   2  10
TORSDOF 3
ENDMDL
MODEL      139
REMARK 921   NORMALIZED FREE ENERGY PREDICTED BY IDOCK:   -4.12 KCAL/MOL
REMARK 922        TOTAL FREE ENERGY PREDICTED BY IDOCK:   -5.19 KCAL/MOL
REMARK 923 INTER-LIGAND FREE ENERGY PREDICTED BY IDOCK:   -5.54 KCAL/MOL
REMARK 924 INTRA-LIGAND FREE ENERGY PREDICTED BY IDOCK:    0.36 KCAL/MOL
REMARK 927      BINDING AFFINITY PREDICTED BY RF-SCORE:    0.00 PKD
ROOT
HETATM    1  O   UNL     1      -9.977  13.738  69.051  1.00  0.00    -0.415 OA 
HETATM    2  C   UNL     1     -11.362  13.445  68.927  1.00  0.00    -0.287 C  
HETATM    3  H   UNL     1      -9.797  14.602  69.403  1.00  0.00     0.000 HD 
ENDROOT
BRANCH   2   4
HETATM    4  C   UNL     1     -12.101  13.714  70.227  1.00  0.00    -0.427 A  
HETATM    5  C   UNL     1     -13.472  14.153  72.645  1.00  0.00    -0.634 A  
HETATM    6  C   UNL     1     -12.360  12.652  71.112  1.00  0.00    -0.245 A  
HETATM    7  C   UNL     1     -12.534  14.999  70.585  1.00  0.00    -0.422 A  
HETATM    8  C   UNL     1     -13.210  15.218  71.788  1.00  0.00    -0.512 A  
HETATM    9  C   UNL     1     -13.049  12.870  72.308  1.00  0.00    -0.421 A  
ENDBRANCH   2   4
BRANCH   2  10
HETATM   10  C   UNL     1     -11.653  12.046  68.356  1.00  0.00    -0.311 C  
HETATM   11  O   UNL     1     -12.574  11.358  68.806  1.00  0.00    -0.257 OA 
BRANCH  10  12
HETATM   12  C   UNL     1     -10.818  11.485  67.251  1.00  0.00    -0.301 A  
HETATM   13  C   UNL     1     -10.986  12.017  65.965  1.00  0.00    -0.346 A  
HETATM   14  C   UNL     1      -9.311  10.505  65.101  1.00  0.00    -0.262 A  
HETATM   15  C   UNL     1     -10.238  11.525  64.893  1.00  0.00    -0.324 A  
HETATM   16  C   UNL     1      -9.122   9.987  66.380  1.00  0.00    -0.176 A  
HETATM   17  C   UNL     1      -9.868  10.479  67.453  1.00  0.00    -0.204 A  
ENDBRANCH  10  12
ENDBRANCH   2  10
TORSDOF 3
ENDMDL
MODEL      140
REMARK 921   NORMALIZED FREE ENERGY PREDICTED BY IDOCK:   -4.11 KCAL/MOL
REMARK 922        TOTAL FREE ENERGY PREDICTED BY IDOCK:   -5.17 KCAL/MOL
REMARK 923 INTER-LIGAND FREE ENERGY PREDICTED BY IDOCK:   -4.93 KCAL/MOL
REMARK 924 INTRA-LIGAND FREE ENERGY PREDICTED BY IDOCK:   -0.24 KCAL/MOL
REMARK 927      BINDING AFFINITY PREDICTED BY RF-SCORE:    0.00 PKD
ROOT
HETATM    1  O   UNL     1     -12.286  11.888  66.914  1.00  0.00    -0.493 OA 
HETATM    2  C   UNL     1     -11.225  12.327  67.751  1.00  0.00    -0.276 C  
HETATM    3  H   UNL     1     -12.148  11.026  66.541  1.00  0.00     0.000 HD 
ENDROOT
BRANCH   2   4
HETATM    4  C   UNL     1     -10.879  11.282  68.799  1.00  0.00    -0.252 A  
HETATM    5  C   UNL     1     -10.187   9.337  70.711  1.00  0.00    -0.353 A  
HETATM    6  C   UNL     1      -9.592  10.717  68.819  1.00  0.00    -0.190 A  
HETATM    7  C   UNL     1     -11.806  10.859  69.762  1.00  0.00    -0.419 A  
HETATM    8  C   UNL     1     -11.462   9.897  70.715  1.00  0.00    -0.433 A  
HETATM    9  C   UNL     1      -9.253   9.745  69.763  1.00  0.00    -0.248 A  
ENDBRANCH   2   4
BRANCH   2  10
HETATM   10  C   UNL     1     -11.447  13.725  68.356  1.00  0.00    -0.316 C  
HETATM   11  O   UNL     1     -12.263  13.897  69.266  1.00  0.00    -0.346 OA 
BRANCH  10  12
HETATM   12  C   UNL     1     -10.688  14.906  67.846  1.00  0.00    -0.265 A  
HETATM   13  C   UNL     1      -9.460  14.674  67.210  1.00  0.00    -0.221 A  
HETATM   14  C   UNL     1      -9.175  17.046  66.855  1.00  0.00    -0.254 A  
HETATM   15  C   UNL     1      -8.704  15.742  66.721  1.00  0.00    -0.305 A  
HETATM   16  C   UNL     1     -10.404  17.284  67.465  1.00  0.00    -0.346 A  
HETATM   17  C   UNL     1     -11.162  16.217  67.953  1.00  0.00    -0.213 A  
ENDBRANCH  10  12
ENDBRANCH   2  10
TORSDOF 3
ENDMDL
MODEL      141
REMARK 921   NORMALIZED FREE ENERGY PREDICTED BY IDOCK:   -4.06 KCAL/MOL
REMARK 922        TOTAL FREE ENERGY PREDICTED BY IDOCK:   -5.11 KCAL/MOL
REMARK 923 INTER-LIGAND FREE ENERGY PREDICTED BY IDOCK:   -4.99 KCAL/MOL
REMARK 924 INTRA-LIGAND FREE ENERGY PREDICTED BY IDOCK:   -0.13 KCAL/MOL
REMARK 927      BINDING AFFINITY PREDICTED BY RF-SCORE:    0.00 PKD
ROOT
HETATM    1  O   UNL     1     -12.207  14.398  67.590  1.00  0.00    -0.598 OA 
HETATM    2  C   UNL     1     -10.874  14.730  67.956  1.00  0.00    -0.260 C  
HETATM    3  H   UNL     1     -12.863  14.965  67.976  1.00  0.00     0.000 HD 
ENDROOT
BRANCH   2   4
HETATM    4  C   UNL     1     -10.588  16.203  67.722  1.00  0.00    -0.309 A  
HETATM    5  C   UNL     1     -10.055  18.941  67.349  1.00  0.00    -0.420 A  
HETATM    6  C   UNL     1     -10.249  17.027  68.810  1.00  0.00    -0.317 A  
HETATM    7  C   UNL     1     -10.643  16.779  66.445  1.00  0.00    -0.192 A  
HETATM    8  C   UNL     1     -10.374  18.137  66.258  1.00  0.00    -0.407 A  
HETATM    9  C   UNL     1      -9.994  18.388  68.625  1.00  0.00    -0.415 A  
ENDBRANCH   2   4
BRANCH   2  10
HETATM   10  C   UNL     1      -9.810  13.810  67.329  1.00  0.00    -0.241 C  
HETATM   11  O   UNL     1      -8.710  14.256  66.991  1.00  0.00    -0.214 OA 
BRANCH  10  12
HETATM   12  C   UNL     1     -10.092  12.360  67.107  1.00  0.00    -0.221 A  
HETATM   13  C   UNL     1     -10.670  11.633  68.158  1.00  0.00    -0.248 A  
HETATM   14  C   UNL     1     -10.657   9.632  66.806  1.00  0.00    -0.209 A  
HETATM   15  C   UNL     1     -10.947  10.273  68.008  1.00  0.00    -0.345 A  
HETATM   16  C   UNL     1     -10.104  10.351  65.749  1.00  0.00    -0.329 A  
HETATM   17  C   UNL     1      -9.828  11.712  65.897  1.00  0.00    -0.262 A  
ENDBRANCH  10  12
ENDBRANCH   2  10
TORSDOF 3
ENDMDL
MODEL      142
REMARK 921   NORMALIZED FREE ENERGY PREDICTED BY IDOCK:   -4.06 KCAL/MOL
REMARK 922        TOTAL FREE ENERGY PREDICTED BY IDOCK:   -5.11 KCAL/MOL
REMARK 923 INTER-LIGAND FREE ENERGY PREDICTED BY IDOCK:   -4.49 KCAL/MOL
REMARK 924 INTRA-LIGAND FREE ENERGY PREDICTED BY IDOCK:   -0.62 KCAL/MOL
REMARK 927      BINDING AFFINITY PREDICTED BY RF-SCORE:    0.00 PKD
ROOT
HETATM    1  O   UNL     1      -8.963  15.722  67.989  1.00  0.00    -0.177 OA 
HETATM    2  C   UNL     1      -9.620  14.637  67.348  1.00  0.00    -0.215 C  
HETATM    3  H   UNL     1      -8.708  15.541  68.885  1.00  0.00     0.000 HD 
ENDROOT
BRANCH   2   4
HETATM    4  C   UNL     1      -8.823  13.351  67.483  1.00  0.00    -0.210 A  
HETATM    5  C   UNL     1      -7.296  10.999  67.724  1.00  0.00    -0.093 A  
HETATM    6  C   UNL     1      -7.418  13.401  67.493  1.00  0.00    -0.170 A  
HETATM    7  C   UNL     1      -9.444  12.099  67.606  1.00  0.00    -0.187 A  
HETATM    8  C   UNL     1      -8.687  10.932  67.731  1.00  0.00    -0.129 A  
HETATM    9  C   UNL     1      -6.662  12.232  67.604  1.00  0.00    -0.126 A  
ENDBRANCH   2   4
BRANCH   2  10
HETATM   10  C   UNL     1     -10.033  14.931  65.894  1.00  0.00    -0.331 C  
HETATM   11  O   UNL     1      -9.670  15.968  65.332  1.00  0.00    -0.427 OA 
BRANCH  10  12
HETATM   12  C   UNL     1     -10.893  13.972  65.138  1.00  0.00    -0.376 A  
HETATM   13  C   UNL     1     -10.274  13.132  64.200  1.00  0.00    -0.189 A  
HETATM   14  C   UNL     1     -12.408  12.139  63.655  1.00  0.00    -0.673 A  
HETATM   15  C   UNL     1     -11.031  12.223  63.458  1.00  0.00    -0.521 A  
HETATM   16  C   UNL     1     -13.027  12.954  64.600  1.00  0.00    -0.204 A  
HETATM   17  C   UNL     1     -12.271  13.862  65.344  1.00  0.00    -0.463 A  
ENDBRANCH  10  12
ENDBRANCH   2  10
TORSDOF 3
ENDMDL
MODEL      143
REMARK 921   NORMALIZED FREE ENERGY PREDICTED BY IDOCK:   -4.05 KCAL/MOL
REMARK 922        TOTAL FREE ENERGY PREDICTED BY IDOCK:   -5.10 KCAL/MOL
REMARK 923 INTER-LIGAND FREE ENERGY PREDICTED BY IDOCK:   -4.25 KCAL/MOL
REMARK 924 INTRA-LIGAND FREE ENERGY PREDICTED BY IDOCK:   -0.85 KCAL/MOL
REMARK 927      BINDING AFFINITY PREDICTED BY RF-SCORE:    0.00 PKD
ROOT
HETATM    1  O   UNL     1     -12.483  12.487  66.129  1.00  0.00    -0.522 OA 
HETATM    2  C   UNL     1     -11.383  11.633  66.414  1.00  0.00    -0.245 C  
HETATM    3  H   UNL     1     -13.325  12.126  66.380  1.00  0.00     0.000 HD 
ENDROOT
BRANCH   2   4
HETATM    4  C   UNL     1     -11.411  11.160  67.857  1.00  0.00    -0.359 A  
HETATM    5  C   UNL     1     -11.441  10.231  70.513  1.00  0.00    -0.427 A  
HETATM    6  C   UNL     1     -10.812   9.935  68.199  1.00  0.00    -0.282 A  
HETATM    7  C   UNL     1     -12.015  11.912  68.875  1.00  0.00    -0.313 A  
HETATM    8  C   UNL     1     -12.026  11.454  70.195  1.00  0.00    -0.460 A  
HETATM    9  C   UNL     1     -10.835   9.471  69.517  1.00  0.00    -0.243 A  
ENDBRANCH   2   4
BRANCH   2  10
HETATM   10  C   UNL     1     -10.019  12.218  66.006  1.00  0.00    -0.252 C  
HETATM   11  O   UNL     1      -9.582  12.064  64.862  1.00  0.00    -0.155 OA 
BRANCH  10  12
HETATM   12  C   UNL     1      -9.190  12.976  66.991  1.00  0.00    -0.232 A  
HETATM   13  C   UNL     1      -8.069  12.336  67.537  1.00  0.00    -0.170 A  
HETATM   14  C   UNL     1      -7.566  14.298  68.853  1.00  0.00    -0.113 A  
HETATM   15  C   UNL     1      -7.263  12.993  68.469  1.00  0.00    -0.104 A  
HETATM   16  C   UNL     1      -8.665  14.950  68.299  1.00  0.00    -0.166 A  
HETATM   17  C   UNL     1      -9.470  14.294  67.365  1.00  0.00    -0.211 A  
ENDBRANCH  10  12
ENDBRANCH   2  10
TORSDOF 3
ENDMDL
MODEL      144
REMARK 921   NORMALIZED FREE ENERGY PREDICTED BY IDOCK:   -4.03 KCAL/MOL
REMARK 922        TOTAL FREE ENERGY PREDICTED BY IDOCK:   -5.08 KCAL/MOL
REMARK 923 INTER-LIGAND FREE ENERGY PREDICTED BY IDOCK:   -4.57 KCAL/MOL
REMARK 924 INTRA-LIGAND FREE ENERGY PREDICTED BY IDOCK:   -0.51 KCAL/MOL
REMARK 927      BINDING AFFINITY PREDICTED BY RF-SCORE:    0.00 PKD
ROOT
HETATM    1  O   UNL     1      -8.795  17.263  68.524  1.00  0.00    -0.257 OA 
HETATM    2  C   UNL     1      -9.391  16.208  69.267  1.00  0.00    -0.227 C  
HETATM    3  H   UNL     1      -7.846  17.270  68.561  1.00  0.00     0.000 HD 
ENDROOT
BRANCH   2   4
HETATM    4  C   UNL     1      -8.779  14.865  68.907  1.00  0.00    -0.180 A  
HETATM    5  C   UNL     1      -7.698  12.360  68.217  1.00  0.00    -0.140 A  
HETATM    6  C   UNL     1      -9.510  13.956  68.121  1.00  0.00    -0.207 A  
HETATM    7  C   UNL     1      -7.494  14.495  69.330  1.00  0.00    -0.102 A  
HETATM    8  C   UNL     1      -6.955  13.254  68.984  1.00  0.00    -0.075 A  
HETATM    9  C   UNL     1      -8.976  12.710  67.787  1.00  0.00    -0.189 A  
ENDBRANCH   2   4
BRANCH   2  10
HETATM   10  C   UNL     1     -10.929  16.197  69.206  1.00  0.00    -0.315 C  
HETATM   11  O   UNL     1     -11.524  16.584  68.196  1.00  0.00    -0.251 OA 
BRANCH  10  12
HETATM   12  C   UNL     1     -11.734  15.729  70.373  1.00  0.00    -0.390 A  
HETATM   13  C   UNL     1     -12.589  14.633  70.186  1.00  0.00    -0.333 A  
HETATM   14  C   UNL     1     -13.298  14.769  72.491  1.00  0.00    -0.529 A  
HETATM   15  C   UNL     1     -13.372  14.158  71.241  1.00  0.00    -0.370 A  
HETATM   16  C   UNL     1     -12.436  15.843  72.692  1.00  0.00    -0.571 A  
HETATM   17  C   UNL     1     -11.651  16.317  71.639  1.00  0.00    -0.436 A  
ENDBRANCH  10  12
ENDBRANCH   2  10
TORSDOF 3
ENDMDL
MODEL      145
REMARK 921   NORMALIZED FREE ENERGY PREDICTED BY IDOCK:   -3.97 KCAL/MOL
REMARK 922        TOTAL FREE ENERGY PREDICTED BY IDOCK:   -5.01 KCAL/MOL
REMARK 923 INTER-LIGAND FREE ENERGY PREDICTED BY IDOCK:   -4.65 KCAL/MOL
REMARK 924 INTRA-LIGAND FREE ENERGY PREDICTED BY IDOCK:   -0.36 KCAL/MOL
REMARK 927      BINDING AFFINITY PREDICTED BY RF-SCORE:    0.00 PKD
ROOT
HETATM    1  O   UNL     1     -12.262  12.039  66.854  1.00  0.00    -0.529 OA 
HETATM    2  C   UNL     1     -11.481  12.383  67.991  1.00  0.00    -0.322 C  
HETATM    3  H   UNL     1     -13.085  12.508  66.797  1.00  0.00     0.000 HD 
ENDROOT
BRANCH   2   4
HETATM    4  C   UNL     1     -11.308  13.888  68.106  1.00  0.00    -0.324 A  
HETATM    5  C   UNL     1     -11.011  16.673  68.375  1.00  0.00    -0.345 A  
HETATM    6  C   UNL     1     -11.556  14.524  69.336  1.00  0.00    -0.343 A  
HETATM    7  C   UNL     1     -10.900  14.676  67.020  1.00  0.00    -0.304 A  
HETATM    8  C   UNL     1     -10.747  16.058  67.154  1.00  0.00    -0.283 A  
HETATM    9  C   UNL     1     -11.416  15.908  69.465  1.00  0.00    -0.342 A  
ENDBRANCH   2   4
BRANCH   2  10
HETATM   10  C   UNL     1     -10.147  11.622  68.082  1.00  0.00    -0.196 C  
HETATM   11  O   UNL     1      -9.141  12.164  68.549  1.00  0.00    -0.172 OA 
BRANCH  10  12
HETATM   12  C   UNL     1     -10.038  10.213  67.597  1.00  0.00    -0.231 A  
HETATM   13  C   UNL     1      -9.362   9.984  66.390  1.00  0.00    -0.211 A  
HETATM   14  C   UNL     1      -9.780   7.612  66.585  1.00  0.00    -0.283 A  
HETATM   15  C   UNL     1      -9.238   8.688  65.884  1.00  0.00    -0.264 A  
HETATM   16  C   UNL     1     -10.433   7.829  67.796  1.00  0.00    -0.277 A  
HETATM   17  C   UNL     1     -10.556   9.124  68.304  1.00  0.00    -0.223 A  
ENDBRANCH  10  12
ENDBRANCH   2  10
TORSDOF 3
ENDMDL
MODEL      146
REMARK 921   NORMALIZED FREE ENERGY PREDICTED BY IDOCK:   -3.97 KCAL/MOL
REMARK 922        TOTAL FREE ENERGY PREDICTED BY IDOCK:   -5.00 KCAL/MOL
REMARK 923 INTER-LIGAND FREE ENERGY PREDICTED BY IDOCK:   -4.67 KCAL/MOL
REMARK 924 INTRA-LIGAND FREE ENERGY PREDICTED BY IDOCK:   -0.33 KCAL/MOL
REMARK 927      BINDING AFFINITY PREDICTED BY RF-SCORE:    0.00 PKD
ROOT
HETATM    1  O   UNL     1      -8.263  14.267  68.460  1.00  0.00    -0.139 OA 
HETATM    2  C   UNL     1      -9.632  14.237  68.081  1.00  0.00    -0.218 C  
HETATM    3  H   UNL     1      -7.993  15.085  68.861  1.00  0.00     0.000 HD 
ENDROOT
BRANCH   2   4
HETATM    4  C   UNL     1     -10.532  14.652  69.233  1.00  0.00    -0.218 A  
HETATM    5  C   UNL     1     -12.181  15.477  71.359  1.00  0.00    -0.453 A  
HETATM    6  C   UNL     1     -10.678  16.015  69.545  1.00  0.00    -0.298 A  
HETATM    7  C   UNL     1     -11.237  13.715  70.002  1.00  0.00     0.054 A  
HETATM    8  C   UNL     1     -12.059  14.124  71.054  1.00  0.00    -0.411 A  
HETATM    9  C   UNL     1     -11.490  16.422  70.606  1.00  0.00    -0.179 A  
ENDBRANCH   2   4
BRANCH   2  10
HETATM   10  C   UNL     1     -10.069  12.912  67.432  1.00  0.00    -0.223 C  
HETATM   11  O   UNL     1      -9.778  11.829  67.948  1.00  0.00    -0.175 OA 
BRANCH  10  12
HETATM   12  C   UNL     1     -10.844  12.908  66.155  1.00  0.00    -0.300 A  
HETATM   13  C   UNL     1     -10.356  12.137  65.091  1.00  0.00    -0.311 A  
HETATM   14  C   UNL     1     -12.212  12.832  63.710  1.00  0.00    -0.572 A  
HETATM   15  C   UNL     1     -11.035  12.104  63.871  1.00  0.00    -0.463 A  
HETATM   16  C   UNL     1     -12.717  13.582  64.770  1.00  0.00    -0.284 A  
HETATM   17  C   UNL     1     -12.039  13.615  65.990  1.00  0.00    -0.480 A  
ENDBRANCH  10  12
ENDBRANCH   2  10
TORSDOF 3
ENDMDL
MODEL      147
REMARK 921   NORMALIZED FREE ENERGY PREDICTED BY IDOCK:   -3.93 KCAL/MOL
REMARK 922        TOTAL FREE ENERGY PREDICTED BY IDOCK:   -4.96 KCAL/MOL
REMARK 923 INTER-LIGAND FREE ENERGY PREDICTED BY IDOCK:   -4.21 KCAL/MOL
REMARK 924 INTRA-LIGAND FREE ENERGY PREDICTED BY IDOCK:   -0.75 KCAL/MOL
REMARK 927      BINDING AFFINITY PREDICTED BY RF-SCORE:    0.00 PKD
ROOT
HETATM    1  O   UNL     1     -12.364  15.338  67.142  1.00  0.00    -0.038 OA 
HETATM    2  C   UNL     1     -11.771  14.085  66.828  1.00  0.00    -0.407 C  
HETATM    3  H   UNL     1     -13.252  15.270  67.472  1.00  0.00     0.000 HD 
ENDROOT
BRANCH   2   4
HETATM    4  C   UNL     1     -11.893  13.111  67.987  1.00  0.00    -0.398 A  
HETATM    5  C   UNL     1     -12.113  11.351  70.172  1.00  0.00    -0.439 A  
HETATM    6  C   UNL     1     -12.000  13.602  69.300  1.00  0.00    -0.384 A  
HETATM    7  C   UNL     1     -11.909  11.722  67.793  1.00  0.00    -0.266 A  
HETATM    8  C   UNL     1     -12.023  10.848  68.877  1.00  0.00    -0.277 A  
HETATM    9  C   UNL     1     -12.100  12.727  70.384  1.00  0.00    -0.382 A  
ENDBRANCH   2   4
BRANCH   2  10
HETATM   10  C   UNL     1     -10.332  14.196  66.292  1.00  0.00    -0.292 C  
HETATM   11  O   UNL     1     -10.117  14.546  65.128  1.00  0.00    -0.383 OA 
BRANCH  10  12
HETATM   12  C   UNL     1      -9.166  13.869  67.166  1.00  0.00    -0.242 A  
HETATM   13  C   UNL     1      -8.586  12.598  67.043  1.00  0.00    -0.181 A  
HETATM   14  C   UNL     1      -6.979  13.144  68.761  1.00  0.00    -0.103 A  
HETATM   15  C   UNL     1      -7.500  12.236  67.842  1.00  0.00    -0.121 A  
HETATM   16  C   UNL     1      -7.534  14.417  68.875  1.00  0.00    -0.132 A  
HETATM   17  C   UNL     1      -8.620  14.780  68.075  1.00  0.00    -0.166 A  
ENDBRANCH  10  12
ENDBRANCH   2  10
TORSDOF 3
ENDMDL
MODEL      148
REMARK 921   NORMALIZED FREE ENERGY PREDICTED BY IDOCK:   -3.89 KCAL/MOL
REMARK 922        TOTAL FREE ENERGY PREDICTED BY IDOCK:   -4.91 KCAL/MOL
REMARK 923 INTER-LIGAND FREE ENERGY PREDICTED BY IDOCK:   -4.13 KCAL/MOL
REMARK 924 INTRA-LIGAND FREE ENERGY PREDICTED BY IDOCK:   -0.78 KCAL/MOL
REMARK 927      BINDING AFFINITY PREDICTED BY RF-SCORE:    0.00 PKD
ROOT
HETATM    1  O   UNL     1     -11.509   5.993  66.477  1.00  0.00    -0.674 OA 
HETATM    2  C   UNL     1     -10.224   5.849  67.067  1.00  0.00    -0.209 C  
HETATM    3  H   UNL     1     -12.143   5.353  66.778  1.00  0.00     0.000 HD 
ENDROOT
BRANCH   2   4
HETATM    4  C   UNL     1     -10.316   5.781  68.582  1.00  0.00    -0.283 A  
HETATM    5  C   UNL     1     -10.535   5.693  71.387  1.00  0.00    -0.300 A  
HETATM    6  C   UNL     1     -11.407   6.378  69.239  1.00  0.00    -0.405 A  
HETATM    7  C   UNL     1      -9.346   5.132  69.359  1.00  0.00    -0.176 A  
HETATM    8  C   UNL     1      -9.457   5.084  70.751  1.00  0.00    -0.230 A  
HETATM    9  C   UNL     1     -11.510   6.341  70.632  1.00  0.00    -0.397 A  
ENDBRANCH   2   4
BRANCH   2  10
HETATM   10  C   UNL     1      -9.196   6.887  66.580  1.00  0.00    -0.163 C  
HETATM   11  O   UNL     1      -8.328   6.578  65.759  1.00  0.00    -0.131 OA 
BRANCH  10  12
HETATM   12  C   UNL     1      -9.222   8.287  67.100  1.00  0.00    -0.175 A  
HETATM   13  C   UNL     1     -10.294   9.109  66.724  1.00  0.00    -0.308 A  
HETATM   14  C   UNL     1      -9.370  10.933  68.010  1.00  0.00    -0.160 A  
HETATM   15  C   UNL     1     -10.364  10.429  67.173  1.00  0.00    -0.290 A  
HETATM   16  C   UNL     1      -8.314  10.117  68.407  1.00  0.00    -0.113 A  
HETATM   17  C   UNL     1      -8.243   8.796  67.959  1.00  0.00    -0.118 A  
ENDBRANCH  10  12
ENDBRANCH   2  10
TORSDOF 3
ENDMDL
MODEL      149
REMARK 921   NORMALIZED FREE ENERGY PREDICTED BY IDOCK:   -3.89 KCAL/MOL
REMARK 922        TOTAL FREE ENERGY PREDICTED BY IDOCK:   -4.91 KCAL/MOL
REMARK 923 INTER-LIGAND FREE ENERGY PREDICTED BY IDOCK:   -4.18 KCAL/MOL
REMARK 924 INTRA-LIGAND FREE ENERGY PREDICTED BY IDOCK:   -0.73 KCAL/MOL
REMARK 927      BINDING AFFINITY PREDICTED BY RF-SCORE:    0.00 PKD
ROOT
HETATM    1  O   UNL     1      -8.073  18.409  67.364  1.00  0.00    -0.236 OA 
HETATM    2  C   UNL     1      -8.623  17.624  68.414  1.00  0.00    -0.284 C  
HETATM    3  H   UNL     1      -7.125  18.445  67.368  1.00  0.00     0.000 HD 
ENDROOT
BRANCH   2   4
HETATM    4  C   UNL     1      -7.985  16.246  68.465  1.00  0.00    -0.184 A  
HETATM    5  C   UNL     1      -6.786  13.705  68.618  1.00  0.00    -0.100 A  
HETATM    6  C   UNL     1      -7.506  15.748  69.690  1.00  0.00    -0.100 A  
HETATM    7  C   UNL     1      -7.858  15.441  67.324  1.00  0.00    -0.237 A  
HETATM    8  C   UNL     1      -7.268  14.177  67.400  1.00  0.00    -0.124 A  
HETATM    9  C   UNL     1      -6.903  14.489  69.762  1.00  0.00    -0.126 A  
ENDBRANCH   2   4
BRANCH   2  10
HETATM   10  C   UNL     1     -10.162  17.567  68.407  1.00  0.00    -0.372 C  
HETATM   11  O   UNL     1     -10.827  18.497  67.943  1.00  0.00    -0.350 OA 
BRANCH  10  12
HETATM   12  C   UNL     1     -10.883  16.388  68.973  1.00  0.00    -0.331 A  
HETATM   13  C   UNL     1     -11.415  15.449  68.078  1.00  0.00    -0.333 A  
HETATM   14  C   UNL     1     -12.262  14.140  69.923  1.00  0.00    -0.416 A  
HETATM   15  C   UNL     1     -12.107  14.333  68.552  1.00  0.00    -0.295 A  
HETATM   16  C   UNL     1     -11.716  15.055  70.821  1.00  0.00    -0.371 A  
HETATM   17  C   UNL     1     -11.023  16.171  70.348  1.00  0.00    -0.320 A  
ENDBRANCH  10  12
ENDBRANCH   2  10
TORSDOF 3
ENDMDL
MODEL      150
REMARK 921   NORMALIZED FREE ENERGY PREDICTED BY IDOCK:   -3.88 KCAL/MOL
REMARK 922        TOTAL FREE ENERGY PREDICTED BY IDOCK:   -4.89 KCAL/MOL
REMARK 923 INTER-LIGAND FREE ENERGY PREDICTED BY IDOCK:   -4.42 KCAL/MOL
REMARK 924 INTRA-LIGAND FREE ENERGY PREDICTED BY IDOCK:   -0.48 KCAL/MOL
REMARK 927      BINDING AFFINITY PREDICTED BY RF-SCORE:    0.00 PKD
ROOT
HETATM    1  O   UNL     1     -11.968  10.207  70.492  1.00  0.00    -0.284 OA 
HETATM    2  C   UNL     1     -10.598  10.297  70.126  1.00  0.00    -0.246 C  
HETATM    3  H   UNL     1     -12.528  10.829  70.043  1.00  0.00     0.000 HD 
ENDROOT
BRANCH   2   4
HETATM    4  C   UNL     1     -10.426  10.258  68.617  1.00  0.00    -0.215 A  
HETATM    5  C   UNL     1     -10.114  10.244  65.820  1.00  0.00    -0.325 A  
HETATM    6  C   UNL     1     -10.303  11.461  67.899  1.00  0.00    -0.204 A  
HETATM    7  C   UNL     1     -10.380   9.051  67.904  1.00  0.00    -0.290 A  
HETATM    8  C   UNL     1     -10.220   9.043  66.516  1.00  0.00    -0.318 A  
HETATM    9  C   UNL     1     -10.157  11.453  66.510  1.00  0.00    -0.250 A  
ENDBRANCH   2   4
BRANCH   2  10
HETATM   10  C   UNL     1      -9.692   9.289  70.854  1.00  0.00    -0.276 C  
HETATM   11  O   UNL     1      -8.481   9.499  70.975  1.00  0.00    -0.284 OA 
BRANCH  10  12
HETATM   12  C   UNL     1     -10.257   8.028  71.421  1.00  0.00    -0.239 A  
HETATM   13  C   UNL     1     -10.488   7.973  72.804  1.00  0.00    -0.415 A  
HETATM   14  C   UNL     1     -11.308   5.710  72.596  1.00  0.00    -0.356 A  
HETATM   15  C   UNL     1     -11.007   6.816  73.388  1.00  0.00    -0.199 A  
HETATM   16  C   UNL     1     -11.103   5.763  71.219  1.00  0.00    -0.267 A  
HETATM   17  C   UNL     1     -10.586   6.920  70.633  1.00  0.00    -0.248 A  
ENDBRANCH  10  12
ENDBRANCH   2  10
TORSDOF 3
ENDMDL
MODEL      151
REMARK 921   NORMALIZED FREE ENERGY PREDICTED BY IDOCK:   -3.85 KCAL/MOL
REMARK 922        TOTAL FREE ENERGY PREDICTED BY IDOCK:   -4.86 KCAL/MOL
REMARK 923 INTER-LIGAND FREE ENERGY PREDICTED BY IDOCK:   -4.45 KCAL/MOL
REMARK 924 INTRA-LIGAND FREE ENERGY PREDICTED BY IDOCK:   -0.41 KCAL/MOL
REMARK 927      BINDING AFFINITY PREDICTED BY RF-SCORE:    0.00 PKD
ROOT
HETATM    1  O   UNL     1      -8.955  19.042  65.724  1.00  0.00    -0.388 OA 
HETATM    2  C   UNL     1      -8.769  17.824  66.434  1.00  0.00    -0.228 C  
HETATM    3  H   UNL     1      -8.866  18.954  64.783  1.00  0.00     0.000 HD 
ENDROOT
BRANCH   2   4
HETATM    4  C   UNL     1      -9.636  16.715  65.863  1.00  0.00    -0.248 A  
HETATM    5  C   UNL     1     -11.284  14.700  64.794  1.00  0.00    -0.395 A  
HETATM    6  C   UNL     1     -10.832  17.039  65.200  1.00  0.00    -0.059 A  
HETATM    7  C   UNL     1      -9.280  15.363  65.969  1.00  0.00    -0.333 A  
HETATM    8  C   UNL     1     -10.095  14.362  65.434  1.00  0.00    -0.388 A  
HETATM    9  C   UNL     1     -11.654  16.037  64.677  1.00  0.00    -0.169 A  
ENDBRANCH   2   4
BRANCH   2  10
HETATM   10  C   UNL     1      -8.911  17.966  67.960  1.00  0.00    -0.267 C  
HETATM   11  O   UNL     1     -10.015  17.862  68.504  1.00  0.00    -0.338 OA 
BRANCH  10  12
HETATM   12  C   UNL     1      -7.718  18.244  68.814  1.00  0.00    -0.286 A  
HETATM   13  C   UNL     1      -7.484  19.570  69.206  1.00  0.00    -0.276 A  
HETATM   14  C   UNL     1      -5.505  18.885  70.410  1.00  0.00    -0.237 A  
HETATM   15  C   UNL     1      -6.378  19.889  69.997  1.00  0.00    -0.381 A  
HETATM   16  C   UNL     1      -5.742  17.562  70.045  1.00  0.00    -0.245 A  
HETATM   17  C   UNL     1      -6.849  17.242  69.255  1.00  0.00    -0.208 A  
ENDBRANCH  10  12
ENDBRANCH   2  10
TORSDOF 3
ENDMDL
MODEL      152
REMARK 921   NORMALIZED FREE ENERGY PREDICTED BY IDOCK:   -3.83 KCAL/MOL
REMARK 922        TOTAL FREE ENERGY PREDICTED BY IDOCK:   -4.84 KCAL/MOL
REMARK 923 INTER-LIGAND FREE ENERGY PREDICTED BY IDOCK:   -3.99 KCAL/MOL
REMARK 924 INTRA-LIGAND FREE ENERGY PREDICTED BY IDOCK:   -0.85 KCAL/MOL
REMARK 927      BINDING AFFINITY PREDICTED BY RF-SCORE:    0.00 PKD
ROOT
HETATM    1  O   UNL     1      -8.840   9.222  65.993  1.00  0.00    -0.143 OA 
HETATM    2  C   UNL     1     -10.093   9.383  66.646  1.00  0.00    -0.262 C  
HETATM    3  H   UNL     1      -8.644   9.905  65.364  1.00  0.00     0.000 HD 
ENDROOT
BRANCH   2   4
HETATM    4  C   UNL     1     -10.233  10.778  67.232  1.00  0.00    -0.245 A  
HETATM    5  C   UNL     1     -10.553  13.358  68.308  1.00  0.00    -0.264 A  
HETATM    6  C   UNL     1     -11.515  11.303  67.476  1.00  0.00    -0.324 A  
HETATM    7  C   UNL     1      -9.119  11.569  67.547  1.00  0.00    -0.166 A  
HETATM    8  C   UNL     1      -9.277  12.848  68.087  1.00  0.00    -0.212 A  
HETATM    9  C   UNL     1     -11.672  12.588  68.002  1.00  0.00    -0.410 A  
ENDBRANCH   2   4
BRANCH   2  10
HETATM   10  C   UNL     1     -10.410   8.275  67.665  1.00  0.00    -0.248 C  
HETATM   11  O   UNL     1     -10.974   7.235  67.313  1.00  0.00    -0.293 OA 
BRANCH  10  12
HETATM   12  C   UNL     1     -10.053   8.440  69.106  1.00  0.00    -0.206 A  
HETATM   13  C   UNL     1      -8.704   8.317  69.468  1.00  0.00    -0.138 A  
HETATM   14  C   UNL     1      -9.268   8.722  71.782  1.00  0.00    -0.332 A  
HETATM   15  C   UNL     1      -8.314   8.453  70.802  1.00  0.00    -0.139 A  
HETATM   16  C   UNL     1     -10.607   8.869  71.428  1.00  0.00    -0.374 A  
HETATM   17  C   UNL     1     -10.998   8.735  70.094  1.00  0.00    -0.236 A  
ENDBRANCH  10  12
ENDBRANCH   2  10
TORSDOF 3
ENDMDL
MODEL      153
REMARK 921   NORMALIZED FREE ENERGY PREDICTED BY IDOCK:   -3.82 KCAL/MOL
REMARK 922        TOTAL FREE ENERGY PREDICTED BY IDOCK:   -4.83 KCAL/MOL
REMARK 923 INTER-LIGAND FREE ENERGY PREDICTED BY IDOCK:   -4.35 KCAL/MOL
REMARK 924 INTRA-LIGAND FREE ENERGY PREDICTED BY IDOCK:   -0.48 KCAL/MOL
REMARK 927      BINDING AFFINITY PREDICTED BY RF-SCORE:    0.00 PKD
ROOT
HETATM    1  O   UNL     1      -7.777  12.808  68.143  1.00  0.00    -0.116 OA 
HETATM    2  C   UNL     1      -9.155  12.495  67.991  1.00  0.00    -0.200 C  
HETATM    3  H   UNL     1      -7.513  12.945  69.045  1.00  0.00     0.000 HD 
ENDROOT
BRANCH   2   4
HETATM    4  C   UNL     1      -9.566  11.352  68.904  1.00  0.00    -0.087 A  
HETATM    5  C   UNL     1     -10.381   9.262  70.603  1.00  0.00    -0.326 A  
HETATM    6  C   UNL     1     -10.897  11.263  69.350  1.00  0.00    -0.239 A  
HETATM    7  C   UNL     1      -8.658  10.368  69.319  1.00  0.00    -0.159 A  
HETATM    8  C   UNL     1      -9.063   9.327  70.159  1.00  0.00    -0.248 A  
HETATM    9  C   UNL     1     -11.298  10.230  70.201  1.00  0.00    -0.388 A  
ENDBRANCH   2   4
BRANCH   2  10
HETATM   10  C   UNL     1      -9.584  12.272  66.529  1.00  0.00    -0.238 C  
HETATM   11  O   UNL     1      -9.170  11.301  65.890  1.00  0.00    -0.204 OA 
BRANCH  10  12
HETATM   12  C   UNL     1     -10.502  13.235  65.850  1.00  0.00    -0.289 A  
HETATM   13  C   UNL     1     -10.041  14.541  65.630  1.00  0.00    -0.384 A  
HETATM   14  C   UNL     1     -12.141  15.128  64.591  1.00  0.00    -0.262 A  
HETATM   15  C   UNL     1     -10.861  15.485  65.007  1.00  0.00    -0.468 A  
HETATM   16  C   UNL     1     -12.599  13.826  64.784  1.00  0.00    -0.330 A  
HETATM   17  C   UNL     1     -11.780  12.881  65.405  1.00  0.00    -0.413 A  
ENDBRANCH  10  12
ENDBRANCH   2  10
TORSDOF 3
ENDMDL
MODEL      154
REMARK 921   NORMALIZED FREE ENERGY PREDICTED BY IDOCK:   -3.81 KCAL/MOL
REMARK 922        TOTAL FREE ENERGY PREDICTED BY IDOCK:   -4.82 KCAL/MOL
REMARK 923 INTER-LIGAND FREE ENERGY PREDICTED BY IDOCK:   -4.45 KCAL/MOL
REMARK 924 INTRA-LIGAND FREE ENERGY PREDICTED BY IDOCK:   -0.37 KCAL/MOL
REMARK 927      BINDING AFFINITY PREDICTED BY RF-SCORE:    0.00 PKD
ROOT
HETATM    1  O   UNL     1     -11.467  15.359  68.542  1.00  0.00    -0.317 OA 
HETATM    2  C   UNL     1     -10.264  15.543  67.808  1.00  0.00    -0.243 C  
HETATM    3  H   UNL     1     -11.506  15.862  69.347  1.00  0.00     0.000 HD 
ENDROOT
BRANCH   2   4
HETATM    4  C   UNL     1      -9.967  17.018  67.595  1.00  0.00    -0.280 A  
HETATM    5  C   UNL     1      -9.362  19.735  67.184  1.00  0.00    -0.458 A  
HETATM    6  C   UNL     1      -8.736  17.405  67.037  1.00  0.00    -0.249 A  
HETATM    7  C   UNL     1     -10.889  18.019  67.931  1.00  0.00    -0.227 A  
HETATM    8  C   UNL     1     -10.592  19.368  67.723  1.00  0.00    -0.538 A  
HETATM    9  C   UNL     1      -8.433  18.755  66.842  1.00  0.00    -0.285 A  
ENDBRANCH   2   4
BRANCH   2  10
HETATM   10  C   UNL     1     -10.200  14.728  66.504  1.00  0.00    -0.276 C  
HETATM   11  O   UNL     1     -10.641  15.191  65.448  1.00  0.00    -0.331 OA 
BRANCH  10  12
HETATM   12  C   UNL     1      -9.614  13.354  66.492  1.00  0.00    -0.277 A  
HETATM   13  C   UNL     1      -9.919  12.518  65.408  1.00  0.00    -0.236 A  
HETATM   14  C   UNL     1      -8.577  10.754  66.367  1.00  0.00    -0.159 A  
HETATM   15  C   UNL     1      -9.406  11.221  65.349  1.00  0.00    -0.232 A  
HETATM   16  C   UNL     1      -8.251  11.585  67.436  1.00  0.00    -0.149 A  
HETATM   17  C   UNL     1      -8.762  12.883  67.495  1.00  0.00    -0.190 A  
ENDBRANCH  10  12
ENDBRANCH   2  10
TORSDOF 3
ENDMDL
MODEL      155
REMARK 921   NORMALIZED FREE ENERGY PREDICTED BY IDOCK:   -3.80 KCAL/MOL
REMARK 922        TOTAL FREE ENERGY PREDICTED BY IDOCK:   -4.81 KCAL/MOL
REMARK 923 INTER-LIGAND FREE ENERGY PREDICTED BY IDOCK:   -4.27 KCAL/MOL
REMARK 924 INTRA-LIGAND FREE ENERGY PREDICTED BY IDOCK:   -0.54 KCAL/MOL
REMARK 927      BINDING AFFINITY PREDICTED BY RF-SCORE:    0.00 PKD
ROOT
HETATM    1  O   UNL     1      -7.171  15.035  69.744  1.00  0.00    -0.186 OA 
HETATM    2  C   UNL     1      -7.895  16.032  69.037  1.00  0.00    -0.222 C  
HETATM    3  H   UNL     1      -7.652  14.652  70.468  1.00  0.00     0.000 HD 
ENDROOT
BRANCH   2   4
HETATM    4  C   UNL     1      -9.270  15.530  68.628  1.00  0.00    -0.202 A  
HETATM    5  C   UNL     1     -11.840  14.638  67.910  1.00  0.00    -0.352 A  
HETATM    6  C   UNL     1     -10.419  16.172  69.121  1.00  0.00    -0.265 A  
HETATM    7  C   UNL     1      -9.437  14.440  67.761  1.00  0.00    -0.211 A  
HETATM    8  C   UNL     1     -10.712  14.000  67.400  1.00  0.00    -0.285 A  
HETATM    9  C   UNL     1     -11.695  15.723  68.770  1.00  0.00    -0.387 A  
ENDBRANCH   2   4
BRANCH   2  10
HETATM   10  C   UNL     1      -7.115  16.652  67.864  1.00  0.00    -0.140 C  
HETATM   11  O   UNL     1      -6.397  15.954  67.143  1.00  0.00    -0.283 OA 
BRANCH  10  12
HETATM   12  C   UNL     1      -7.202  18.116  67.581  1.00  0.00    -0.210 A  
HETATM   13  C   UNL     1      -6.233  18.956  68.151  1.00  0.00    -0.231 A  
HETATM   14  C   UNL     1      -7.270  20.881  67.125  1.00  0.00    -0.395 A  
HETATM   15  C   UNL     1      -6.271  20.334  67.927  1.00  0.00    -0.276 A  
HETATM   16  C   UNL     1      -8.223  20.053  66.536  1.00  0.00    -0.347 A  
HETATM   17  C   UNL     1      -8.185  18.674  66.758  1.00  0.00    -0.276 A  
ENDBRANCH  10  12
ENDBRANCH   2  10
TORSDOF 3
ENDMDL
MODEL      156
REMARK 921   NORMALIZED FREE ENERGY PREDICTED BY IDOCK:   -3.74 KCAL/MOL
REMARK 922        TOTAL FREE ENERGY PREDICTED BY IDOCK:   -4.74 KCAL/MOL
REMARK 923 INTER-LIGAND FREE ENERGY PREDICTED BY IDOCK:   -4.18 KCAL/MOL
REMARK 924 INTRA-LIGAND FREE ENERGY PREDICTED BY IDOCK:   -0.56 KCAL/MOL
REMARK 927      BINDING AFFINITY PREDICTED BY RF-SCORE:    0.00 PKD
ROOT
HETATM    1  O   UNL     1     -10.695   5.210  69.802  1.00  0.00    -0.225 OA 
HETATM    2  C   UNL     1     -10.328   6.304  70.631  1.00  0.00    -0.203 C  
HETATM    3  H   UNL     1      -9.983   4.873  69.272  1.00  0.00     0.000 HD 
ENDROOT
BRANCH   2   4
HETATM    4  C   UNL     1      -9.088   5.985  71.449  1.00  0.00    -0.149 A  
HETATM    5  C   UNL     1      -6.777   5.451  72.963  1.00  0.00    -0.073 A  
HETATM    6  C   UNL     1      -8.282   7.033  71.927  1.00  0.00    -0.102 A  
HETATM    7  C   UNL     1      -8.717   4.668  71.755  1.00  0.00    -0.134 A  
HETATM    8  C   UNL     1      -7.573   4.402  72.511  1.00  0.00    -0.080 A  
HETATM    9  C   UNL     1      -7.130   6.766  72.670  1.00  0.00    -0.079 A  
ENDBRANCH   2   4
BRANCH   2  10
HETATM   10  C   UNL     1     -11.483   6.850  71.489  1.00  0.00    -0.277 C  
HETATM   11  O   UNL     1     -12.102   6.110  72.260  1.00  0.00    -0.311 OA 
BRANCH  10  12
HETATM   12  C   UNL     1     -11.888   8.285  71.398  1.00  0.00    -0.330 A  
HETATM   13  C   UNL     1     -11.103   9.142  70.613  1.00  0.00    -0.320 A  
HETATM   14  C   UNL     1     -12.549  10.998  71.161  1.00  0.00    -0.522 A  
HETATM   15  C   UNL     1     -11.430  10.495  70.500  1.00  0.00    -0.433 A  
HETATM   16  C   UNL     1     -13.347  10.149  71.924  1.00  0.00    -0.505 A  
HETATM   17  C   UNL     1     -13.022   8.796  72.037  1.00  0.00    -0.437 A  
ENDBRANCH  10  12
ENDBRANCH   2  10
TORSDOF 3
ENDMDL
MODEL      157
REMARK 921   NORMALIZED FREE ENERGY PREDICTED BY IDOCK:   -3.72 KCAL/MOL
REMARK 922        TOTAL FREE ENERGY PREDICTED BY IDOCK:   -4.71 KCAL/MOL
REMARK 923 INTER-LIGAND FREE ENERGY PREDICTED BY IDOCK:   -4.41 KCAL/MOL
REMARK 924 INTRA-LIGAND FREE ENERGY PREDICTED BY IDOCK:   -0.30 KCAL/MOL
REMARK 927      BINDING AFFINITY PREDICTED BY RF-SCORE:    0.00 PKD
ROOT
HETATM    1  O   UNL     1      -9.800   8.106  68.046  1.00  0.00    -0.157 OA 
HETATM    2  C   UNL     1      -9.543   9.262  68.831  1.00  0.00    -0.155 C  
HETATM    3  H   UNL     1     -10.108   7.362  68.549  1.00  0.00     0.000 HD 
ENDROOT
BRANCH   2   4
HETATM    4  C   UNL     1     -10.729   9.603  69.717  1.00  0.00    -0.269 A  
HETATM    5  C   UNL     1     -12.923  10.292  71.339  1.00  0.00    -0.540 A  
HETATM    6  C   UNL     1     -11.324  10.874  69.623  1.00  0.00    -0.362 A  
HETATM    7  C   UNL     1     -11.263   8.685  70.632  1.00  0.00    -0.284 A  
HETATM    8  C   UNL     1     -12.355   9.024  71.434  1.00  0.00    -0.380 A  
HETATM    9  C   UNL     1     -12.407  11.217  70.435  1.00  0.00    -0.415 A  
ENDBRANCH   2   4
BRANCH   2  10
HETATM   10  C   UNL     1      -9.042  10.468  68.016  1.00  0.00    -0.138 C  
HETATM   11  O   UNL     1      -8.448  11.400  68.566  1.00  0.00    -0.149 OA 
BRANCH  10  12
HETATM   12  C   UNL     1      -9.277  10.542  66.543  1.00  0.00    -0.183 A  
HETATM   13  C   UNL     1      -8.300  10.004  65.693  1.00  0.00    -0.148 A  
HETATM   14  C   UNL     1      -9.607  10.631  63.761  1.00  0.00    -0.354 A  
HETATM   15  C   UNL     1      -8.463  10.053  64.307  1.00  0.00    -0.179 A  
HETATM   16  C   UNL     1     -10.593  11.148  64.598  1.00  0.00    -0.386 A  
HETATM   17  C   UNL     1     -10.432  11.098  65.984  1.00  0.00    -0.312 A  
ENDBRANCH  10  12
ENDBRANCH   2  10
TORSDOF 3
ENDMDL
MODEL      158
REMARK 921   NORMALIZED FREE ENERGY PREDICTED BY IDOCK:   -3.71 KCAL/MOL
REMARK 922        TOTAL FREE ENERGY PREDICTED BY IDOCK:   -4.70 KCAL/MOL
REMARK 923 INTER-LIGAND FREE ENERGY PREDICTED BY IDOCK:   -4.20 KCAL/MOL
REMARK 924 INTRA-LIGAND FREE ENERGY PREDICTED BY IDOCK:   -0.50 KCAL/MOL
REMARK 927      BINDING AFFINITY PREDICTED BY RF-SCORE:    0.00 PKD
ROOT
HETATM    1  O   UNL     1     -11.256  15.346  69.745  1.00  0.00    -0.246 OA 
HETATM    2  C   UNL     1      -9.906  15.745  69.550  1.00  0.00    -0.283 C  
HETATM    3  H   UNL     1     -11.803  16.017  70.135  1.00  0.00     0.000 HD 
ENDROOT
BRANCH   2   4
HETATM    4  C   UNL     1      -9.825  17.070  68.811  1.00  0.00    -0.278 A  
HETATM    5  C   UNL     1      -9.622  19.537  67.471  1.00  0.00    -0.429 A  
HETATM    6  C   UNL     1      -8.670  17.864  68.932  1.00  0.00    -0.123 A  
HETATM    7  C   UNL     1     -10.868  17.534  67.996  1.00  0.00    -0.260 A  
HETATM    8  C   UNL     1     -10.766  18.756  67.327  1.00  0.00    -0.490 A  
HETATM    9  C   UNL     1      -8.575  19.092  68.274  1.00  0.00    -0.370 A  
ENDBRANCH   2   4
BRANCH   2  10
HETATM   10  C   UNL     1      -9.021  14.656  68.918  1.00  0.00    -0.136 C  
HETATM   11  O   UNL     1      -7.800  14.648  69.104  1.00  0.00    -0.144 OA 
BRANCH  10  12
HETATM   12  C   UNL     1      -9.619  13.592  68.058  1.00  0.00    -0.216 A  
HETATM   13  C   UNL     1      -9.693  12.291  68.575  1.00  0.00    -0.142 A  
HETATM   14  C   UNL     1     -10.714  11.514  66.529  1.00  0.00    -0.318 A  
HETATM   15  C   UNL     1     -10.234  11.255  67.811  1.00  0.00    -0.203 A  
HETATM   16  C   UNL     1     -10.666  12.808  66.015  1.00  0.00    -0.295 A  
HETATM   17  C   UNL     1     -10.126  13.845  66.779  1.00  0.00    -0.265 A  
ENDBRANCH  10  12
ENDBRANCH   2  10
TORSDOF 3
ENDMDL
MODEL      159
REMARK 921   NORMALIZED FREE ENERGY PREDICTED BY IDOCK:   -3.69 KCAL/MOL
REMARK 922        TOTAL FREE ENERGY PREDICTED BY IDOCK:   -4.68 KCAL/MOL
REMARK 923 INTER-LIGAND FREE ENERGY PREDICTED BY IDOCK:   -4.05 KCAL/MOL
REMARK 924 INTRA-LIGAND FREE ENERGY PREDICTED BY IDOCK:   -0.63 KCAL/MOL
REMARK 927      BINDING AFFINITY PREDICTED BY RF-SCORE:    0.00 PKD
ROOT
HETATM    1  O   UNL     1      -9.811   6.521  73.223  1.00  0.00    -0.159 OA 
HETATM    2  C   UNL     1     -10.136   7.134  71.983  1.00  0.00    -0.177 C  
HETATM    3  H   UNL     1     -10.093   5.617  73.290  1.00  0.00     0.000 HD 
ENDROOT
BRANCH   2   4
HETATM    4  C   UNL     1      -9.673   6.286  70.810  1.00  0.00    -0.202 A  
HETATM    5  C   UNL     1      -8.766   4.750  68.634  1.00  0.00    -0.111 A  
HETATM    6  C   UNL     1      -8.388   6.484  70.274  1.00  0.00    -0.127 A  
HETATM    7  C   UNL     1     -10.486   5.297  70.240  1.00  0.00    -0.332 A  
HETATM    8  C   UNL     1     -10.035   4.530  69.162  1.00  0.00    -0.169 A  
HETATM    9  C   UNL     1      -7.943   5.727  69.188  1.00  0.00    -0.097 A  
ENDBRANCH   2   4
BRANCH   2  10
HETATM   10  C   UNL     1      -9.679   8.600  71.874  1.00  0.00    -0.313 C  
HETATM   11  O   UNL     1      -8.796   9.043  72.614  1.00  0.00    -0.261 OA 
BRANCH  10  12
HETATM   12  C   UNL     1     -10.303   9.521  70.878  1.00  0.00    -0.372 A  
HETATM   13  C   UNL     1     -11.581  10.026  71.160  1.00  0.00    -0.460 A  
HETATM   14  C   UNL     1     -11.576  11.252  69.078  1.00  0.00    -0.386 A  
HETATM   15  C   UNL     1     -12.216  10.884  70.259  1.00  0.00    -0.432 A  
HETATM   16  C   UNL     1     -10.298  10.773  68.801  1.00  0.00    -0.209 A  
HETATM   17  C   UNL     1      -9.661   9.916  69.701  1.00  0.00    -0.249 A  
ENDBRANCH  10  12
ENDBRANCH   2  10
TORSDOF 3
ENDMDL
MODEL      160
REMARK 921   NORMALIZED FREE ENERGY PREDICTED BY IDOCK:   -3.68 KCAL/MOL
REMARK 922        TOTAL FREE ENERGY PREDICTED BY IDOCK:   -4.67 KCAL/MOL
REMARK 923 INTER-LIGAND FREE ENERGY PREDICTED BY IDOCK:   -3.83 KCAL/MOL
REMARK 924 INTRA-LIGAND FREE ENERGY PREDICTED BY IDOCK:   -0.84 KCAL/MOL
REMARK 927      BINDING AFFINITY PREDICTED BY RF-SCORE:    0.00 PKD
ROOT
HETATM    1  O   UNL     1      -7.469  18.511  67.448  1.00  0.00    -0.216 OA 
HETATM    2  C   UNL     1      -8.097  17.660  68.396  1.00  0.00    -0.285 C  
HETATM    3  H   UNL     1      -6.530  18.591  67.566  1.00  0.00     0.000 HD 
ENDROOT
BRANCH   2   4
HETATM    4  C   UNL     1      -7.400  16.313  68.476  1.00  0.00    -0.169 A  
HETATM    5  C   UNL     1      -6.126  13.812  68.682  1.00  0.00    -0.088 A  
HETATM    6  C   UNL     1      -7.597  15.494  69.602  1.00  0.00    -0.144 A  
HETATM    7  C   UNL     1      -6.560  15.847  67.455  1.00  0.00    -0.222 A  
HETATM    8  C   UNL     1      -5.931  14.604  67.554  1.00  0.00     0.066 A  
HETATM    9  C   UNL     1      -6.958  14.256  69.707  1.00  0.00    -0.011 A  
ENDBRANCH   2   4
BRANCH   2  10
HETATM   10  C   UNL     1      -9.619  17.531  68.204  1.00  0.00    -0.294 C  
HETATM   11  O   UNL     1     -10.395  18.310  68.765  1.00  0.00    -0.354 OA 
BRANCH  10  12
HETATM   12  C   UNL     1     -10.190  16.452  67.342  1.00  0.00    -0.281 A  
HETATM   13  C   UNL     1     -10.937  15.440  67.963  1.00  0.00    -0.307 A  
HETATM   14  C   UNL     1     -11.301  14.373  65.827  1.00  0.00    -0.330 A  
HETATM   15  C   UNL     1     -11.485  14.402  67.207  1.00  0.00    -0.377 A  
HETATM   16  C   UNL     1     -10.580  15.386  65.199  1.00  0.00    -0.458 A  
HETATM   17  C   UNL     1     -10.032  16.426  65.953  1.00  0.00    -0.358 A  
ENDBRANCH  10  12
ENDBRANCH   2  10
TORSDOF 3
ENDMDL
MODEL      161
REMARK 921   NORMALIZED FREE ENERGY PREDICTED BY IDOCK:   -3.66 KCAL/MOL
REMARK 922        TOTAL FREE ENERGY PREDICTED BY IDOCK:   -4.64 KCAL/MOL
REMARK 923 INTER-LIGAND FREE ENERGY PREDICTED BY IDOCK:   -4.20 KCAL/MOL
REMARK 924 INTRA-LIGAND FREE ENERGY PREDICTED BY IDOCK:   -0.45 KCAL/MOL
REMARK 927      BINDING AFFINITY PREDICTED BY RF-SCORE:    0.00 PKD
ROOT
HETATM    1  O   UNL     1     -10.290   5.583  69.605  1.00  0.00    -0.237 OA 
HETATM    2  C   UNL     1     -11.168   6.700  69.627  1.00  0.00    -0.340 C  
HETATM    3  H   UNL     1      -9.928   5.396  68.748  1.00  0.00     0.000 HD 
ENDROOT
BRANCH   2   4
HETATM    4  C   UNL     1     -10.529   7.917  68.982  1.00  0.00    -0.210 A  
HETATM    5  C   UNL     1      -9.353  10.148  67.732  1.00  0.00    -0.153 A  
HETATM    6  C   UNL     1     -10.554   8.057  67.583  1.00  0.00    -0.264 A  
HETATM    7  C   UNL     1      -9.911   8.923  69.739  1.00  0.00    -0.186 A  
HETATM    8  C   UNL     1      -9.331  10.033  69.120  1.00  0.00    -0.200 A  
HETATM    9  C   UNL     1      -9.962   9.160  66.963  1.00  0.00    -0.294 A  
ENDBRANCH   2   4
BRANCH   2  10
HETATM   10  C   UNL     1     -11.755   7.003  71.017  1.00  0.00    -0.333 C  
HETATM   11  O   UNL     1     -12.773   7.690  71.138  1.00  0.00    -0.290 OA 
BRANCH  10  12
HETATM   12  C   UNL     1     -11.097   6.480  72.252  1.00  0.00    -0.297 A  
HETATM   13  C   UNL     1     -11.461   5.202  72.701  1.00  0.00    -0.221 A  
HETATM   14  C   UNL     1      -9.934   5.400  74.562  1.00  0.00    -0.265 A  
HETATM   15  C   UNL     1     -10.884   4.667  73.855  1.00  0.00    -0.359 A  
HETATM   16  C   UNL     1      -9.550   6.661  74.111  1.00  0.00    -0.281 A  
HETATM   17  C   UNL     1     -10.125   7.196  72.957  1.00  0.00    -0.267 A  
ENDBRANCH  10  12
ENDBRANCH   2  10
TORSDOF 3
ENDMDL
MODEL      162
REMARK 921   NORMALIZED FREE ENERGY PREDICTED BY IDOCK:   -3.66 KCAL/MOL
REMARK 922        TOTAL FREE ENERGY PREDICTED BY IDOCK:   -4.64 KCAL/MOL
REMARK 923 INTER-LIGAND FREE ENERGY PREDICTED BY IDOCK:   -4.14 KCAL/MOL
REMARK 924 INTRA-LIGAND FREE ENERGY PREDICTED BY IDOCK:   -0.50 KCAL/MOL
REMARK 927      BINDING AFFINITY PREDICTED BY RF-SCORE:    0.00 PKD
ROOT
HETATM    1  O   UNL     1     -12.159  12.930  67.668  1.00  0.00    -0.325 OA 
HETATM    2  C   UNL     1     -10.874  13.537  67.663  1.00  0.00    -0.260 C  
HETATM    3  H   UNL     1     -12.213  12.140  67.144  1.00  0.00     0.000 HD 
ENDROOT
BRANCH   2   4
HETATM    4  C   UNL     1      -9.788  12.531  68.005  1.00  0.00    -0.214 A  
HETATM    5  C   UNL     1      -7.816  10.636  68.668  1.00  0.00    -0.121 A  
HETATM    6  C   UNL     1     -10.132  11.324  68.639  1.00  0.00    -0.216 A  
HETATM    7  C   UNL     1      -8.438  12.761  67.701  1.00  0.00    -0.178 A  
HETATM    8  C   UNL     1      -7.459  11.819  68.026  1.00  0.00    -0.101 A  
HETATM    9  C   UNL     1      -9.151  10.389  68.976  1.00  0.00    -0.193 A  
ENDBRANCH   2   4
BRANCH   2  10
HETATM   10  C   UNL     1     -10.788  14.817  68.512  1.00  0.00    -0.252 C  
HETATM   11  O   UNL     1     -10.902  14.770  69.740  1.00  0.00    -0.250 OA 
BRANCH  10  12
HETATM   12  C   UNL     1     -10.576  16.147  67.866  1.00  0.00    -0.309 A  
HETATM   13  C   UNL     1     -10.374  17.259  68.697  1.00  0.00    -0.357 A  
HETATM   14  C   UNL     1     -10.174  18.692  66.763  1.00  0.00    -0.431 A  
HETATM   15  C   UNL     1     -10.180  18.527  68.147  1.00  0.00    -0.412 A  
HETATM   16  C   UNL     1     -10.351  17.591  65.930  1.00  0.00    -0.265 A  
HETATM   17  C   UNL     1     -10.544  16.321  66.478  1.00  0.00    -0.256 A  
ENDBRANCH  10  12
ENDBRANCH   2  10
TORSDOF 3
ENDMDL
MODEL      163
REMARK 921   NORMALIZED FREE ENERGY PREDICTED BY IDOCK:   -3.65 KCAL/MOL
REMARK 922        TOTAL FREE ENERGY PREDICTED BY IDOCK:   -4.63 KCAL/MOL
REMARK 923 INTER-LIGAND FREE ENERGY PREDICTED BY IDOCK:   -4.07 KCAL/MOL
REMARK 924 INTRA-LIGAND FREE ENERGY PREDICTED BY IDOCK:   -0.56 KCAL/MOL
REMARK 927      BINDING AFFINITY PREDICTED BY RF-SCORE:    0.00 PKD
ROOT
HETATM    1  O   UNL     1      -5.241  17.530  69.576  1.00  0.00    -0.164 OA 
HETATM    2  C   UNL     1      -6.423  17.253  68.837  1.00  0.00    -0.202 C  
HETATM    3  H   UNL     1      -5.081  16.920  70.286  1.00  0.00     0.000 HD 
ENDROOT
BRANCH   2   4
HETATM    4  C   UNL     1      -6.466  15.803  68.386  1.00  0.00    -0.113 A  
HETATM    5  C   UNL     1      -6.485  13.113  67.562  1.00  0.00    -0.154 A  
HETATM    6  C   UNL     1      -5.328  14.992  68.547  1.00  0.00    -0.101 A  
HETATM    7  C   UNL     1      -7.613  15.234  67.814  1.00  0.00    -0.171 A  
HETATM    8  C   UNL     1      -7.625  13.898  67.409  1.00  0.00    -0.160 A  
HETATM    9  C   UNL     1      -5.336  13.659  68.129  1.00  0.00    -0.109 A  
ENDBRANCH   2   4
BRANCH   2  10
HETATM   10  C   UNL     1      -6.684  18.242  67.687  1.00  0.00    -0.197 C  
HETATM   11  O   UNL     1      -5.776  18.567  66.915  1.00  0.00    -0.145 OA 
BRANCH  10  12
HETATM   12  C   UNL     1      -8.038  18.839  67.487  1.00  0.00    -0.273 A  
HETATM   13  C   UNL     1      -8.907  18.882  68.587  1.00  0.00    -0.374 A  
HETATM   14  C   UNL     1     -10.607  19.930  67.227  1.00  0.00    -0.519 A  
HETATM   15  C   UNL     1     -10.189  19.421  68.455  1.00  0.00    -0.516 A  
HETATM   16  C   UNL     1      -9.742  19.912  66.135  1.00  0.00    -0.527 A  
HETATM   17  C   UNL     1      -8.460  19.375  66.266  1.00  0.00    -0.346 A  
ENDBRANCH  10  12
ENDBRANCH   2  10
TORSDOF 3
ENDMDL
MODEL      164
REMARK 921   NORMALIZED FREE ENERGY PREDICTED BY IDOCK:   -3.65 KCAL/MOL
REMARK 922        TOTAL FREE ENERGY PREDICTED BY IDOCK:   -4.63 KCAL/MOL
REMARK 923 INTER-LIGAND FREE ENERGY PREDICTED BY IDOCK:   -3.84 KCAL/MOL
REMARK 924 INTRA-LIGAND FREE ENERGY PREDICTED BY IDOCK:   -0.79 KCAL/MOL
REMARK 927      BINDING AFFINITY PREDICTED BY RF-SCORE:    0.00 PKD
ROOT
HETATM    1  O   UNL     1     -12.060   9.757  69.958  1.00  0.00    -0.466 OA 
HETATM    2  C   UNL     1     -10.652   9.936  70.036  1.00  0.00    -0.288 C  
HETATM    3  H   UNL     1     -12.502  10.417  69.437  1.00  0.00     0.000 HD 
ENDROOT
BRANCH   2   4
HETATM    4  C   UNL     1     -10.039  10.100  68.656  1.00  0.00    -0.186 A  
HETATM    5  C   UNL     1      -8.942  10.366  66.078  1.00  0.00    -0.178 A  
HETATM    6  C   UNL     1     -10.646   9.484  67.548  1.00  0.00    -0.338 A  
HETATM    7  C   UNL     1      -8.879  10.859  68.443  1.00  0.00    -0.147 A  
HETATM    8  C   UNL     1      -8.337  10.995  67.162  1.00  0.00    -0.132 A  
HETATM    9  C   UNL     1     -10.095   9.609  66.270  1.00  0.00    -0.322 A  
ENDBRANCH   2   4
BRANCH   2  10
HETATM   10  C   UNL     1      -9.936   8.867  70.882  1.00  0.00    -0.242 C  
HETATM   11  O   UNL     1      -9.533   9.127  72.019  1.00  0.00    -0.323 OA 
BRANCH  10  12
HETATM   12  C   UNL     1      -9.703   7.495  70.338  1.00  0.00    -0.179 A  
HETATM   13  C   UNL     1      -8.411   7.171  69.900  1.00  0.00    -0.140 A  
HETATM   14  C   UNL     1      -9.153   4.954  69.293  1.00  0.00    -0.145 A  
HETATM   15  C   UNL     1      -8.139   5.906  69.375  1.00  0.00    -0.109 A  
HETATM   16  C   UNL     1     -10.434   5.260  69.746  1.00  0.00    -0.340 A  
HETATM   17  C   UNL     1     -10.707   6.523  70.274  1.00  0.00    -0.307 A  
ENDBRANCH  10  12
ENDBRANCH   2  10
TORSDOF 3
ENDMDL
MODEL      165
REMARK 921   NORMALIZED FREE ENERGY PREDICTED BY IDOCK:   -3.64 KCAL/MOL
REMARK 922        TOTAL FREE ENERGY PREDICTED BY IDOCK:   -4.62 KCAL/MOL
REMARK 923 INTER-LIGAND FREE ENERGY PREDICTED BY IDOCK:   -4.40 KCAL/MOL
REMARK 924 INTRA-LIGAND FREE ENERGY PREDICTED BY IDOCK:   -0.23 KCAL/MOL
REMARK 927      BINDING AFFINITY PREDICTED BY RF-SCORE:    0.00 PKD
ROOT
HETATM    1  O   UNL     1      -9.806  10.751  64.603  1.00  0.00    -0.253 OA 
HETATM    2  C   UNL     1     -10.908  11.277  65.330  1.00  0.00    -0.194 C  
HETATM    3  H   UNL     1      -9.803  10.988  63.684  1.00  0.00     0.000 HD 
ENDROOT
BRANCH   2   4
HETATM    4  C   UNL     1     -11.049  12.774  65.110  1.00  0.00    -0.323 A  
HETATM    5  C   UNL     1     -11.259  15.555  64.734  1.00  0.00    -0.399 A  
HETATM    6  C   UNL     1      -9.999  13.633  65.481  1.00  0.00    -0.244 A  
HETATM    7  C   UNL     1     -12.199  13.338  64.539  1.00  0.00    -0.456 A  
HETATM    8  C   UNL     1     -12.302  14.718  64.347  1.00  0.00    -0.389 A  
HETATM    9  C   UNL     1     -10.109  15.014  65.302  1.00  0.00    -0.378 A  
ENDBRANCH   2   4
BRANCH   2  10
HETATM   10  C   UNL     1     -10.913  10.891  66.820  1.00  0.00    -0.185 C  
HETATM   11  O   UNL     1     -11.453  11.617  67.659  1.00  0.00    -0.321 OA 
BRANCH  10  12
HETATM   12  C   UNL     1     -10.252   9.634  67.283  1.00  0.00    -0.292 A  
HETATM   13  C   UNL     1      -9.334   9.724  68.339  1.00  0.00    -0.135 A  
HETATM   14  C   UNL     1      -8.946   7.342  68.230  1.00  0.00    -0.130 A  
HETATM   15  C   UNL     1      -8.680   8.582  68.807  1.00  0.00    -0.139 A  
HETATM   16  C   UNL     1      -9.873   7.240  67.195  1.00  0.00    -0.242 A  
HETATM   17  C   UNL     1     -10.529   8.381  66.728  1.00  0.00    -0.315 A  
ENDBRANCH  10  12
ENDBRANCH   2  10
TORSDOF 3
ENDMDL
MODEL      166
REMARK 921   NORMALIZED FREE ENERGY PREDICTED BY IDOCK:   -3.60 KCAL/MOL
REMARK 922        TOTAL FREE ENERGY PREDICTED BY IDOCK:   -4.57 KCAL/MOL
REMARK 923 INTER-LIGAND FREE ENERGY PREDICTED BY IDOCK:   -4.21 KCAL/MOL
REMARK 924 INTRA-LIGAND FREE ENERGY PREDICTED BY IDOCK:   -0.36 KCAL/MOL
REMARK 927      BINDING AFFINITY PREDICTED BY RF-SCORE:    0.00 PKD
ROOT
HETATM    1  O   UNL     1     -11.158   9.012  69.100  1.00  0.00    -0.434 OA 
HETATM    2  C   UNL     1     -10.065   9.649  68.453  1.00  0.00    -0.176 C  
HETATM    3  H   UNL     1     -11.828   9.613  69.403  1.00  0.00     0.000 HD 
ENDROOT
BRANCH   2   4
HETATM    4  C   UNL     1     -10.543  10.592  67.362  1.00  0.00    -0.304 A  
HETATM    5  C   UNL     1     -11.467  12.365  65.382  1.00  0.00    -0.402 A  
HETATM    6  C   UNL     1     -11.421  11.642  67.687  1.00  0.00    -0.373 A  
HETATM    7  C   UNL     1     -10.133  10.457  66.028  1.00  0.00    -0.307 A  
HETATM    8  C   UNL     1     -10.587  11.340  65.045  1.00  0.00    -0.353 A  
HETATM    9  C   UNL     1     -11.885  12.516  66.701  1.00  0.00    -0.422 A  
ENDBRANCH   2   4
BRANCH   2  10
HETATM   10  C   UNL     1      -8.979   8.674  67.962  1.00  0.00    -0.141 C  
HETATM   11  O   UNL     1      -7.824   9.062  67.765  1.00  0.00    -0.100 OA 
BRANCH  10  12
HETATM   12  C   UNL     1      -9.304   7.239  67.703  1.00  0.00    -0.139 A  
HETATM   13  C   UNL     1      -8.655   6.267  68.477  1.00  0.00    -0.114 A  
HETATM   14  C   UNL     1      -9.831   4.516  67.299  1.00  0.00    -0.216 A  
HETATM   15  C   UNL     1      -8.914   4.910  68.271  1.00  0.00    -0.126 A  
HETATM   16  C   UNL     1     -10.497   5.476  66.541  1.00  0.00    -0.331 A  
HETATM   17  C   UNL     1     -10.240   6.833  66.747  1.00  0.00    -0.273 A  
ENDBRANCH  10  12
ENDBRANCH   2  10
TORSDOF 3
ENDMDL
MODEL      167
REMARK 921   NORMALIZED FREE ENERGY PREDICTED BY IDOCK:   -3.58 KCAL/MOL
REMARK 922        TOTAL FREE ENERGY PREDICTED BY IDOCK:   -4.55 KCAL/MOL
REMARK 923 INTER-LIGAND FREE ENERGY PREDICTED BY IDOCK:   -4.21 KCAL/MOL
REMARK 924 INTRA-LIGAND FREE ENERGY PREDICTED BY IDOCK:   -0.34 KCAL/MOL
REMARK 927      BINDING AFFINITY PREDICTED BY RF-SCORE:    0.00 PKD
ROOT
HETATM    1  O   UNL     1      -8.828  14.109  68.161  1.00  0.00    -0.168 OA 
HETATM    2  C   UNL     1      -9.376  13.043  67.398  1.00  0.00    -0.209 C  
HETATM    3  H   UNL     1      -8.487  14.822  67.634  1.00  0.00     0.000 HD 
ENDROOT
BRANCH   2   4
HETATM    4  C   UNL     1     -10.380  13.553  66.378  1.00  0.00    -0.289 A  
HETATM    5  C   UNL     1     -12.271  14.447  64.495  1.00  0.00    -0.483 A  
HETATM    6  C   UNL     1     -11.559  12.825  66.139  1.00  0.00    -0.431 A  
HETATM    7  C   UNL     1     -10.175  14.740  65.661  1.00  0.00    -0.382 A  
HETATM    8  C   UNL     1     -11.116  15.187  64.730  1.00  0.00    -0.395 A  
HETATM    9  C   UNL     1     -12.493  13.265  65.198  1.00  0.00    -0.525 A  
ENDBRANCH   2   4
BRANCH   2  10
HETATM   10  C   UNL     1      -9.929  11.888  68.251  1.00  0.00    -0.202 C  
HETATM   11  O   UNL     1     -10.763  12.099  69.137  1.00  0.00    -0.173 OA 
BRANCH  10  12
HETATM   12  C   UNL     1      -9.460  10.487  68.033  1.00  0.00    -0.157 A  
HETATM   13  C   UNL     1      -9.339  10.031  66.712  1.00  0.00    -0.193 A  
HETATM   14  C   UNL     1      -8.595   7.874  67.505  1.00  0.00    -0.122 A  
HETATM   15  C   UNL     1      -8.913   8.727  66.450  1.00  0.00    -0.194 A  
HETATM   16  C   UNL     1      -8.690   8.325  68.819  1.00  0.00    -0.137 A  
HETATM   17  C   UNL     1      -9.114   9.629  69.083  1.00  0.00    -0.154 A  
ENDBRANCH  10  12
ENDBRANCH   2  10
TORSDOF 3
ENDMDL
MODEL      168
REMARK 921   NORMALIZED FREE ENERGY PREDICTED BY IDOCK:   -3.58 KCAL/MOL
REMARK 922        TOTAL FREE ENERGY PREDICTED BY IDOCK:   -4.55 KCAL/MOL
REMARK 923 INTER-LIGAND FREE ENERGY PREDICTED BY IDOCK:   -4.23 KCAL/MOL
REMARK 924 INTRA-LIGAND FREE ENERGY PREDICTED BY IDOCK:   -0.32 KCAL/MOL
REMARK 927      BINDING AFFINITY PREDICTED BY RF-SCORE:    0.00 PKD
ROOT
HETATM    1  O   UNL     1      -8.286   8.613  67.391  1.00  0.00    -0.114 OA 
HETATM    2  C   UNL     1      -9.564   8.430  66.796  1.00  0.00    -0.219 C  
HETATM    3  H   UNL     1      -7.747   9.258  66.951  1.00  0.00     0.000 HD 
ENDROOT
BRANCH   2   4
HETATM    4  C   UNL     1     -10.278   9.757  66.603  1.00  0.00    -0.296 A  
HETATM    5  C   UNL     1     -11.576  12.219  66.190  1.00  0.00    -0.450 A  
HETATM    6  C   UNL     1     -10.249  10.385  65.345  1.00  0.00    -0.329 A  
HETATM    7  C   UNL     1     -10.978  10.384  67.643  1.00  0.00    -0.374 A  
HETATM    8  C   UNL     1     -11.627  11.604  67.438  1.00  0.00    -0.330 A  
HETATM    9  C   UNL     1     -10.886  11.611  65.144  1.00  0.00    -0.346 A  
ENDBRANCH   2   4
BRANCH   2  10
HETATM   10  C   UNL     1     -10.438   7.382  67.509  1.00  0.00    -0.268 C  
HETATM   11  O   UNL     1     -11.264   6.715  66.881  1.00  0.00    -0.391 OA 
BRANCH  10  12
HETATM   12  C   UNL     1     -10.311   7.160  68.981  1.00  0.00    -0.204 A  
HETATM   13  C   UNL     1     -11.075   7.967  69.837  1.00  0.00    -0.123 A  
HETATM   14  C   UNL     1     -10.149   6.836  71.760  1.00  0.00    -0.195 A  
HETATM   15  C   UNL     1     -10.989   7.808  71.222  1.00  0.00    -0.259 A  
HETATM   16  C   UNL     1      -9.405   6.014  70.917  1.00  0.00    -0.175 A  
HETATM   17  C   UNL     1      -9.490   6.171  69.532  1.00  0.00    -0.156 A  
ENDBRANCH  10  12
ENDBRANCH   2  10
TORSDOF 3
ENDMDL
MODEL      169
REMARK 921   NORMALIZED FREE ENERGY PREDICTED BY IDOCK:   -3.58 KCAL/MOL
REMARK 922        TOTAL FREE ENERGY PREDICTED BY IDOCK:   -4.54 KCAL/MOL
REMARK 923 INTER-LIGAND FREE ENERGY PREDICTED BY IDOCK:   -3.79 KCAL/MOL
REMARK 924 INTRA-LIGAND FREE ENERGY PREDICTED BY IDOCK:   -0.75 KCAL/MOL
REMARK 927      BINDING AFFINITY PREDICTED BY RF-SCORE:    0.00 PKD
ROOT
HETATM    1  O   UNL     1     -12.345  10.980  69.752  1.00  0.00    -0.321 OA 
HETATM    2  C   UNL     1     -11.077  11.422  69.285  1.00  0.00    -0.254 C  
HETATM    3  H   UNL     1     -12.919  11.684  70.028  1.00  0.00     0.000 HD 
ENDROOT
BRANCH   2   4
HETATM    4  C   UNL     1     -11.225  12.505  68.230  1.00  0.00    -0.309 A  
HETATM    5  C   UNL     1     -11.481  14.553  66.317  1.00  0.00    -0.358 A  
HETATM    6  C   UNL     1     -10.778  13.810  68.506  1.00  0.00    -0.274 A  
HETATM    7  C   UNL     1     -11.793  12.249  66.974  1.00  0.00    -0.329 A  
HETATM    8  C   UNL     1     -11.915  13.264  66.022  1.00  0.00    -0.473 A  
HETATM    9  C   UNL     1     -10.913  14.827  67.559  1.00  0.00    -0.304 A  
ENDBRANCH   2   4
BRANCH   2  10
HETATM   10  C   UNL     1     -10.146  10.280  68.839  1.00  0.00    -0.204 C  
HETATM   11  O   UNL     1     -10.398   9.108  69.133  1.00  0.00    -0.202 OA 
BRANCH  10  12
HETATM   12  C   UNL     1      -8.911  10.569  68.051  1.00  0.00    -0.131 A  
HETATM   13  C   UNL     1      -8.868  10.145  66.715  1.00  0.00    -0.143 A  
HETATM   14  C   UNL     1      -6.640  11.049  66.480  1.00  0.00    -0.132 A  
HETATM   15  C   UNL     1      -7.734  10.380  65.935  1.00  0.00    -0.145 A  
HETATM   16  C   UNL     1      -6.683  11.494  67.799  1.00  0.00    -0.072 A  
HETATM   17  C   UNL     1      -7.817  11.261  68.580  1.00  0.00    -0.139 A  
ENDBRANCH  10  12
ENDBRANCH   2  10
TORSDOF 3
ENDMDL
MODEL      170
REMARK 921   NORMALIZED FREE ENERGY PREDICTED BY IDOCK:   -3.53 KCAL/MOL
REMARK 922        TOTAL FREE ENERGY PREDICTED BY IDOCK:   -4.49 KCAL/MOL
REMARK 923 INTER-LIGAND FREE ENERGY PREDICTED BY IDOCK:   -4.11 KCAL/MOL
REMARK 924 INTRA-LIGAND FREE ENERGY PREDICTED BY IDOCK:   -0.38 KCAL/MOL
REMARK 927      BINDING AFFINITY PREDICTED BY RF-SCORE:    0.00 PKD
ROOT
HETATM    1  O   UNL     1     -10.365   7.548  69.313  1.00  0.00    -0.200 OA 
HETATM    2  C   UNL     1     -10.182   8.394  70.441  1.00  0.00    -0.197 C  
HETATM    3  H   UNL     1      -9.553   7.270  68.907  1.00  0.00     0.000 HD 
ENDROOT
BRANCH   2   4
HETATM    4  C   UNL     1      -9.207   7.786  71.435  1.00  0.00    -0.156 A  
HETATM    5  C   UNL     1      -7.432   6.608  73.274  1.00  0.00    -0.084 A  
HETATM    6  C   UNL     1      -9.297   6.418  71.749  1.00  0.00    -0.152 A  
HETATM    7  C   UNL     1      -8.204   8.545  72.054  1.00  0.00    -0.192 A  
HETATM    8  C   UNL     1      -7.320   7.960  72.963  1.00  0.00    -0.132 A  
HETATM    9  C   UNL     1      -8.421   5.837  72.668  1.00  0.00    -0.120 A  
ENDBRANCH   2   4
BRANCH   2  10
HETATM   10  C   UNL     1     -11.499   8.846  71.099  1.00  0.00    -0.301 C  
HETATM   11  O   UNL     1     -12.204   8.043  71.718  1.00  0.00    -0.291 OA 
BRANCH  10  12
HETATM   12  C   UNL     1     -11.956  10.264  70.993  1.00  0.00    -0.483 A  
HETATM   13  C   UNL     1     -11.490  11.027  69.913  1.00  0.00    -0.400 A  
HETATM   14  C   UNL     1     -12.742  12.937  70.697  1.00  0.00    -0.157 A  
HETATM   15  C   UNL     1     -11.878  12.360  69.769  1.00  0.00    -0.387 A  
HETATM   16  C   UNL     1     -13.228  12.181  71.761  1.00  0.00    -0.423 A  
HETATM   17  C   UNL     1     -12.842  10.846  71.905  1.00  0.00    -0.432 A  
ENDBRANCH  10  12
ENDBRANCH   2  10
TORSDOF 3
ENDMDL
MODEL      171
REMARK 921   NORMALIZED FREE ENERGY PREDICTED BY IDOCK:   -3.53 KCAL/MOL
REMARK 922        TOTAL FREE ENERGY PREDICTED BY IDOCK:   -4.49 KCAL/MOL
REMARK 923 INTER-LIGAND FREE ENERGY PREDICTED BY IDOCK:   -4.02 KCAL/MOL
REMARK 924 INTRA-LIGAND FREE ENERGY PREDICTED BY IDOCK:   -0.46 KCAL/MOL
REMARK 927      BINDING AFFINITY PREDICTED BY RF-SCORE:    0.00 PKD
ROOT
HETATM    1  O   UNL     1     -10.194  10.350  70.241  1.00  0.00    -0.423 OA 
HETATM    2  C   UNL     1      -9.297  10.352  69.139  1.00  0.00    -0.199 C  
HETATM    3  H   UNL     1     -10.377  11.214  70.589  1.00  0.00     0.000 HD 
ENDROOT
BRANCH   2   4
HETATM    4  C   UNL     1      -9.741  11.334  68.068  1.00  0.00    -0.185 A  
HETATM    5  C   UNL     1     -10.614  13.122  66.078  1.00  0.00    -0.291 A  
HETATM    6  C   UNL     1     -11.045  11.252  67.546  1.00  0.00    -0.346 A  
HETATM    7  C   UNL     1      -8.891  12.336  67.578  1.00  0.00    -0.182 A  
HETATM    8  C   UNL     1      -9.325  13.228  66.594  1.00  0.00    -0.247 A  
HETATM    9  C   UNL     1     -11.473  12.135  66.552  1.00  0.00    -0.430 A  
ENDBRANCH   2   4
BRANCH   2  10
HETATM   10  C   UNL     1      -9.002   8.951  68.575  1.00  0.00    -0.134 C  
HETATM   11  O   UNL     1      -8.412   8.814  67.499  1.00  0.00    -0.119 OA 
BRANCH  10  12
HETATM   12  C   UNL     1      -9.433   7.726  69.313  1.00  0.00    -0.155 A  
HETATM   13  C   UNL     1     -10.678   7.166  68.988  1.00  0.00    -0.204 A  
HETATM   14  C   UNL     1     -10.349   5.433  70.638  1.00  0.00    -0.333 A  
HETATM   15  C   UNL     1     -11.135   6.027  69.653  1.00  0.00    -0.474 A  
HETATM   16  C   UNL     1      -9.103   5.969  70.951  1.00  0.00    -0.161 A  
HETATM   17  C   UNL     1      -8.643   7.107  70.286  1.00  0.00    -0.143 A  
ENDBRANCH  10  12
ENDBRANCH   2  10
TORSDOF 3
ENDMDL
MODEL      172
REMARK 921   NORMALIZED FREE ENERGY PREDICTED BY IDOCK:   -3.50 KCAL/MOL
REMARK 922        TOTAL FREE ENERGY PREDICTED BY IDOCK:   -4.45 KCAL/MOL
REMARK 923 INTER-LIGAND FREE ENERGY PREDICTED BY IDOCK:   -3.96 KCAL/MOL
REMARK 924 INTRA-LIGAND FREE ENERGY PREDICTED BY IDOCK:   -0.48 KCAL/MOL
REMARK 927      BINDING AFFINITY PREDICTED BY RF-SCORE:    0.00 PKD
ROOT
HETATM    1  O   UNL     1     -11.324   7.677  68.408  1.00  0.00    -0.230 OA 
HETATM    2  C   UNL     1     -10.434   8.785  68.425  1.00  0.00    -0.176 C  
HETATM    3  H   UNL     1     -10.901   6.842  68.568  1.00  0.00     0.000 HD 
ENDROOT
BRANCH   2   4
HETATM    4  C   UNL     1      -9.583   8.790  69.684  1.00  0.00    -0.171 A  
HETATM    5  C   UNL     1      -8.054   8.775  72.046  1.00  0.00    -0.060 A  
HETATM    6  C   UNL     1     -10.064   8.168  70.850  1.00  0.00    -0.215 A  
HETATM    7  C   UNL     1      -8.318   9.394  69.726  1.00  0.00    -0.161 A  
HETATM    8  C   UNL     1      -7.556   9.382  70.896  1.00  0.00    -0.097 A  
HETATM    9  C   UNL     1      -9.307   8.169  72.024  1.00  0.00    -0.266 A  
ENDBRANCH   2   4
BRANCH   2  10
HETATM   10  C   UNL     1     -11.120  10.138  68.165  1.00  0.00    -0.230 C  
HETATM   11  O   UNL     1     -11.870  10.639  69.008  1.00  0.00    -0.270 OA 
BRANCH  10  12
HETATM   12  C   UNL     1     -10.901  10.869  66.881  1.00  0.00    -0.307 A  
HETATM   13  C   UNL     1     -11.523  12.115  66.718  1.00  0.00    -0.418 A  
HETATM   14  C   UNL     1     -10.567  12.325  64.510  1.00  0.00    -0.346 A  
HETATM   15  C   UNL     1     -11.360  12.837  65.534  1.00  0.00    -0.347 A  
HETATM   16  C   UNL     1      -9.927  11.099  64.672  1.00  0.00    -0.345 A  
HETATM   17  C   UNL     1     -10.087  10.376  65.856  1.00  0.00    -0.326 A  
ENDBRANCH  10  12
ENDBRANCH   2  10
TORSDOF 3
ENDMDL
MODEL      173
REMARK 921   NORMALIZED FREE ENERGY PREDICTED BY IDOCK:   -3.50 KCAL/MOL
REMARK 922        TOTAL FREE ENERGY PREDICTED BY IDOCK:   -4.45 KCAL/MOL
REMARK 923 INTER-LIGAND FREE ENERGY PREDICTED BY IDOCK:   -4.36 KCAL/MOL
REMARK 924 INTRA-LIGAND FREE ENERGY PREDICTED BY IDOCK:   -0.08 KCAL/MOL
REMARK 927      BINDING AFFINITY PREDICTED BY RF-SCORE:    0.00 PKD
ROOT
HETATM    1  O   UNL     1     -10.641  10.600  62.455  1.00  0.00    -0.660 OA 
HETATM    2  C   UNL     1      -9.625  10.896  63.403  1.00  0.00    -0.332 C  
HETATM    3  H   UNL     1     -10.330  10.560  61.559  1.00  0.00     0.000 HD 
ENDROOT
BRANCH   2   4
HETATM    4  C   UNL     1      -8.429   9.973  63.238  1.00  0.00    -0.183 A  
HETATM    5  C   UNL     1      -6.250   8.217  62.947  1.00  0.00    -0.086 A  
HETATM    6  C   UNL     1      -8.607   8.581  63.332  1.00  0.00     0.042 A  
HETATM    7  C   UNL     1      -7.140  10.463  62.985  1.00  0.00    -0.079 A  
HETATM    8  C   UNL     1      -6.058   9.592  62.835  1.00  0.00    -0.099 A  
HETATM    9  C   UNL     1      -7.523   7.712  63.196  1.00  0.00    -0.112 A  
ENDBRANCH   2   4
BRANCH   2  10
HETATM   10  C   UNL     1     -10.129  10.961  64.856  1.00  0.00    -0.312 C  
HETATM   11  O   UNL     1     -10.106   9.961  65.579  1.00  0.00    -0.303 OA 
BRANCH  10  12
HETATM   12  C   UNL     1     -10.669  12.235  65.419  1.00  0.00    -0.320 A  
HETATM   13  C   UNL     1     -11.988  12.589  65.100  1.00  0.00    -0.484 A  
HETATM   14  C   UNL     1     -11.784  14.607  66.412  1.00  0.00    -0.329 A  
HETATM   15  C   UNL     1     -12.541  13.774  65.590  1.00  0.00    -0.551 A  
HETATM   16  C   UNL     1     -10.481  14.252  66.752  1.00  0.00    -0.273 A  
HETATM   17  C   UNL     1      -9.927  13.067  66.264  1.00  0.00    -0.283 A  
ENDBRANCH  10  12
ENDBRANCH   2  10
TORSDOF 3
ENDMDL
MODEL      174
REMARK 921   NORMALIZED FREE ENERGY PREDICTED BY IDOCK:   -3.45 KCAL/MOL
REMARK 922        TOTAL FREE ENERGY PREDICTED BY IDOCK:   -4.39 KCAL/MOL
REMARK 923 INTER-LIGAND FREE ENERGY PREDICTED BY IDOCK:   -4.10 KCAL/MOL
REMARK 924 INTRA-LIGAND FREE ENERGY PREDICTED BY IDOCK:   -0.29 KCAL/MOL
REMARK 927      BINDING AFFINITY PREDICTED BY RF-SCORE:    0.00 PKD
ROOT
HETATM    1  O   UNL     1      -9.562   9.661  71.314  1.00  0.00    -0.290 OA 
HETATM    2  C   UNL     1      -9.666   9.181  69.980  1.00  0.00    -0.195 C  
HETATM    3  H   UNL     1      -9.166  10.521  71.383  1.00  0.00     0.000 HD 
ENDROOT
BRANCH   2   4
HETATM    4  C   UNL     1     -10.330  10.206  69.076  1.00  0.00    -0.230 A  
HETATM    5  C   UNL     1     -11.601  12.113  67.443  1.00  0.00    -0.410 A  
HETATM    6  C   UNL     1     -11.380  10.997  69.575  1.00  0.00    -0.356 A  
HETATM    7  C   UNL     1      -9.926  10.399  67.747  1.00  0.00    -0.203 A  
HETATM    8  C   UNL     1     -10.553  11.349  66.937  1.00  0.00    -0.292 A  
HETATM    9  C   UNL     1     -12.015  11.937  68.760  1.00  0.00    -0.307 A  
ENDBRANCH   2   4
BRANCH   2  10
HETATM   10  C   UNL     1     -10.307   7.786  69.869  1.00  0.00    -0.223 C  
HETATM   11  O   UNL     1     -10.834   7.415  68.817  1.00  0.00    -0.155 OA 
BRANCH  10  12
HETATM   12  C   UNL     1     -10.313   6.856  71.038  1.00  0.00    -0.224 A  
HETATM   13  C   UNL     1     -11.552   6.506  71.594  1.00  0.00    -0.357 A  
HETATM   14  C   UNL     1     -10.446   5.124  73.237  1.00  0.00    -0.261 A  
HETATM   15  C   UNL     1     -11.617   5.647  72.694  1.00  0.00    -0.307 A  
HETATM   16  C   UNL     1      -9.212   5.448  72.677  1.00  0.00    -0.145 A  
HETATM   17  C   UNL     1      -9.146   6.305  71.577  1.00  0.00    -0.145 A  
ENDBRANCH  10  12
ENDBRANCH   2  10
TORSDOF 3
ENDMDL
MODEL      175
REMARK 921   NORMALIZED FREE ENERGY PREDICTED BY IDOCK:   -3.42 KCAL/MOL
REMARK 922        TOTAL FREE ENERGY PREDICTED BY IDOCK:   -4.36 KCAL/MOL
REMARK 923 INTER-LIGAND FREE ENERGY PREDICTED BY IDOCK:   -3.75 KCAL/MOL
REMARK 924 INTRA-LIGAND FREE ENERGY PREDICTED BY IDOCK:   -0.61 KCAL/MOL
REMARK 927      BINDING AFFINITY PREDICTED BY RF-SCORE:    0.00 PKD
ROOT
HETATM    1  O   UNL     1      -8.930   3.216  70.025  1.00  0.00    -0.080 OA 
HETATM    2  C   UNL     1      -9.728   4.392  70.037  1.00  0.00    -0.216 C  
HETATM    3  H   UNL     1      -9.003   2.711  69.224  1.00  0.00     0.000 HD 
ENDROOT
BRANCH   2   4
HETATM    4  C   UNL     1      -9.496   5.230  68.791  1.00  0.00    -0.171 A  
HETATM    5  C   UNL     1      -9.125   6.781  66.472  1.00  0.00    -0.171 A  
HETATM    6  C   UNL     1     -10.597   5.754  68.090  1.00  0.00    -0.286 A  
HETATM    7  C   UNL     1      -8.208   5.508  68.310  1.00  0.00    -0.095 A  
HETATM    8  C   UNL     1      -8.023   6.282  67.162  1.00  0.00    -0.109 A  
HETATM    9  C   UNL     1     -10.411   6.516  66.935  1.00  0.00    -0.347 A  
ENDBRANCH   2   4
BRANCH   2  10
HETATM   10  C   UNL     1      -9.609   5.211  71.335  1.00  0.00    -0.161 C  
HETATM   11  O   UNL     1      -8.794   4.897  72.208  1.00  0.00    -0.125 OA 
BRANCH  10  12
HETATM   12  C   UNL     1     -10.487   6.396  71.571  1.00  0.00    -0.256 A  
HETATM   13  C   UNL     1     -11.864   6.250  71.353  1.00  0.00    -0.268 A  
HETATM   14  C   UNL     1     -12.228   8.555  71.975  1.00  0.00    -0.429 A  
HETATM   15  C   UNL     1     -12.730   7.327  71.549  1.00  0.00    -0.422 A  
HETATM   16  C   UNL     1     -10.864   8.704  72.216  1.00  0.00    -0.392 A  
HETATM   17  C   UNL     1      -9.997   7.626  72.022  1.00  0.00    -0.220 A  
ENDBRANCH  10  12
ENDBRANCH   2  10
TORSDOF 3
ENDMDL
MODEL      176
REMARK 921   NORMALIZED FREE ENERGY PREDICTED BY IDOCK:   -3.39 KCAL/MOL
REMARK 922        TOTAL FREE ENERGY PREDICTED BY IDOCK:   -4.32 KCAL/MOL
REMARK 923 INTER-LIGAND FREE ENERGY PREDICTED BY IDOCK:   -3.98 KCAL/MOL
REMARK 924 INTRA-LIGAND FREE ENERGY PREDICTED BY IDOCK:   -0.34 KCAL/MOL
REMARK 927      BINDING AFFINITY PREDICTED BY RF-SCORE:    0.00 PKD
ROOT
HETATM    1  O   UNL     1      -9.459  15.462  69.924  1.00  0.00    -0.410 OA 
HETATM    2  C   UNL     1      -8.401  15.949  69.109  1.00  0.00    -0.253 C  
HETATM    3  H   UNL     1      -9.825  16.115  70.509  1.00  0.00     0.000 HD 
ENDROOT
BRANCH   2   4
HETATM    4  C   UNL     1      -8.802  17.225  68.388  1.00  0.00    -0.269 A  
HETATM    5  C   UNL     1      -9.582  19.557  67.020  1.00  0.00    -0.433 A  
HETATM    6  C   UNL     1      -9.884  17.206  67.490  1.00  0.00    -0.266 A  
HETATM    7  C   UNL     1      -8.128  18.438  68.592  1.00  0.00    -0.319 A  
HETATM    8  C   UNL     1      -8.518  19.597  67.917  1.00  0.00    -0.356 A  
HETATM    9  C   UNL     1     -10.264  18.362  66.805  1.00  0.00    -0.410 A  
ENDBRANCH   2   4
BRANCH   2  10
HETATM   10  C   UNL     1      -7.809  14.891  68.161  1.00  0.00    -0.122 C  
HETATM   11  O   UNL     1      -6.905  15.183  67.373  1.00  0.00    -0.185 OA 
BRANCH  10  12
HETATM   12  C   UNL     1      -8.326  13.489  68.166  1.00  0.00    -0.167 A  
HETATM   13  C   UNL     1      -7.469  12.473  68.616  1.00  0.00    -0.090 A  
HETATM   14  C   UNL     1      -9.185  10.822  68.213  1.00  0.00    -0.157 A  
HETATM   15  C   UNL     1      -7.897  11.144  68.633  1.00  0.00    -0.138 A  
HETATM   16  C   UNL     1     -10.050  11.827  67.786  1.00  0.00    -0.199 A  
HETATM   17  C   UNL     1      -9.625  13.156  67.770  1.00  0.00    -0.208 A  
ENDBRANCH  10  12
ENDBRANCH   2  10
TORSDOF 3
ENDMDL
MODEL      177
REMARK 921   NORMALIZED FREE ENERGY PREDICTED BY IDOCK:   -3.33 KCAL/MOL
REMARK 922        TOTAL FREE ENERGY PREDICTED BY IDOCK:   -4.26 KCAL/MOL
REMARK 923 INTER-LIGAND FREE ENERGY PREDICTED BY IDOCK:   -3.90 KCAL/MOL
REMARK 924 INTRA-LIGAND FREE ENERGY PREDICTED BY IDOCK:   -0.36 KCAL/MOL
REMARK 927      BINDING AFFINITY PREDICTED BY RF-SCORE:    0.00 PKD
ROOT
HETATM    1  O   UNL     1      -8.147   6.193  68.912  1.00  0.00    -0.106 OA 
HETATM    2  C   UNL     1      -9.414   6.012  68.293  1.00  0.00    -0.115 C  
HETATM    3  H   UNL     1      -7.573   5.440  68.838  1.00  0.00     0.000 HD 
ENDROOT
BRANCH   2   4
HETATM    4  C   UNL     1      -9.265   5.527  66.861  1.00  0.00    -0.119 A  
HETATM    5  C   UNL     1      -9.035   4.592  64.217  1.00  0.00    -0.150 A  
HETATM    6  C   UNL     1     -10.243   4.682  66.308  1.00  0.00    -0.306 A  
HETATM    7  C   UNL     1      -8.176   5.899  66.059  1.00  0.00    -0.123 A  
HETATM    8  C   UNL     1      -8.064   5.439  64.745  1.00  0.00    -0.123 A  
HETATM    9  C   UNL     1     -10.123   4.212  64.998  1.00  0.00    -0.220 A  
ENDBRANCH   2   4
BRANCH   2  10
HETATM   10  C   UNL     1     -10.345   7.232  68.414  1.00  0.00    -0.185 C  
HETATM   11  O   UNL     1     -10.630   7.910  67.423  1.00  0.00    -0.279 OA 
BRANCH  10  12
HETATM   12  C   UNL     1     -10.913   7.628  69.737  1.00  0.00    -0.178 A  
HETATM   13  C   UNL     1     -11.623   6.662  70.465  1.00  0.00    -0.448 A  
HETATM   14  C   UNL     1     -12.031   8.261  72.228  1.00  0.00    -0.448 A  
HETATM   15  C   UNL     1     -12.184   6.980  71.704  1.00  0.00    -0.395 A  
HETATM   16  C   UNL     1     -11.308   9.221  71.523  1.00  0.00    -0.455 A  
HETATM   17  C   UNL     1     -10.746   8.904  70.285  1.00  0.00    -0.248 A  
ENDBRANCH  10  12
ENDBRANCH   2  10
TORSDOF 3
ENDMDL
MODEL      178
REMARK 921   NORMALIZED FREE ENERGY PREDICTED BY IDOCK:   -3.25 KCAL/MOL
REMARK 922        TOTAL FREE ENERGY PREDICTED BY IDOCK:   -4.16 KCAL/MOL
REMARK 923 INTER-LIGAND FREE ENERGY PREDICTED BY IDOCK:   -3.76 KCAL/MOL
REMARK 924 INTRA-LIGAND FREE ENERGY PREDICTED BY IDOCK:   -0.39 KCAL/MOL
REMARK 927      BINDING AFFINITY PREDICTED BY RF-SCORE:    0.00 PKD
ROOT
HETATM    1  O   UNL     1      -6.455  17.500  68.724  1.00  0.00    -0.188 OA 
HETATM    2  C   UNL     1      -7.291  16.475  69.245  1.00  0.00    -0.201 C  
HETATM    3  H   UNL     1      -5.575  17.496  69.080  1.00  0.00     0.000 HD 
ENDROOT
BRANCH   2   4
HETATM    4  C   UNL     1      -6.623  15.114  69.144  1.00  0.00    -0.128 A  
HETATM    5  C   UNL     1      -5.383  12.600  68.897  1.00  0.00    -0.066 A  
HETATM    6  C   UNL     1      -6.113  14.681  67.907  1.00  0.00    -0.162 A  
HETATM    7  C   UNL     1      -6.490  14.266  70.253  1.00  0.00    -0.102 A  
HETATM    8  C   UNL     1      -5.870  13.020  70.132  1.00  0.00    -0.153 A  
HETATM    9  C   UNL     1      -5.505  13.429  67.784  1.00  0.00    -0.085 A  
ENDBRANCH   2   4
BRANCH   2  10
HETATM   10  C   UNL     1      -8.718  16.483  68.667  1.00  0.00    -0.244 C  
HETATM   11  O   UNL     1      -9.415  15.464  68.692  1.00  0.00    -0.190 OA 
BRANCH  10  12
HETATM   12  C   UNL     1      -9.284  17.720  68.053  1.00  0.00    -0.273 A  
HETATM   13  C   UNL     1      -9.170  17.878  66.664  1.00  0.00    -0.288 A  
HETATM   14  C   UNL     1     -10.305  20.007  66.793  1.00  0.00    -0.564 A  
HETATM   15  C   UNL     1      -9.674  19.020  66.038  1.00  0.00    -0.221 A  
HETATM   16  C   UNL     1     -10.444  19.848  68.170  1.00  0.00    -0.472 A  
HETATM   17  C   UNL     1      -9.942  18.706  68.797  1.00  0.00    -0.427 A  
ENDBRANCH  10  12
ENDBRANCH   2  10
TORSDOF 3
ENDMDL
MODEL      179
REMARK 921   NORMALIZED FREE ENERGY PREDICTED BY IDOCK:   -3.24 KCAL/MOL
REMARK 922        TOTAL FREE ENERGY PREDICTED BY IDOCK:   -4.15 KCAL/MOL
REMARK 923 INTER-LIGAND FREE ENERGY PREDICTED BY IDOCK:   -3.33 KCAL/MOL
REMARK 924 INTRA-LIGAND FREE ENERGY PREDICTED BY IDOCK:   -0.81 KCAL/MOL
REMARK 927      BINDING AFFINITY PREDICTED BY RF-SCORE:    0.00 PKD
ROOT
HETATM    1  O   UNL     1     -12.174   9.103  70.334  1.00  0.00    -0.475 OA 
HETATM    2  C   UNL     1     -11.038   8.274  70.541  1.00  0.00    -0.249 C  
HETATM    3  H   UNL     1     -11.982   9.910  69.872  1.00  0.00     0.000 HD 
ENDROOT
BRANCH   2   4
HETATM    4  C   UNL     1     -10.281   8.042  69.244  1.00  0.00    -0.214 A  
HETATM    5  C   UNL     1      -8.929   7.589  66.818  1.00  0.00    -0.164 A  
HETATM    6  C   UNL     1     -10.979   7.625  68.097  1.00  0.00     0.066 A  
HETATM    7  C   UNL     1      -8.896   8.236  69.146  1.00  0.00    -0.143 A  
HETATM    8  C   UNL     1      -8.225   8.016  67.941  1.00  0.00    -0.129 A  
HETATM    9  C   UNL     1     -10.305   7.392  66.896  1.00  0.00    -0.367 A  
ENDBRANCH   2   4
BRANCH   2  10
HETATM   10  C   UNL     1     -11.351   6.967  71.290  1.00  0.00    -0.279 C  
HETATM   11  O   UNL     1     -12.453   6.787  71.816  1.00  0.00    -0.353 OA 
BRANCH  10  12
HETATM   12  C   UNL     1     -10.321   5.891  71.407  1.00  0.00    -0.271 A  
HETATM   13  C   UNL     1      -9.320   6.041  72.378  1.00  0.00    -0.150 A  
HETATM   14  C   UNL     1      -8.332   3.939  71.712  1.00  0.00    -0.087 A  
HETATM   15  C   UNL     1      -8.326   5.071  72.525  1.00  0.00    -0.117 A  
HETATM   16  C   UNL     1      -9.336   3.771  70.761  1.00  0.00    -0.218 A  
HETATM   17  C   UNL     1     -10.331   4.740  70.614  1.00  0.00    -0.184 A  
ENDBRANCH  10  12
ENDBRANCH   2  10
TORSDOF 3
ENDMDL
MODEL      180
REMARK 921   NORMALIZED FREE ENERGY PREDICTED BY IDOCK:   -3.23 KCAL/MOL
REMARK 922        TOTAL FREE ENERGY PREDICTED BY IDOCK:   -4.14 KCAL/MOL
REMARK 923 INTER-LIGAND FREE ENERGY PREDICTED BY IDOCK:   -3.55 KCAL/MOL
REMARK 924 INTRA-LIGAND FREE ENERGY PREDICTED BY IDOCK:   -0.59 KCAL/MOL
REMARK 927      BINDING AFFINITY PREDICTED BY RF-SCORE:    0.00 PKD
ROOT
HETATM    1  O   UNL     1      -9.527   2.346  70.547  1.00  0.00    -0.136 OA 
HETATM    2  C   UNL     1      -9.713   3.736  70.783  1.00  0.00    -0.165 C  
HETATM    3  H   UNL     1     -10.228   1.946  70.046  1.00  0.00     0.000 HD 
ENDROOT
BRANCH   2   4
HETATM    4  C   UNL     1     -10.012   4.480  69.493  1.00  0.00    -0.235 A  
HETATM    5  C   UNL     1     -10.529   5.821  67.074  1.00  0.00    -0.342 A  
HETATM    6  C   UNL     1      -9.525   3.979  68.273  1.00  0.00    -0.216 A  
HETATM    7  C   UNL     1     -10.771   5.659  69.473  1.00  0.00    -0.380 A  
HETATM    8  C   UNL     1     -11.032   6.323  68.272  1.00  0.00    -0.408 A  
HETATM    9  C   UNL     1      -9.775   4.651  67.074  1.00  0.00    -0.216 A  
ENDBRANCH   2   4
BRANCH   2  10
HETATM   10  C   UNL     1      -8.578   4.385  71.596  1.00  0.00    -0.113 C  
HETATM   11  O   UNL     1      -7.502   3.802  71.756  1.00  0.00    -0.053 OA 
BRANCH  10  12
HETATM   12  C   UNL     1      -8.759   5.731  72.217  1.00  0.00    -0.132 A  
HETATM   13  C   UNL     1      -9.848   5.915  73.083  1.00  0.00    -0.176 A  
HETATM   14  C   UNL     1      -9.203   8.216  73.435  1.00  0.00    -0.291 A  
HETATM   15  C   UNL     1     -10.071   7.155  73.685  1.00  0.00    -0.389 A  
HETATM   16  C   UNL     1      -8.107   8.036  72.595  1.00  0.00    -0.197 A  
HETATM   17  C   UNL     1      -7.882   6.796  71.994  1.00  0.00    -0.096 A  
ENDBRANCH  10  12
ENDBRANCH   2  10
TORSDOF 3
ENDMDL
MODEL      181
REMARK 921   NORMALIZED FREE ENERGY PREDICTED BY IDOCK:   -3.22 KCAL/MOL
REMARK 922        TOTAL FREE ENERGY PREDICTED BY IDOCK:   -4.13 KCAL/MOL
REMARK 923 INTER-LIGAND FREE ENERGY PREDICTED BY IDOCK:   -3.38 KCAL/MOL
REMARK 924 INTRA-LIGAND FREE ENERGY PREDICTED BY IDOCK:   -0.75 KCAL/MOL
REMARK 927      BINDING AFFINITY PREDICTED BY RF-SCORE:    0.00 PKD
ROOT
HETATM    1  O   UNL     1     -10.102  10.557  62.333  1.00  0.00    -0.746 OA 
HETATM    2  C   UNL     1      -9.398  10.964  63.500  1.00  0.00    -0.272 C  
HETATM    3  H   UNL     1      -9.538  10.325  61.606  1.00  0.00     0.000 HD 
ENDROOT
BRANCH   2   4
HETATM    4  C   UNL     1      -8.334   9.950  63.884  1.00  0.00    -0.172 A  
HETATM    5  C   UNL     1      -6.405   8.028  64.593  1.00  0.00    -0.052 A  
HETATM    6  C   UNL     1      -8.640   8.577  63.856  1.00  0.00     0.040 A  
HETATM    7  C   UNL     1      -7.041  10.335  64.264  1.00  0.00    -0.056 A  
HETATM    8  C   UNL     1      -6.081   9.382  64.611  1.00  0.00    -0.077 A  
HETATM    9  C   UNL     1      -7.684   7.625  64.216  1.00  0.00    -0.131 A  
ENDBRANCH   2   4
BRANCH   2  10
HETATM   10  C   UNL     1     -10.314  11.341  64.678  1.00  0.00    -0.315 C  
HETATM   11  O   UNL     1     -11.414  11.865  64.481  1.00  0.00    -0.327 OA 
BRANCH  10  12
HETATM   12  C   UNL     1      -9.884  11.093  66.087  1.00  0.00    -0.265 A  
HETATM   13  C   UNL     1      -9.099  12.069  66.717  1.00  0.00    -0.197 A  
HETATM   14  C   UNL     1      -9.013  10.730  68.726  1.00  0.00    -0.171 A  
HETATM   15  C   UNL     1      -8.661  11.885  68.030  1.00  0.00    -0.168 A  
HETATM   16  C   UNL     1      -9.811   9.766  68.115  1.00  0.00    -0.170 A  
HETATM   17  C   UNL     1     -10.250   9.949  66.803  1.00  0.00    -0.301 A  
ENDBRANCH  10  12
ENDBRANCH   2  10
TORSDOF 3
ENDMDL
MODEL      182
REMARK 921   NORMALIZED FREE ENERGY PREDICTED BY IDOCK:   -3.20 KCAL/MOL
REMARK 922        TOTAL FREE ENERGY PREDICTED BY IDOCK:   -4.10 KCAL/MOL
REMARK 923 INTER-LIGAND FREE ENERGY PREDICTED BY IDOCK:   -4.70 KCAL/MOL
REMARK 924 INTRA-LIGAND FREE ENERGY PREDICTED BY IDOCK:    0.60 KCAL/MOL
REMARK 927      BINDING AFFINITY PREDICTED BY RF-SCORE:    0.00 PKD
ROOT
HETATM    1  O   UNL     1      -8.124  12.751  66.479  1.00  0.00    -0.387 OA 
HETATM    2  C   UNL     1      -9.282  13.572  66.414  1.00  0.00    -0.119 C  
HETATM    3  H   UNL     1      -8.314  11.824  66.557  1.00  0.00     0.000 HD 
ENDROOT
BRANCH   2   4
HETATM    4  C   UNL     1     -10.249  13.080  65.350  1.00  0.00    -0.301 A  
HETATM    5  C   UNL     1     -12.069  12.219  63.385  1.00  0.00    -0.615 A  
HETATM    6  C   UNL     1     -11.231  13.951  64.847  1.00  0.00    -0.356 A  
HETATM    7  C   UNL     1     -10.193  11.775  64.840  1.00  0.00    -0.315 A  
HETATM    8  C   UNL     1     -11.093  11.348  63.861  1.00  0.00    -0.410 A  
HETATM    9  C   UNL     1     -12.140  13.519  63.878  1.00  0.00    -0.493 A  
ENDBRANCH   2   4
BRANCH   2  10
HETATM   10  C   UNL     1      -8.973  15.074  66.288  1.00  0.00    -0.198 C  
HETATM   11  O   UNL     1      -9.445  15.741  65.362  1.00  0.00    -0.321 OA 
BRANCH  10  12
HETATM   12  C   UNL     1      -8.085  15.755  67.277  1.00  0.00    -0.217 A  
HETATM   13  C   UNL     1      -8.030  15.236  68.579  1.00  0.00    -0.141 A  
HETATM   14  C   UNL     1      -6.459  16.956  69.219  1.00  0.00    -0.228 A  
HETATM   15  C   UNL     1      -7.223  15.838  69.547  1.00  0.00    -0.186 A  
HETATM   16  C   UNL     1      -6.491  17.465  67.923  1.00  0.00    -0.164 A  
HETATM   17  C   UNL     1      -7.295  16.863  66.954  1.00  0.00    -0.251 A  
ENDBRANCH  10  12
ENDBRANCH   2  10
TORSDOF 3
ENDMDL
MODEL      183
REMARK 921   NORMALIZED FREE ENERGY PREDICTED BY IDOCK:   -3.08 KCAL/MOL
REMARK 922        TOTAL FREE ENERGY PREDICTED BY IDOCK:   -3.96 KCAL/MOL
REMARK 923 INTER-LIGAND FREE ENERGY PREDICTED BY IDOCK:   -3.23 KCAL/MOL
REMARK 924 INTRA-LIGAND FREE ENERGY PREDICTED BY IDOCK:   -0.73 KCAL/MOL
REMARK 927      BINDING AFFINITY PREDICTED BY RF-SCORE:    0.00 PKD
ROOT
HETATM    1  O   UNL     1      -7.837   6.939  65.825  1.00  0.00    -0.094 OA 
HETATM    2  C   UNL     1      -8.322   7.982  66.661  1.00  0.00    -0.120 C  
HETATM    3  H   UNL     1      -7.514   6.184  66.302  1.00  0.00     0.000 HD 
ENDROOT
BRANCH   2   4
HETATM    4  C   UNL     1      -9.323   7.456  67.676  1.00  0.00    -0.145 A  
HETATM    5  C   UNL     1     -11.208   6.455  69.510  1.00  0.00    -0.477 A  
HETATM    6  C   UNL     1     -10.325   6.560  67.263  1.00  0.00    -0.283 A  
HETATM    7  C   UNL     1      -9.281   7.830  69.026  1.00  0.00    -0.143 A  
HETATM    8  C   UNL     1     -10.213   7.330  69.939  1.00  0.00    -0.210 A  
HETATM    9  C   UNL     1     -11.266   6.071  68.173  1.00  0.00    -0.061 A  
ENDBRANCH   2   4
BRANCH   2  10
HETATM   10  C   UNL     1      -8.845   9.206  65.888  1.00  0.00    -0.175 C  
HETATM   11  O   UNL     1      -8.903   9.197  64.655  1.00  0.00    -0.192 OA 
BRANCH  10  12
HETATM   12  C   UNL     1      -9.284  10.435  66.614  1.00  0.00    -0.178 A  
HETATM   13  C   UNL     1      -8.321  11.147  67.344  1.00  0.00    -0.135 A  
HETATM   14  C   UNL     1      -9.994  12.752  68.022  1.00  0.00    -0.225 A  
HETATM   15  C   UNL     1      -8.677  12.299  68.050  1.00  0.00    -0.181 A  
HETATM   16  C   UNL     1     -10.953  12.063  67.282  1.00  0.00    -0.313 A  
HETATM   17  C   UNL     1     -10.597  10.913  66.575  1.00  0.00    -0.295 A  
ENDBRANCH  10  12
ENDBRANCH   2  10
TORSDOF 3
ENDMDL
MODEL      184
REMARK 921   NORMALIZED FREE ENERGY PREDICTED BY IDOCK:   -2.98 KCAL/MOL
REMARK 922        TOTAL FREE ENERGY PREDICTED BY IDOCK:   -3.85 KCAL/MOL
REMARK 923 INTER-LIGAND FREE ENERGY PREDICTED BY IDOCK:   -4.69 KCAL/MOL
REMARK 924 INTRA-LIGAND FREE ENERGY PREDICTED BY IDOCK:    0.84 KCAL/MOL
REMARK 927      BINDING AFFINITY PREDICTED BY RF-SCORE:    0.00 PKD
ROOT
HETATM    1  O   UNL     1      -8.991  13.499  67.879  1.00  0.00    -0.181 OA 
HETATM    2  C   UNL     1      -9.653  12.242  67.836  1.00  0.00    -0.203 C  
HETATM    3  H   UNL     1      -8.084  13.464  67.601  1.00  0.00     0.000 HD 
ENDROOT
BRANCH   2   4
HETATM    4  C   UNL     1      -9.479  11.572  66.484  1.00  0.00    -0.220 A  
HETATM    5  C   UNL     1      -9.214  10.342  63.966  1.00  0.00    -0.300 A  
HETATM    6  C   UNL     1     -10.526  11.617  65.546  1.00  0.00    -0.321 A  
HETATM    7  C   UNL     1      -8.296  10.908  66.129  1.00  0.00    -0.168 A  
HETATM    8  C   UNL     1      -8.162  10.301  64.877  1.00  0.00    -0.157 A  
HETATM    9  C   UNL     1     -10.396  10.999  64.300  1.00  0.00    -0.430 A  
ENDBRANCH   2   4
BRANCH   2  10
HETATM   10  C   UNL     1     -11.124  12.298  68.288  1.00  0.00    -0.240 C  
HETATM   11  O   UNL     1     -11.921  11.416  67.954  1.00  0.00    -0.626 OA 
BRANCH  10  12
HETATM   12  C   UNL     1     -11.619  13.427  69.130  1.00  0.00    -0.365 A  
HETATM   13  C   UNL     1     -12.642  13.161  70.052  1.00  0.00    -0.014 A  
HETATM   14  C   UNL     1     -12.633  15.471  70.757  1.00  0.00    -0.505 A  
HETATM   15  C   UNL     1     -13.150  14.182  70.858  1.00  0.00    -0.338 A  
HETATM   16  C   UNL     1     -11.601  15.740  69.861  1.00  0.00    -0.355 A  
HETATM   17  C   UNL     1     -11.091  14.720  69.055  1.00  0.00    -0.268 A  
ENDBRANCH  10  12
ENDBRANCH   2  10
TORSDOF 3
ENDMDL
MODEL      185
REMARK 921   NORMALIZED FREE ENERGY PREDICTED BY IDOCK:   -2.97 KCAL/MOL
REMARK 922        TOTAL FREE ENERGY PREDICTED BY IDOCK:   -3.83 KCAL/MOL
REMARK 923 INTER-LIGAND FREE ENERGY PREDICTED BY IDOCK:   -4.16 KCAL/MOL
REMARK 924 INTRA-LIGAND FREE ENERGY PREDICTED BY IDOCK:    0.32 KCAL/MOL
REMARK 927      BINDING AFFINITY PREDICTED BY RF-SCORE:    0.00 PKD
ROOT
HETATM    1  O   UNL     1     -10.133  12.379  68.036  1.00  0.00    -0.202 OA 
HETATM    2  C   UNL     1     -10.579  12.971  69.248  1.00  0.00     0.150 C  
HETATM    3  H   UNL     1      -9.764  11.511  68.145  1.00  0.00     0.000 HD 
ENDROOT
BRANCH   2   4
HETATM    4  C   UNL     1     -11.499  12.035  70.013  1.00  0.00    -0.183 A  
HETATM    5  C   UNL     1     -13.219  10.346  71.467  1.00  0.00    -0.485 A  
HETATM    6  C   UNL     1     -12.352  12.554  71.003  1.00  0.00    -0.307 A  
HETATM    7  C   UNL     1     -11.535  10.656  69.762  1.00  0.00    -0.375 A  
HETATM    8  C   UNL     1     -12.391   9.817  70.479  1.00  0.00    -0.173 A  
HETATM    9  C   UNL     1     -13.199  11.713  71.730  1.00  0.00    -0.438 A  
ENDBRANCH   2   4
BRANCH   2  10
HETATM   10  C   UNL     1     -11.177  14.378  69.070  1.00  0.00    -0.264 C  
HETATM   11  O   UNL     1     -12.381  14.581  69.251  1.00  0.00    -0.263 OA 
BRANCH  10  12
HETATM   12  C   UNL     1     -10.313  15.526  68.662  1.00  0.00    -0.219 A  
HETATM   13  C   UNL     1     -10.903  16.567  67.930  1.00  0.00    -0.326 A  
HETATM   14  C   UNL     1      -8.787  17.727  67.837  1.00  0.00    -0.251 A  
HETATM   15  C   UNL     1     -10.140  17.660  67.515  1.00  0.00    -0.337 A  
HETATM   16  C   UNL     1      -8.197  16.710  68.584  1.00  0.00    -0.245 A  
HETATM   17  C   UNL     1      -8.959  15.617  69.001  1.00  0.00    -0.239 A  
ENDBRANCH  10  12
ENDBRANCH   2  10
TORSDOF 3
ENDMDL
MODEL      186
REMARK 921   NORMALIZED FREE ENERGY PREDICTED BY IDOCK:   -2.92 KCAL/MOL
REMARK 922        TOTAL FREE ENERGY PREDICTED BY IDOCK:   -3.77 KCAL/MOL
REMARK 923 INTER-LIGAND FREE ENERGY PREDICTED BY IDOCK:   -3.42 KCAL/MOL
REMARK 924 INTRA-LIGAND FREE ENERGY PREDICTED BY IDOCK:   -0.35 KCAL/MOL
REMARK 927      BINDING AFFINITY PREDICTED BY RF-SCORE:    0.00 PKD
ROOT
HETATM    1  O   UNL     1      -7.830   7.358  67.272  1.00  0.00    -0.110 OA 
HETATM    2  C   UNL     1      -8.972   6.522  67.141  1.00  0.00    -0.113 C  
HETATM    3  H   UNL     1      -7.005   6.898  67.170  1.00  0.00     0.000 HD 
ENDROOT
BRANCH   2   4
HETATM    4  C   UNL     1      -8.911   5.700  65.865  1.00  0.00    -0.160 A  
HETATM    5  C   UNL     1      -8.827   4.132  63.530  1.00  0.00    -0.123 A  
HETATM    6  C   UNL     1      -9.591   4.471  65.798  1.00  0.00    -0.192 A  
HETATM    7  C   UNL     1      -8.199   6.129  64.736  1.00  0.00    -0.112 A  
HETATM    8  C   UNL     1      -8.161   5.353  63.575  1.00  0.00    -0.113 A  
HETATM    9  C   UNL     1      -9.541   3.689  64.641  1.00  0.00    -0.172 A  
ENDBRANCH   2   4
BRANCH   2  10
HETATM   10  C   UNL     1     -10.309   7.267  67.307  1.00  0.00    -0.279 C  
HETATM   11  O   UNL     1     -11.350   6.650  67.551  1.00  0.00    -0.271 OA 
BRANCH  10  12
HETATM   12  C   UNL     1     -10.377   8.752  67.162  1.00  0.00    -0.364 A  
HETATM   13  C   UNL     1     -10.002   9.311  65.932  1.00  0.00    -0.289 A  
HETATM   14  C   UNL     1     -10.457  11.527  66.779  1.00  0.00    -0.275 A  
HETATM   15  C   UNL     1     -10.037  10.695  65.744  1.00  0.00    -0.327 A  
HETATM   16  C   UNL     1     -10.852  10.979  67.997  1.00  0.00    -0.278 A  
HETATM   17  C   UNL     1     -10.819   9.596  68.185  1.00  0.00    -0.241 A  
ENDBRANCH  10  12
ENDBRANCH   2  10
TORSDOF 3
ENDMDL
MODEL      187
REMARK 921   NORMALIZED FREE ENERGY PREDICTED BY IDOCK:   -2.85 KCAL/MOL
REMARK 922        TOTAL FREE ENERGY PREDICTED BY IDOCK:   -3.69 KCAL/MOL
REMARK 923 INTER-LIGAND FREE ENERGY PREDICTED BY IDOCK:   -3.34 KCAL/MOL
REMARK 924 INTRA-LIGAND FREE ENERGY PREDICTED BY IDOCK:   -0.34 KCAL/MOL
REMARK 927      BINDING AFFINITY PREDICTED BY RF-SCORE:    0.00 PKD
ROOT
HETATM    1  O   UNL     1      -7.511   5.578  67.515  1.00  0.00    -0.082 OA 
HETATM    2  C   UNL     1      -8.847   5.134  67.321  1.00  0.00    -0.105 C  
HETATM    3  H   UNL     1      -6.856   4.993  67.154  1.00  0.00     0.000 HD 
ENDROOT
BRANCH   2   4
HETATM    4  C   UNL     1      -9.107   4.788  65.864  1.00  0.00    -0.137 A  
HETATM    5  C   UNL     1      -9.542   4.180  63.151  1.00  0.00    -0.132 A  
HETATM    6  C   UNL     1      -8.165   5.148  64.885  1.00  0.00    -0.136 A  
HETATM    7  C   UNL     1     -10.264   4.110  65.456  1.00  0.00    -0.173 A  
HETATM    8  C   UNL     1     -10.479   3.803  64.110  1.00  0.00    -0.267 A  
HETATM    9  C   UNL     1      -8.386   4.853  63.538  1.00  0.00    -0.122 A  
ENDBRANCH   2   4
BRANCH   2  10
HETATM   10  C   UNL     1      -9.908   6.082  67.906  1.00  0.00    -0.120 C  
HETATM   11  O   UNL     1     -10.467   6.922  67.195  1.00  0.00    -0.232 OA 
BRANCH  10  12
HETATM   12  C   UNL     1     -10.276   6.014  69.352  1.00  0.00    -0.269 A  
HETATM   13  C   UNL     1     -11.222   6.930  69.835  1.00  0.00    -0.334 A  
HETATM   14  C   UNL     1     -11.037   5.982  72.049  1.00  0.00    -0.325 A  
HETATM   15  C   UNL     1     -11.597   6.917  71.180  1.00  0.00    -0.363 A  
HETATM   16  C   UNL     1     -10.114   5.054  71.574  1.00  0.00    -0.263 A  
HETATM   17  C   UNL     1      -9.740   5.065  70.229  1.00  0.00    -0.285 A  
ENDBRANCH  10  12
ENDBRANCH   2  10
TORSDOF 3
ENDMDL
MODEL      188
REMARK 921   NORMALIZED FREE ENERGY PREDICTED BY IDOCK:   -2.69 KCAL/MOL
REMARK 922        TOTAL FREE ENERGY PREDICTED BY IDOCK:   -3.50 KCAL/MOL
REMARK 923 INTER-LIGAND FREE ENERGY PREDICTED BY IDOCK:   -2.92 KCAL/MOL
REMARK 924 INTRA-LIGAND FREE ENERGY PREDICTED BY IDOCK:   -0.58 KCAL/MOL
REMARK 927      BINDING AFFINITY PREDICTED BY RF-SCORE:    0.00 PKD
ROOT
HETATM    1  O   UNL     1      -7.057  13.560  69.542  1.00  0.00    -0.311 OA 
HETATM    2  C   UNL     1      -8.393  13.850  69.152  1.00  0.00     0.316 C  
HETATM    3  H   UNL     1      -6.882  12.634  69.654  1.00  0.00     0.000 HD 
ENDROOT
BRANCH   2   4
HETATM    4  C   UNL     1      -8.806  13.026  67.945  1.00  0.00    -0.193 A  
HETATM    5  C   UNL     1      -9.517  11.476  65.706  1.00  0.00    -0.255 A  
HETATM    6  C   UNL     1      -7.920  12.068  67.421  1.00  0.00    -0.165 A  
HETATM    7  C   UNL     1     -10.057  13.181  67.330  1.00  0.00    -0.229 A  
HETATM    8  C   UNL     1     -10.412  12.409  66.222  1.00  0.00    -0.271 A  
HETATM    9  C   UNL     1      -8.271  11.306  66.304  1.00  0.00    -0.126 A  
ENDBRANCH   2   4
BRANCH   2  10
HETATM   10  C   UNL     1      -8.675  15.353  68.972  1.00  0.00    -0.231 C  
HETATM   11  O   UNL     1      -9.597  15.900  69.583  1.00  0.00    -0.259 OA 
BRANCH  10  12
HETATM   12  C   UNL     1      -7.847  16.178  68.042  1.00  0.00    -0.150 A  
HETATM   13  C   UNL     1      -8.455  16.669  66.878  1.00  0.00    -0.246 A  
HETATM   14  C   UNL     1      -6.386  17.730  66.223  1.00  0.00    -0.269 A  
HETATM   15  C   UNL     1      -7.725  17.438  65.970  1.00  0.00    -0.233 A  
HETATM   16  C   UNL     1      -5.780  17.265  67.388  1.00  0.00    -0.159 A  
HETATM   17  C   UNL     1      -6.509  16.498  68.298  1.00  0.00    -0.137 A  
ENDBRANCH  10  12
ENDBRANCH   2  10
TORSDOF 3
ENDMDL
MODEL      189
REMARK 921   NORMALIZED FREE ENERGY PREDICTED BY IDOCK:   -2.49 KCAL/MOL
REMARK 922        TOTAL FREE ENERGY PREDICTED BY IDOCK:   -3.27 KCAL/MOL
REMARK 923 INTER-LIGAND FREE ENERGY PREDICTED BY IDOCK:   -2.74 KCAL/MOL
REMARK 924 INTRA-LIGAND FREE ENERGY PREDICTED BY IDOCK:   -0.53 KCAL/MOL
REMARK 927      BINDING AFFINITY PREDICTED BY RF-SCORE:    0.00 PKD
ROOT
HETATM    1  O   UNL     1      -9.086  19.943  65.607  1.00  0.00    -0.406 OA 
HETATM    2  C   UNL     1      -8.735  18.601  65.915  1.00  0.00     0.203 C  
HETATM    3  H   UNL     1     -10.022  20.107  65.615  1.00  0.00     0.000 HD 
ENDROOT
BRANCH   2   4
HETATM    4  C   UNL     1      -9.401  18.137  67.199  1.00  0.00    -0.263 A  
HETATM    5  C   UNL     1     -10.627  17.332  69.600  1.00  0.00     0.104 A  
HETATM    6  C   UNL     1      -9.728  19.077  68.192  1.00  0.00    -0.412 A  
HETATM    7  C   UNL     1      -9.710  16.789  67.432  1.00  0.00    -0.245 A  
HETATM    8  C   UNL     1     -10.324  16.389  68.622  1.00  0.00    -0.273 A  
HETATM    9  C   UNL     1     -10.329  18.675  69.387  1.00  0.00     0.343 A  
ENDBRANCH   2   4
BRANCH   2  10
HETATM   10  C   UNL     1      -7.219  18.336  65.901  1.00  0.00    -0.235 C  
HETATM   11  O   UNL     1      -6.538  18.613  64.909  1.00  0.00    -0.514 OA 
BRANCH  10  12
HETATM   12  C   UNL     1      -6.541  17.727  67.084  1.00  0.00    -0.191 A  
HETATM   13  C   UNL     1      -6.343  18.532  68.216  1.00  0.00    -0.206 A  
HETATM   14  C   UNL     1      -5.273  16.693  69.360  1.00  0.00    -0.136 A  
HETATM   15  C   UNL     1      -5.706  18.017  69.347  1.00  0.00    -0.221 A  
HETATM   16  C   UNL     1      -5.486  15.880  68.249  1.00  0.00    -0.110 A  
HETATM   17  C   UNL     1      -6.124  16.393  67.118  1.00  0.00    -0.182 A  
ENDBRANCH  10  12
ENDBRANCH   2  10
TORSDOF 3
ENDMDL
MODEL      190
REMARK 921   NORMALIZED FREE ENERGY PREDICTED BY IDOCK:   -1.29 KCAL/MOL
REMARK 922        TOTAL FREE ENERGY PREDICTED BY IDOCK:   -1.85 KCAL/MOL
REMARK 923 INTER-LIGAND FREE ENERGY PREDICTED BY IDOCK:   -1.57 KCAL/MOL
REMARK 924 INTRA-LIGAND FREE ENERGY PREDICTED BY IDOCK:   -0.28 KCAL/MOL
REMARK 927      BINDING AFFINITY PREDICTED BY RF-SCORE:    0.00 PKD
ROOT
HETATM    1  O   UNL     1      -6.292  14.054  71.173  1.00  0.00    -0.429 OA 
HETATM    2  C   UNL     1      -7.275  13.946  70.152  1.00  0.00     0.654 C  
HETATM    3  H   UNL     1      -5.955  13.218  71.472  1.00  0.00     0.000 HD 
ENDROOT
BRANCH   2   4
HETATM    4  C   UNL     1      -6.792  13.066  69.012  1.00  0.00    -0.081 A  
HETATM    5  C   UNL     1      -5.948  11.449  66.869  1.00  0.00    -0.122 A  
HETATM    6  C   UNL     1      -7.523  13.021  67.811  1.00  0.00    -0.146 A  
HETATM    7  C   UNL     1      -5.627  12.293  69.110  1.00  0.00    -0.066 A  
HETATM    8  C   UNL     1      -5.204  11.493  68.045  1.00  0.00    -0.044 A  
HETATM    9  C   UNL     1      -7.108  12.210  66.752  1.00  0.00     0.095 A  
ENDBRANCH   2   4
BRANCH   2  10
HETATM   10  C   UNL     1      -7.821  15.301  69.669  1.00  0.00    -0.144 C  
HETATM   11  O   UNL     1      -8.983  15.638  69.912  1.00  0.00    -0.142 OA 
BRANCH  10  12
HETATM   12  C   UNL     1      -6.958  16.233  68.883  1.00  0.00    -0.170 A  
HETATM   13  C   UNL     1      -7.001  16.149  67.484  1.00  0.00    -0.196 A  
HETATM   14  C   UNL     1      -5.376  17.928  67.308  1.00  0.00    -0.145 A  
HETATM   15  C   UNL     1      -6.208  16.990  66.700  1.00  0.00    -0.240 A  
HETATM   16  C   UNL     1      -5.344  18.034  68.696  1.00  0.00    -0.159 A  
HETATM   17  C   UNL     1      -6.137  17.195  69.481  1.00  0.00    -0.238 A  
ENDBRANCH  10  12
ENDBRANCH   2  10
TORSDOF 3
ENDMDL
