MODEL        1
REMARK 921   NORMALIZED FREE ENERGY PREDICTED BY IDOCK:   -4.25 KCAL/MOL
REMARK 922        TOTAL FREE ENERGY PREDICTED BY IDOCK:   -4.51 KCAL/MOL
REMARK 923 INTER-LIGAND FREE ENERGY PREDICTED BY IDOCK:   -4.50 KCAL/MOL
REMARK 924 INTRA-LIGAND FREE ENERGY PREDICTED BY IDOCK:   -0.01 KCAL/MOL
REMARK 927      BINDING AFFINITY PREDICTED BY RF-SCORE:    0.00 PKD
ROOT
HETATM    1  O   UNL     1     -11.500  16.491  63.772  1.00  0.00    -1.615 OA 
HETATM    2  C   UNL     1     -11.051  15.726  64.884  1.00  0.00    -0.399 C  
HETATM    3  H   UNL     1     -11.461  17.422  63.957  1.00  0.00     0.000 HD 
ENDROOT
BRANCH   2   4
HETATM    4  C   UNL     1     -11.113  14.250  64.592  1.00  0.00    -0.371 A  
HETATM    5  C   UNL     1     -10.163  13.387  65.156  1.00  0.00    -0.316 A  
HETATM    6  C   UNL     1     -10.219  12.011  64.919  1.00  0.00    -0.302 A  
HETATM    7  C   UNL     1     -11.235  11.481  64.125  1.00  0.00    -0.393 A  
HETATM    8  C   UNL     1     -12.198  12.324  63.575  1.00  0.00    -0.669 A  
HETATM    9  C   UNL     1     -12.142  13.699  63.813  1.00  0.00    -0.435 A  
ENDBRANCH   2   4
TORSDOF 1
ENDMDL
MODEL        2
REMARK 921   NORMALIZED FREE ENERGY PREDICTED BY IDOCK:   -4.24 KCAL/MOL
REMARK 922        TOTAL FREE ENERGY PREDICTED BY IDOCK:   -4.50 KCAL/MOL
REMARK 923 INTER-LIGAND FREE ENERGY PREDICTED BY IDOCK:   -4.48 KCAL/MOL
REMARK 924 INTRA-LIGAND FREE ENERGY PREDICTED BY IDOCK:   -0.02 KCAL/MOL
REMARK 927      BINDING AFFINITY PREDICTED BY RF-SCORE:    0.00 PKD
ROOT
HETATM    1  O   UNL     1     -11.650  16.450  63.816  1.00  0.00    -1.605 OA 
HETATM    2  C   UNL     1     -11.221  15.699  64.945  1.00  0.00    -0.369 C  
HETATM    3  H   UNL     1     -11.647  17.382  64.001  1.00  0.00     0.000 HD 
ENDROOT
BRANCH   2   4
HETATM    4  C   UNL     1     -11.226  14.222  64.651  1.00  0.00    -0.370 A  
HETATM    5  C   UNL     1     -12.230  13.676  63.838  1.00  0.00    -0.429 A  
HETATM    6  C   UNL     1     -12.236  12.313  63.531  1.00  0.00    -0.669 A  
HETATM    7  C   UNL     1     -11.232  11.482  64.025  1.00  0.00    -0.414 A  
HETATM    8  C   UNL     1     -10.218  12.014  64.818  1.00  0.00    -0.311 A  
HETATM    9  C   UNL     1     -10.211  13.376  65.123  1.00  0.00    -0.316 A  
ENDBRANCH   2   4
TORSDOF 1
ENDMDL
MODEL        3
REMARK 921   NORMALIZED FREE ENERGY PREDICTED BY IDOCK:   -4.11 KCAL/MOL
REMARK 922        TOTAL FREE ENERGY PREDICTED BY IDOCK:   -4.36 KCAL/MOL
REMARK 923 INTER-LIGAND FREE ENERGY PREDICTED BY IDOCK:   -4.35 KCAL/MOL
REMARK 924 INTRA-LIGAND FREE ENERGY PREDICTED BY IDOCK:   -0.01 KCAL/MOL
REMARK 927      BINDING AFFINITY PREDICTED BY RF-SCORE:    0.00 PKD
ROOT
HETATM    1  O   UNL     1     -11.644  16.355  63.776  1.00  0.00    -1.605 OA 
HETATM    2  C   UNL     1     -10.943  16.070  64.980  1.00  0.00    -0.380 C  
HETATM    3  H   UNL     1     -11.529  17.261  63.517  1.00  0.00     0.000 HD 
ENDROOT
BRANCH   2   4
HETATM    4  C   UNL     1     -11.125  14.633  65.391  1.00  0.00    -0.349 A  
HETATM    5  C   UNL     1     -10.592  13.608  64.596  1.00  0.00    -0.446 A  
HETATM    6  C   UNL     1     -10.727  12.269  64.973  1.00  0.00    -0.336 A  
HETATM    7  C   UNL     1     -11.386  11.941  66.157  1.00  0.00    -0.383 A  
HETATM    8  C   UNL     1     -11.903  12.950  66.966  1.00  0.00    -0.437 A  
HETATM    9  C   UNL     1     -11.768  14.287  66.589  1.00  0.00    -0.417 A  
ENDBRANCH   2   4
TORSDOF 1
ENDMDL
MODEL        4
REMARK 921   NORMALIZED FREE ENERGY PREDICTED BY IDOCK:   -4.06 KCAL/MOL
REMARK 922        TOTAL FREE ENERGY PREDICTED BY IDOCK:   -4.32 KCAL/MOL
REMARK 923 INTER-LIGAND FREE ENERGY PREDICTED BY IDOCK:   -4.30 KCAL/MOL
REMARK 924 INTRA-LIGAND FREE ENERGY PREDICTED BY IDOCK:   -0.01 KCAL/MOL
REMARK 927      BINDING AFFINITY PREDICTED BY RF-SCORE:    0.00 PKD
ROOT
HETATM    1  O   UNL     1     -11.431  16.560  63.833  1.00  0.00    -1.608 OA 
HETATM    2  C   UNL     1     -10.768  16.215  65.043  1.00  0.00    -0.337 C  
HETATM    3  H   UNL     1     -11.272  17.467  63.600  1.00  0.00     0.000 HD 
ENDROOT
BRANCH   2   4
HETATM    4  C   UNL     1     -11.020  14.777  65.413  1.00  0.00    -0.365 A  
HETATM    5  C   UNL     1     -11.575  14.465  66.662  1.00  0.00    -0.396 A  
HETATM    6  C   UNL     1     -11.841  13.139  67.013  1.00  0.00    -0.435 A  
HETATM    7  C   UNL     1     -11.566  12.110  66.113  1.00  0.00    -0.418 A  
HETATM    8  C   UNL     1     -11.033  12.407  64.862  1.00  0.00    -0.341 A  
HETATM    9  C   UNL     1     -10.768  13.732  64.511  1.00  0.00    -0.405 A  
ENDBRANCH   2   4
TORSDOF 1
ENDMDL
MODEL        5
REMARK 921   NORMALIZED FREE ENERGY PREDICTED BY IDOCK:   -3.96 KCAL/MOL
REMARK 922        TOTAL FREE ENERGY PREDICTED BY IDOCK:   -4.20 KCAL/MOL
REMARK 923 INTER-LIGAND FREE ENERGY PREDICTED BY IDOCK:   -4.20 KCAL/MOL
REMARK 924 INTRA-LIGAND FREE ENERGY PREDICTED BY IDOCK:   -0.01 KCAL/MOL
REMARK 927      BINDING AFFINITY PREDICTED BY RF-SCORE:    0.00 PKD
ROOT
HETATM    1  O   UNL     1     -13.251  15.996  74.036  1.00  0.00    -0.890 OA 
HETATM    2  C   UNL     1     -13.896  15.823  72.780  1.00  0.00    -0.523 C  
HETATM    3  H   UNL     1     -13.613  16.736  74.509  1.00  0.00     0.000 HD 
ENDROOT
BRANCH   2   4
HETATM    4  C   UNL     1     -13.321  14.650  72.030  1.00  0.00    -0.459 A  
HETATM    5  C   UNL     1     -13.651  13.344  72.419  1.00  0.00    -0.708 A  
HETATM    6  C   UNL     1     -13.150  12.243  71.719  1.00  0.00    -0.449 A  
HETATM    7  C   UNL     1     -12.323  12.437  70.614  1.00  0.00    -0.367 A  
HETATM    8  C   UNL     1     -12.003  13.728  70.204  1.00  0.00    -0.404 A  
HETATM    9  C   UNL     1     -12.504  14.828  70.903  1.00  0.00    -0.396 A  
ENDBRANCH   2   4
TORSDOF 1
ENDMDL
MODEL        6
REMARK 921   NORMALIZED FREE ENERGY PREDICTED BY IDOCK:   -3.96 KCAL/MOL
REMARK 922        TOTAL FREE ENERGY PREDICTED BY IDOCK:   -4.20 KCAL/MOL
REMARK 923 INTER-LIGAND FREE ENERGY PREDICTED BY IDOCK:   -4.19 KCAL/MOL
REMARK 924 INTRA-LIGAND FREE ENERGY PREDICTED BY IDOCK:   -0.02 KCAL/MOL
REMARK 927      BINDING AFFINITY PREDICTED BY RF-SCORE:    0.00 PKD
ROOT
HETATM    1  O   UNL     1     -13.965   9.067  73.241  1.00  0.00    -1.205 OA 
HETATM    2  C   UNL     1     -13.288   8.982  71.993  1.00  0.00    -0.438 C  
HETATM    3  H   UNL     1     -14.209   8.207  73.560  1.00  0.00     0.000 HD 
ENDROOT
BRANCH   2   4
HETATM    4  C   UNL     1     -12.902  10.347  71.487  1.00  0.00    -0.569 A  
HETATM    5  C   UNL     1     -12.066  10.465  70.367  1.00  0.00    -0.402 A  
HETATM    6  C   UNL     1     -11.718  11.722  69.866  1.00  0.00    -0.399 A  
HETATM    7  C   UNL     1     -12.213  12.876  70.473  1.00  0.00    -0.395 A  
HETATM    8  C   UNL     1     -13.060  12.773  71.573  1.00  0.00    -0.380 A  
HETATM    9  C   UNL     1     -13.408  11.517  72.073  1.00  0.00    -0.397 A  
ENDBRANCH   2   4
TORSDOF 1
ENDMDL
MODEL        7
REMARK 921   NORMALIZED FREE ENERGY PREDICTED BY IDOCK:   -3.94 KCAL/MOL
REMARK 922        TOTAL FREE ENERGY PREDICTED BY IDOCK:   -4.18 KCAL/MOL
REMARK 923 INTER-LIGAND FREE ENERGY PREDICTED BY IDOCK:   -4.17 KCAL/MOL
REMARK 924 INTRA-LIGAND FREE ENERGY PREDICTED BY IDOCK:   -0.02 KCAL/MOL
REMARK 927      BINDING AFFINITY PREDICTED BY RF-SCORE:    0.00 PKD
ROOT
HETATM    1  O   UNL     1     -12.298  14.707  68.345  1.00  0.00    -0.603 OA 
HETATM    2  C   UNL     1     -11.720  15.714  69.167  1.00  0.00    -0.390 C  
HETATM    3  H   UNL     1     -11.940  14.733  67.466  1.00  0.00     0.000 HD 
ENDROOT
BRANCH   2   4
HETATM    4  C   UNL     1     -12.287  15.672  70.561  1.00  0.00    -0.443 A  
HETATM    5  C   UNL     1     -11.625  16.337  71.603  1.00  0.00    -0.436 A  
HETATM    6  C   UNL     1     -12.148  16.333  72.899  1.00  0.00    -0.625 A  
HETATM    7  C   UNL     1     -13.348  15.673  73.164  1.00  0.00    -0.660 A  
HETATM    8  C   UNL     1     -14.026  15.025  72.135  1.00  0.00    -0.610 A  
HETATM    9  C   UNL     1     -13.503  15.030  70.841  1.00  0.00    -0.402 A  
ENDBRANCH   2   4
TORSDOF 1
ENDMDL
MODEL        8
REMARK 921   NORMALIZED FREE ENERGY PREDICTED BY IDOCK:   -3.92 KCAL/MOL
REMARK 922        TOTAL FREE ENERGY PREDICTED BY IDOCK:   -4.16 KCAL/MOL
REMARK 923 INTER-LIGAND FREE ENERGY PREDICTED BY IDOCK:   -4.15 KCAL/MOL
REMARK 924 INTRA-LIGAND FREE ENERGY PREDICTED BY IDOCK:   -0.01 KCAL/MOL
REMARK 927      BINDING AFFINITY PREDICTED BY RF-SCORE:    0.00 PKD
ROOT
HETATM    1  O   UNL     1     -12.296  14.956  68.335  1.00  0.00    -0.586 OA 
HETATM    2  C   UNL     1     -11.559  14.279  69.346  1.00  0.00    -0.306 C  
HETATM    3  H   UNL     1     -11.975  14.735  67.469  1.00  0.00     0.000 HD 
ENDROOT
BRANCH   2   4
HETATM    4  C   UNL     1     -12.067  14.629  70.720  1.00  0.00    -0.387 A  
HETATM    5  C   UNL     1     -12.948  13.760  71.380  1.00  0.00    -0.433 A  
HETATM    6  C   UNL     1     -13.410  14.054  72.665  1.00  0.00    -0.643 A  
HETATM    7  C   UNL     1     -12.986  15.215  73.310  1.00  0.00    -0.645 A  
HETATM    8  C   UNL     1     -12.097  16.078  72.674  1.00  0.00    -0.640 A  
HETATM    9  C   UNL     1     -11.635  15.783  71.390  1.00  0.00    -0.511 A  
ENDBRANCH   2   4
TORSDOF 1
ENDMDL
MODEL        9
REMARK 921   NORMALIZED FREE ENERGY PREDICTED BY IDOCK:   -3.91 KCAL/MOL
REMARK 922        TOTAL FREE ENERGY PREDICTED BY IDOCK:   -4.15 KCAL/MOL
REMARK 923 INTER-LIGAND FREE ENERGY PREDICTED BY IDOCK:   -4.13 KCAL/MOL
REMARK 924 INTRA-LIGAND FREE ENERGY PREDICTED BY IDOCK:   -0.02 KCAL/MOL
REMARK 927      BINDING AFFINITY PREDICTED BY RF-SCORE:    0.00 PKD
ROOT
HETATM    1  O   UNL     1     -11.300  16.958  64.236  1.00  0.00    -1.296 OA 
HETATM    2  C   UNL     1     -10.644  16.424  65.379  1.00  0.00    -0.320 C  
HETATM    3  H   UNL     1     -11.507  16.277  63.607  1.00  0.00     0.000 HD 
ENDROOT
BRANCH   2   4
HETATM    4  C   UNL     1     -10.316  17.504  66.375  1.00  0.00    -0.334 A  
HETATM    5  C   UNL     1     -10.244  18.841  65.956  1.00  0.00    -0.413 A  
HETATM    6  C   UNL     1      -9.968  19.861  66.870  1.00  0.00    -0.563 A  
HETATM    7  C   UNL     1      -9.773  19.557  68.216  1.00  0.00    -0.495 A  
HETATM    8  C   UNL     1      -9.861  18.237  68.650  1.00  0.00    -0.400 A  
HETATM    9  C   UNL     1     -10.138  17.218  67.737  1.00  0.00    -0.311 A  
ENDBRANCH   2   4
TORSDOF 1
ENDMDL
MODEL       10
REMARK 921   NORMALIZED FREE ENERGY PREDICTED BY IDOCK:   -3.89 KCAL/MOL
REMARK 922        TOTAL FREE ENERGY PREDICTED BY IDOCK:   -4.13 KCAL/MOL
REMARK 923 INTER-LIGAND FREE ENERGY PREDICTED BY IDOCK:   -4.12 KCAL/MOL
REMARK 924 INTRA-LIGAND FREE ENERGY PREDICTED BY IDOCK:   -0.02 KCAL/MOL
REMARK 927      BINDING AFFINITY PREDICTED BY RF-SCORE:    0.00 PKD
ROOT
HETATM    1  O   UNL     1     -12.509  14.068  63.184  1.00  0.00    -1.137 OA 
HETATM    2  C   UNL     1     -12.156  12.785  63.687  1.00  0.00    -0.543 C  
HETATM    3  H   UNL     1     -12.650  14.042  62.245  1.00  0.00     0.000 HD 
ENDROOT
BRANCH   2   4
HETATM    4  C   UNL     1     -11.932  12.825  65.176  1.00  0.00    -0.466 A  
HETATM    5  C   UNL     1     -11.280  11.759  65.812  1.00  0.00    -0.337 A  
HETATM    6  C   UNL     1     -11.039  11.790  67.188  1.00  0.00    -0.350 A  
HETATM    7  C   UNL     1     -11.437  12.893  67.942  1.00  0.00    -0.362 A  
HETATM    8  C   UNL     1     -12.067  13.968  67.320  1.00  0.00    -0.405 A  
HETATM    9  C   UNL     1     -12.307  13.938  65.945  1.00  0.00    -0.517 A  
ENDBRANCH   2   4
TORSDOF 1
ENDMDL
MODEL       11
REMARK 921   NORMALIZED FREE ENERGY PREDICTED BY IDOCK:   -3.88 KCAL/MOL
REMARK 922        TOTAL FREE ENERGY PREDICTED BY IDOCK:   -4.12 KCAL/MOL
REMARK 923 INTER-LIGAND FREE ENERGY PREDICTED BY IDOCK:   -4.10 KCAL/MOL
REMARK 924 INTRA-LIGAND FREE ENERGY PREDICTED BY IDOCK:   -0.02 KCAL/MOL
REMARK 927      BINDING AFFINITY PREDICTED BY RF-SCORE:    0.00 PKD
ROOT
HETATM    1  O   UNL     1     -14.094   8.973  73.316  1.00  0.00    -1.218 OA 
HETATM    2  C   UNL     1     -13.165   8.733  72.266  1.00  0.00    -0.412 C  
HETATM    3  H   UNL     1     -14.328   8.166  73.759  1.00  0.00     0.000 HD 
ENDROOT
BRANCH   2   4
HETATM    4  C   UNL     1     -12.794  10.013  71.564  1.00  0.00    -0.537 A  
HETATM    5  C   UNL     1     -13.268  11.239  72.052  1.00  0.00    -0.437 A  
HETATM    6  C   UNL     1     -12.913  12.439  71.431  1.00  0.00    -0.348 A  
HETATM    7  C   UNL     1     -12.070  12.427  70.321  1.00  0.00    -0.377 A  
HETATM    8  C   UNL     1     -11.576  11.219  69.837  1.00  0.00    -0.413 A  
HETATM    9  C   UNL     1     -11.930  10.020  70.458  1.00  0.00    -0.357 A  
ENDBRANCH   2   4
TORSDOF 1
ENDMDL
MODEL       12
REMARK 921   NORMALIZED FREE ENERGY PREDICTED BY IDOCK:   -3.87 KCAL/MOL
REMARK 922        TOTAL FREE ENERGY PREDICTED BY IDOCK:   -4.11 KCAL/MOL
REMARK 923 INTER-LIGAND FREE ENERGY PREDICTED BY IDOCK:   -4.09 KCAL/MOL
REMARK 924 INTRA-LIGAND FREE ENERGY PREDICTED BY IDOCK:   -0.02 KCAL/MOL
REMARK 927      BINDING AFFINITY PREDICTED BY RF-SCORE:    0.00 PKD
ROOT
HETATM    1  O   UNL     1     -12.527  13.982  63.060  1.00  0.00    -1.101 OA 
HETATM    2  C   UNL     1     -11.917  12.800  63.562  1.00  0.00    -0.555 C  
HETATM    3  H   UNL     1     -12.599  13.956  62.113  1.00  0.00     0.000 HD 
ENDROOT
BRANCH   2   4
HETATM    4  C   UNL     1     -11.801  12.841  65.063  1.00  0.00    -0.423 A  
HETATM    5  C   UNL     1     -12.183  13.997  65.760  1.00  0.00    -0.475 A  
HETATM    6  C   UNL     1     -12.108  14.046  67.155  1.00  0.00    -0.436 A  
HETATM    7  C   UNL     1     -11.663  12.934  67.869  1.00  0.00    -0.405 A  
HETATM    8  C   UNL     1     -11.300  11.773  67.191  1.00  0.00    -0.387 A  
HETATM    9  C   UNL     1     -11.375  11.724  65.798  1.00  0.00    -0.309 A  
ENDBRANCH   2   4
TORSDOF 1
ENDMDL
MODEL       13
REMARK 921   NORMALIZED FREE ENERGY PREDICTED BY IDOCK:   -3.85 KCAL/MOL
REMARK 922        TOTAL FREE ENERGY PREDICTED BY IDOCK:   -4.09 KCAL/MOL
REMARK 923 INTER-LIGAND FREE ENERGY PREDICTED BY IDOCK:   -4.08 KCAL/MOL
REMARK 924 INTRA-LIGAND FREE ENERGY PREDICTED BY IDOCK:   -0.02 KCAL/MOL
REMARK 927      BINDING AFFINITY PREDICTED BY RF-SCORE:    0.00 PKD
ROOT
HETATM    1  O   UNL     1     -14.145   8.855  73.410  1.00  0.00    -1.256 OA 
HETATM    2  C   UNL     1     -13.779   9.310  72.113  1.00  0.00    -0.453 C  
HETATM    3  H   UNL     1     -15.075   8.968  73.564  1.00  0.00     0.000 HD 
ENDROOT
BRANCH   2   4
HETATM    4  C   UNL     1     -12.304   9.131  71.867  1.00  0.00    -0.455 A  
HETATM    5  C   UNL     1     -11.578   8.204  72.630  1.00  0.00    -0.441 A  
HETATM    6  C   UNL     1     -10.215   8.003  72.399  1.00  0.00    -0.347 A  
HETATM    7  C   UNL     1      -9.564   8.719  71.395  1.00  0.00    -0.337 A  
HETATM    8  C   UNL     1     -10.277   9.628  70.617  1.00  0.00    -0.346 A  
HETATM    9  C   UNL     1     -11.639   9.827  70.847  1.00  0.00    -0.441 A  
ENDBRANCH   2   4
TORSDOF 1
ENDMDL
MODEL       14
REMARK 921   NORMALIZED FREE ENERGY PREDICTED BY IDOCK:   -3.85 KCAL/MOL
REMARK 922        TOTAL FREE ENERGY PREDICTED BY IDOCK:   -4.08 KCAL/MOL
REMARK 923 INTER-LIGAND FREE ENERGY PREDICTED BY IDOCK:   -4.07 KCAL/MOL
REMARK 924 INTRA-LIGAND FREE ENERGY PREDICTED BY IDOCK:   -0.01 KCAL/MOL
REMARK 927      BINDING AFFINITY PREDICTED BY RF-SCORE:    0.00 PKD
ROOT
HETATM    1  O   UNL     1     -13.461  16.092  73.606  1.00  0.00    -0.875 OA 
HETATM    2  C   UNL     1     -14.130  15.716  72.409  1.00  0.00    -0.490 C  
HETATM    3  H   UNL     1     -13.827  16.891  73.969  1.00  0.00     0.000 HD 
ENDROOT
BRANCH   2   4
HETATM    4  C   UNL     1     -13.550  14.450  71.835  1.00  0.00    -0.491 A  
HETATM    5  C   UNL     1     -12.622  14.522  70.786  1.00  0.00    -0.418 A  
HETATM    6  C   UNL     1     -12.052  13.361  70.257  1.00  0.00    -0.419 A  
HETATM    7  C   UNL     1     -12.394  12.115  70.781  1.00  0.00    -0.391 A  
HETATM    8  C   UNL     1     -13.299  12.030  71.836  1.00  0.00    -0.408 A  
HETATM    9  C   UNL     1     -13.868  13.190  72.364  1.00  0.00    -0.583 A  
ENDBRANCH   2   4
TORSDOF 1
ENDMDL
MODEL       15
REMARK 921   NORMALIZED FREE ENERGY PREDICTED BY IDOCK:   -3.83 KCAL/MOL
REMARK 922        TOTAL FREE ENERGY PREDICTED BY IDOCK:   -4.06 KCAL/MOL
REMARK 923 INTER-LIGAND FREE ENERGY PREDICTED BY IDOCK:   -4.05 KCAL/MOL
REMARK 924 INTRA-LIGAND FREE ENERGY PREDICTED BY IDOCK:   -0.02 KCAL/MOL
REMARK 927      BINDING AFFINITY PREDICTED BY RF-SCORE:    0.00 PKD
ROOT
HETATM    1  O   UNL     1     -14.168   8.931  73.334  1.00  0.00    -1.241 OA 
HETATM    2  C   UNL     1     -13.739   9.320  72.035  1.00  0.00    -0.428 C  
HETATM    3  H   UNL     1     -15.098   9.085  73.450  1.00  0.00     0.000 HD 
ENDROOT
BRANCH   2   4
HETATM    4  C   UNL     1     -12.264   9.076  71.852  1.00  0.00    -0.451 A  
HETATM    5  C   UNL     1     -11.560   9.769  70.856  1.00  0.00    -0.441 A  
HETATM    6  C   UNL     1     -10.187   9.576  70.688  1.00  0.00    -0.364 A  
HETATM    7  C   UNL     1      -9.498   8.697  71.523  1.00  0.00    -0.320 A  
HETATM    8  C   UNL     1     -10.180   8.017  72.529  1.00  0.00    -0.361 A  
HETATM    9  C   UNL     1     -11.553   8.210  72.697  1.00  0.00    -0.441 A  
ENDBRANCH   2   4
TORSDOF 1
ENDMDL
MODEL       16
REMARK 921   NORMALIZED FREE ENERGY PREDICTED BY IDOCK:   -3.72 KCAL/MOL
REMARK 922        TOTAL FREE ENERGY PREDICTED BY IDOCK:   -3.95 KCAL/MOL
REMARK 923 INTER-LIGAND FREE ENERGY PREDICTED BY IDOCK:   -3.94 KCAL/MOL
REMARK 924 INTRA-LIGAND FREE ENERGY PREDICTED BY IDOCK:   -0.01 KCAL/MOL
REMARK 927      BINDING AFFINITY PREDICTED BY RF-SCORE:    0.00 PKD
ROOT
HETATM    1  O   UNL     1     -13.218  10.312  70.456  1.00  0.00    -0.542 OA 
HETATM    2  C   UNL     1     -12.852  10.988  71.652  1.00  0.00    -0.435 C  
HETATM    3  H   UNL     1     -13.136   9.371  70.554  1.00  0.00     0.000 HD 
ENDROOT
BRANCH   2   4
HETATM    4  C   UNL     1     -12.982  12.481  71.497  1.00  0.00    -0.379 A  
HETATM    5  C   UNL     1     -12.399  13.120  70.393  1.00  0.00    -0.351 A  
HETATM    6  C   UNL     1     -12.531  14.500  70.216  1.00  0.00    -0.405 A  
HETATM    7  C   UNL     1     -13.259  15.254  71.136  1.00  0.00    -0.567 A  
HETATM    8  C   UNL     1     -13.859  14.630  72.226  1.00  0.00    -0.583 A  
HETATM    9  C   UNL     1     -13.728  13.251  72.402  1.00  0.00    -0.678 A  
ENDBRANCH   2   4
TORSDOF 1
ENDMDL
MODEL       17
REMARK 921   NORMALIZED FREE ENERGY PREDICTED BY IDOCK:   -3.67 KCAL/MOL
REMARK 922        TOTAL FREE ENERGY PREDICTED BY IDOCK:   -3.90 KCAL/MOL
REMARK 923 INTER-LIGAND FREE ENERGY PREDICTED BY IDOCK:   -3.88 KCAL/MOL
REMARK 924 INTRA-LIGAND FREE ENERGY PREDICTED BY IDOCK:   -0.02 KCAL/MOL
REMARK 927      BINDING AFFINITY PREDICTED BY RF-SCORE:    0.00 PKD
ROOT
HETATM    1  O   UNL     1     -12.503  14.525  63.559  1.00  0.00    -1.089 OA 
HETATM    2  C   UNL     1     -12.523  14.015  64.887  1.00  0.00    -0.396 C  
HETATM    3  H   UNL     1     -13.031  15.311  63.484  1.00  0.00     0.000 HD 
ENDROOT
BRANCH   2   4
HETATM    4  C   UNL     1     -11.686  12.769  65.006  1.00  0.00    -0.391 A  
HETATM    5  C   UNL     1     -11.140  12.184  63.854  1.00  0.00    -0.470 A  
HETATM    6  C   UNL     1     -10.338  11.042  63.946  1.00  0.00    -0.436 A  
HETATM    7  C   UNL     1     -10.065  10.481  65.193  1.00  0.00    -0.383 A  
HETATM    8  C   UNL     1     -10.584  11.063  66.346  1.00  0.00    -0.308 A  
HETATM    9  C   UNL     1     -11.384  12.203  66.254  1.00  0.00    -0.411 A  
ENDBRANCH   2   4
TORSDOF 1
ENDMDL
MODEL       18
REMARK 921   NORMALIZED FREE ENERGY PREDICTED BY IDOCK:   -3.67 KCAL/MOL
REMARK 922        TOTAL FREE ENERGY PREDICTED BY IDOCK:   -3.90 KCAL/MOL
REMARK 923 INTER-LIGAND FREE ENERGY PREDICTED BY IDOCK:   -3.89 KCAL/MOL
REMARK 924 INTRA-LIGAND FREE ENERGY PREDICTED BY IDOCK:   -0.02 KCAL/MOL
REMARK 927      BINDING AFFINITY PREDICTED BY RF-SCORE:    0.00 PKD
ROOT
HETATM    1  O   UNL     1     -13.422  16.234  73.708  1.00  0.00    -0.924 OA 
HETATM    2  C   UNL     1     -13.085  14.907  73.320  1.00  0.00    -0.469 C  
HETATM    3  H   UNL     1     -13.773  16.255  74.590  1.00  0.00     0.000 HD 
ENDROOT
BRANCH   2   4
HETATM    4  C   UNL     1     -12.528  14.873  71.921  1.00  0.00    -0.403 A  
HETATM    5  C   UNL     1     -11.862  15.995  71.408  1.00  0.00    -0.531 A  
HETATM    6  C   UNL     1     -11.315  15.973  70.123  1.00  0.00    -0.369 A  
HETATM    7  C   UNL     1     -11.417  14.824  69.340  1.00  0.00    -0.330 A  
HETATM    8  C   UNL     1     -12.059  13.696  69.844  1.00  0.00    -0.406 A  
HETATM    9  C   UNL     1     -12.605  13.717  71.129  1.00  0.00    -0.452 A  
ENDBRANCH   2   4
TORSDOF 1
ENDMDL
MODEL       19
REMARK 921   NORMALIZED FREE ENERGY PREDICTED BY IDOCK:   -3.67 KCAL/MOL
REMARK 922        TOTAL FREE ENERGY PREDICTED BY IDOCK:   -3.89 KCAL/MOL
REMARK 923 INTER-LIGAND FREE ENERGY PREDICTED BY IDOCK:   -3.88 KCAL/MOL
REMARK 924 INTRA-LIGAND FREE ENERGY PREDICTED BY IDOCK:   -0.02 KCAL/MOL
REMARK 927      BINDING AFFINITY PREDICTED BY RF-SCORE:    0.00 PKD
ROOT
HETATM    1  O   UNL     1     -12.219  14.651  67.972  1.00  0.00    -0.585 OA 
HETATM    2  C   UNL     1     -11.959  13.625  68.922  1.00  0.00    -0.356 C  
HETATM    3  H   UNL     1     -11.949  14.388  67.099  1.00  0.00     0.000 HD 
ENDROOT
BRANCH   2   4
HETATM    4  C   UNL     1     -12.387  14.041  70.305  1.00  0.00    -0.425 A  
HETATM    5  C   UNL     1     -12.314  15.390  70.680  1.00  0.00    -0.451 A  
HETATM    6  C   UNL     1     -12.730  15.801  71.949  1.00  0.00    -0.516 A  
HETATM    7  C   UNL     1     -13.237  14.868  72.853  1.00  0.00    -0.590 A  
HETATM    8  C   UNL     1     -13.333  13.528  72.487  1.00  0.00    -0.617 A  
HETATM    9  C   UNL     1     -12.918  13.118  71.218  1.00  0.00    -0.339 A  
ENDBRANCH   2   4
TORSDOF 1
ENDMDL
MODEL       20
REMARK 921   NORMALIZED FREE ENERGY PREDICTED BY IDOCK:   -3.66 KCAL/MOL
REMARK 922        TOTAL FREE ENERGY PREDICTED BY IDOCK:   -3.89 KCAL/MOL
REMARK 923 INTER-LIGAND FREE ENERGY PREDICTED BY IDOCK:   -3.88 KCAL/MOL
REMARK 924 INTRA-LIGAND FREE ENERGY PREDICTED BY IDOCK:   -0.01 KCAL/MOL
REMARK 927      BINDING AFFINITY PREDICTED BY RF-SCORE:    0.00 PKD
ROOT
HETATM    1  O   UNL     1     -11.264  11.276  63.136  1.00  0.00    -0.829 OA 
HETATM    2  C   UNL     1     -12.264  12.225  63.486  1.00  0.00    -0.568 C  
HETATM    3  H   UNL     1     -11.569  10.692  62.451  1.00  0.00     0.000 HD 
ENDROOT
BRANCH   2   4
HETATM    4  C   UNL     1     -11.782  13.151  64.571  1.00  0.00    -0.417 A  
HETATM    5  C   UNL     1     -12.581  13.380  65.700  1.00  0.00    -0.496 A  
HETATM    6  C   UNL     1     -12.140  14.215  66.730  1.00  0.00    -0.474 A  
HETATM    7  C   UNL     1     -10.887  14.821  66.648  1.00  0.00    -0.319 A  
HETATM    8  C   UNL     1     -10.074  14.587  65.542  1.00  0.00    -0.394 A  
HETATM    9  C   UNL     1     -10.515  13.752  64.514  1.00  0.00    -0.378 A  
ENDBRANCH   2   4
TORSDOF 1
ENDMDL
MODEL       21
REMARK 921   NORMALIZED FREE ENERGY PREDICTED BY IDOCK:   -3.65 KCAL/MOL
REMARK 922        TOTAL FREE ENERGY PREDICTED BY IDOCK:   -3.88 KCAL/MOL
REMARK 923 INTER-LIGAND FREE ENERGY PREDICTED BY IDOCK:   -3.87 KCAL/MOL
REMARK 924 INTRA-LIGAND FREE ENERGY PREDICTED BY IDOCK:   -0.01 KCAL/MOL
REMARK 927      BINDING AFFINITY PREDICTED BY RF-SCORE:    0.00 PKD
ROOT
HETATM    1  O   UNL     1     -12.525  13.928  62.848  1.00  0.00    -1.034 OA 
HETATM    2  C   UNL     1     -11.915  13.041  63.777  1.00  0.00    -0.518 C  
HETATM    3  H   UNL     1     -12.791  13.471  62.058  1.00  0.00     0.000 HD 
ENDROOT
BRANCH   2   4
HETATM    4  C   UNL     1     -11.494  13.766  65.028  1.00  0.00    -0.340 A  
HETATM    5  C   UNL     1     -10.387  14.626  64.997  1.00  0.00    -0.432 A  
HETATM    6  C   UNL     1      -9.997  15.328  66.140  1.00  0.00    -0.325 A  
HETATM    7  C   UNL     1     -10.718  15.188  67.325  1.00  0.00    -0.305 A  
HETATM    8  C   UNL     1     -11.831  14.352  67.365  1.00  0.00    -0.430 A  
HETATM    9  C   UNL     1     -12.221  13.651  66.223  1.00  0.00    -0.484 A  
ENDBRANCH   2   4
TORSDOF 1
ENDMDL
MODEL       22
REMARK 921   NORMALIZED FREE ENERGY PREDICTED BY IDOCK:   -3.63 KCAL/MOL
REMARK 922        TOTAL FREE ENERGY PREDICTED BY IDOCK:   -3.86 KCAL/MOL
REMARK 923 INTER-LIGAND FREE ENERGY PREDICTED BY IDOCK:   -3.84 KCAL/MOL
REMARK 924 INTRA-LIGAND FREE ENERGY PREDICTED BY IDOCK:   -0.01 KCAL/MOL
REMARK 927      BINDING AFFINITY PREDICTED BY RF-SCORE:    0.00 PKD
ROOT
HETATM    1  O   UNL     1     -12.583  10.772  69.674  1.00  0.00    -0.475 OA 
HETATM    2  C   UNL     1     -12.615  11.135  71.049  1.00  0.00    -0.403 C  
HETATM    3  H   UNL     1     -12.467   9.835  69.568  1.00  0.00     0.000 HD 
ENDROOT
BRANCH   2   4
HETATM    4  C   UNL     1     -12.799  12.620  71.217  1.00  0.00    -0.344 A  
HETATM    5  C   UNL     1     -13.611  13.110  72.251  1.00  0.00    -0.677 A  
HETATM    6  C   UNL     1     -13.772  14.485  72.439  1.00  0.00    -0.583 A  
HETATM    7  C   UNL     1     -13.114  15.386  71.604  1.00  0.00    -0.540 A  
HETATM    8  C   UNL     1     -12.289  14.914  70.586  1.00  0.00    -0.406 A  
HETATM    9  C   UNL     1     -12.127  13.540  70.398  1.00  0.00    -0.415 A  
ENDBRANCH   2   4
TORSDOF 1
ENDMDL
MODEL       23
REMARK 921   NORMALIZED FREE ENERGY PREDICTED BY IDOCK:   -3.62 KCAL/MOL
REMARK 922        TOTAL FREE ENERGY PREDICTED BY IDOCK:   -3.84 KCAL/MOL
REMARK 923 INTER-LIGAND FREE ENERGY PREDICTED BY IDOCK:   -3.84 KCAL/MOL
REMARK 924 INTRA-LIGAND FREE ENERGY PREDICTED BY IDOCK:   -0.01 KCAL/MOL
REMARK 927      BINDING AFFINITY PREDICTED BY RF-SCORE:    0.00 PKD
ROOT
HETATM    1  O   UNL     1     -12.058  10.715  68.356  1.00  0.00    -0.813 OA 
HETATM    2  C   UNL     1     -11.984  11.295  69.653  1.00  0.00    -0.353 C  
HETATM    3  H   UNL     1     -12.123  11.383  67.683  1.00  0.00     0.000 HD 
ENDROOT
BRANCH   2   4
HETATM    4  C   UNL     1     -11.881  10.236  70.718  1.00  0.00    -0.459 A  
HETATM    5  C   UNL     1     -13.026   9.850  71.431  1.00  0.00    -0.504 A  
HETATM    6  C   UNL     1     -12.956   8.851  72.405  1.00  0.00    -0.467 A  
HETATM    7  C   UNL     1     -11.743   8.217  72.669  1.00  0.00    -0.419 A  
HETATM    8  C   UNL     1     -10.603   8.576  71.955  1.00  0.00    -0.408 A  
HETATM    9  C   UNL     1     -10.672   9.574  70.982  1.00  0.00    -0.411 A  
ENDBRANCH   2   4
TORSDOF 1
ENDMDL
MODEL       24
REMARK 921   NORMALIZED FREE ENERGY PREDICTED BY IDOCK:   -3.62 KCAL/MOL
REMARK 922        TOTAL FREE ENERGY PREDICTED BY IDOCK:   -3.84 KCAL/MOL
REMARK 923 INTER-LIGAND FREE ENERGY PREDICTED BY IDOCK:   -3.83 KCAL/MOL
REMARK 924 INTRA-LIGAND FREE ENERGY PREDICTED BY IDOCK:   -0.02 KCAL/MOL
REMARK 927      BINDING AFFINITY PREDICTED BY RF-SCORE:    0.00 PKD
ROOT
HETATM    1  O   UNL     1     -12.409  13.975  63.102  1.00  0.00    -1.133 OA 
HETATM    2  C   UNL     1     -12.280  14.599  64.374  1.00  0.00    -0.452 C  
HETATM    3  H   UNL     1     -12.675  14.599  62.438  1.00  0.00     0.000 HD 
ENDROOT
BRANCH   2   4
HETATM    4  C   UNL     1     -11.859  13.609  65.428  1.00  0.00    -0.370 A  
HETATM    5  C   UNL     1     -12.091  13.891  66.782  1.00  0.00    -0.476 A  
HETATM    6  C   UNL     1     -11.732  12.974  67.773  1.00  0.00    -0.405 A  
HETATM    7  C   UNL     1     -11.148  11.758  67.420  1.00  0.00    -0.338 A  
HETATM    8  C   UNL     1     -10.929  11.457  66.078  1.00  0.00    -0.286 A  
HETATM    9  C   UNL     1     -11.289  12.373  65.088  1.00  0.00    -0.367 A  
ENDBRANCH   2   4
TORSDOF 1
ENDMDL
MODEL       25
REMARK 921   NORMALIZED FREE ENERGY PREDICTED BY IDOCK:   -3.60 KCAL/MOL
REMARK 922        TOTAL FREE ENERGY PREDICTED BY IDOCK:   -3.82 KCAL/MOL
REMARK 923 INTER-LIGAND FREE ENERGY PREDICTED BY IDOCK:   -3.81 KCAL/MOL
REMARK 924 INTRA-LIGAND FREE ENERGY PREDICTED BY IDOCK:   -0.01 KCAL/MOL
REMARK 927      BINDING AFFINITY PREDICTED BY RF-SCORE:    0.00 PKD
ROOT
HETATM    1  O   UNL     1     -14.201   8.932  73.369  1.00  0.00    -1.241 OA 
HETATM    2  C   UNL     1     -14.017   8.805  71.964  1.00  0.00    -0.451 C  
HETATM    3  H   UNL     1     -15.064   9.270  73.574  1.00  0.00     0.000 HD 
ENDROOT
BRANCH   2   4
HETATM    4  C   UNL     1     -12.649   8.268  71.639  1.00  0.00    -0.355 A  
HETATM    5  C   UNL     1     -11.525   9.097  71.769  1.00  0.00    -0.452 A  
HETATM    6  C   UNL     1     -10.244   8.610  71.498  1.00  0.00    -0.345 A  
HETATM    7  C   UNL     1     -10.071   7.283  71.105  1.00  0.00    -0.190 A  
HETATM    8  C   UNL     1     -11.175   6.443  70.991  1.00  0.00    -0.370 A  
HETATM    9  C   UNL     1     -12.455   6.930  71.262  1.00  0.00    -0.409 A  
ENDBRANCH   2   4
TORSDOF 1
ENDMDL
MODEL       26
REMARK 921   NORMALIZED FREE ENERGY PREDICTED BY IDOCK:   -3.60 KCAL/MOL
REMARK 922        TOTAL FREE ENERGY PREDICTED BY IDOCK:   -3.82 KCAL/MOL
REMARK 923 INTER-LIGAND FREE ENERGY PREDICTED BY IDOCK:   -3.81 KCAL/MOL
REMARK 924 INTRA-LIGAND FREE ENERGY PREDICTED BY IDOCK:   -0.01 KCAL/MOL
REMARK 927      BINDING AFFINITY PREDICTED BY RF-SCORE:    0.00 PKD
ROOT
HETATM    1  O   UNL     1     -12.287  10.858  68.340  1.00  0.00    -0.803 OA 
HETATM    2  C   UNL     1     -11.805  11.319  69.597  1.00  0.00    -0.360 C  
HETATM    3  H   UNL     1     -12.283  11.554  67.694  1.00  0.00     0.000 HD 
ENDROOT
BRANCH   2   4
HETATM    4  C   UNL     1     -11.812  10.215  70.621  1.00  0.00    -0.431 A  
HETATM    5  C   UNL     1     -10.640   9.485  70.867  1.00  0.00    -0.395 A  
HETATM    6  C   UNL     1     -10.619   8.475  71.832  1.00  0.00    -0.392 A  
HETATM    7  C   UNL     1     -11.767   8.192  72.572  1.00  0.00    -0.457 A  
HETATM    8  C   UNL     1     -12.931   8.922  72.352  1.00  0.00    -0.467 A  
HETATM    9  C   UNL     1     -12.953   9.931  71.388  1.00  0.00    -0.504 A  
ENDBRANCH   2   4
TORSDOF 1
ENDMDL
MODEL       27
REMARK 921   NORMALIZED FREE ENERGY PREDICTED BY IDOCK:   -3.59 KCAL/MOL
REMARK 922        TOTAL FREE ENERGY PREDICTED BY IDOCK:   -3.82 KCAL/MOL
REMARK 923 INTER-LIGAND FREE ENERGY PREDICTED BY IDOCK:   -3.80 KCAL/MOL
REMARK 924 INTRA-LIGAND FREE ENERGY PREDICTED BY IDOCK:   -0.02 KCAL/MOL
REMARK 927      BINDING AFFINITY PREDICTED BY RF-SCORE:    0.00 PKD
ROOT
HETATM    1  O   UNL     1     -10.221  10.503  62.547  1.00  0.00    -0.749 OA 
HETATM    2  C   UNL     1     -10.048  10.690  63.947  1.00  0.00    -0.289 C  
HETATM    3  H   UNL     1      -9.659   9.810  62.221  1.00  0.00     0.000 HD 
ENDROOT
BRANCH   2   4
HETATM    4  C   UNL     1     -10.939  11.788  64.464  1.00  0.00    -0.382 A  
HETATM    5  C   UNL     1     -11.225  11.867  65.835  1.00  0.00    -0.373 A  
HETATM    6  C   UNL     1     -12.027  12.894  66.339  1.00  0.00    -0.462 A  
HETATM    7  C   UNL     1     -12.544  13.861  65.478  1.00  0.00    -0.560 A  
HETATM    8  C   UNL     1     -12.253  13.807  64.117  1.00  0.00    -0.443 A  
HETATM    9  C   UNL     1     -11.450  12.781  63.614  1.00  0.00    -0.544 A  
ENDBRANCH   2   4
TORSDOF 1
ENDMDL
MODEL       28
REMARK 921   NORMALIZED FREE ENERGY PREDICTED BY IDOCK:   -3.59 KCAL/MOL
REMARK 922        TOTAL FREE ENERGY PREDICTED BY IDOCK:   -3.81 KCAL/MOL
REMARK 923 INTER-LIGAND FREE ENERGY PREDICTED BY IDOCK:   -3.80 KCAL/MOL
REMARK 924 INTRA-LIGAND FREE ENERGY PREDICTED BY IDOCK:   -0.01 KCAL/MOL
REMARK 927      BINDING AFFINITY PREDICTED BY RF-SCORE:    0.00 PKD
ROOT
HETATM    1  O   UNL     1     -12.216  10.936  68.117  1.00  0.00    -0.781 OA 
HETATM    2  C   UNL     1     -11.039  11.490  67.543  1.00  0.00    -0.272 C  
HETATM    3  H   UNL     1     -12.064  10.656  69.012  1.00  0.00     0.000 HD 
ENDROOT
BRANCH   2   4
HETATM    4  C   UNL     1     -11.280  11.934  66.124  1.00  0.00    -0.387 A  
HETATM    5  C   UNL     1     -12.055  13.075  65.872  1.00  0.00    -0.503 A  
HETATM    6  C   UNL     1     -12.269  13.518  64.565  1.00  0.00    -0.445 A  
HETATM    7  C   UNL     1     -11.699  12.831  63.493  1.00  0.00    -0.597 A  
HETATM    8  C   UNL     1     -10.911  11.707  63.730  1.00  0.00    -0.495 A  
HETATM    9  C   UNL     1     -10.697  11.265  65.037  1.00  0.00    -0.322 A  
ENDBRANCH   2   4
TORSDOF 1
ENDMDL
MODEL       29
REMARK 921   NORMALIZED FREE ENERGY PREDICTED BY IDOCK:   -3.58 KCAL/MOL
REMARK 922        TOTAL FREE ENERGY PREDICTED BY IDOCK:   -3.81 KCAL/MOL
REMARK 923 INTER-LIGAND FREE ENERGY PREDICTED BY IDOCK:   -3.79 KCAL/MOL
REMARK 924 INTRA-LIGAND FREE ENERGY PREDICTED BY IDOCK:   -0.02 KCAL/MOL
REMARK 927      BINDING AFFINITY PREDICTED BY RF-SCORE:    0.00 PKD
ROOT
HETATM    1  O   UNL     1     -11.891  15.983  63.804  1.00  0.00    -1.334 OA 
HETATM    2  C   UNL     1     -12.220  14.630  64.094  1.00  0.00    -0.315 C  
HETATM    3  H   UNL     1     -12.153  16.219  62.922  1.00  0.00     0.000 HD 
ENDROOT
BRANCH   2   4
HETATM    4  C   UNL     1     -11.804  14.256  65.493  1.00  0.00    -0.363 A  
HETATM    5  C   UNL     1     -12.075  12.970  65.981  1.00  0.00    -0.493 A  
HETATM    6  C   UNL     1     -11.674  12.595  67.265  1.00  0.00    -0.435 A  
HETATM    7  C   UNL     1     -10.986  13.500  68.073  1.00  0.00    -0.271 A  
HETATM    8  C   UNL     1     -10.693  14.774  67.595  1.00  0.00    -0.270 A  
HETATM    9  C   UNL     1     -11.093  15.148  66.311  1.00  0.00    -0.309 A  
ENDBRANCH   2   4
TORSDOF 1
ENDMDL
MODEL       30
REMARK 921   NORMALIZED FREE ENERGY PREDICTED BY IDOCK:   -3.55 KCAL/MOL
REMARK 922        TOTAL FREE ENERGY PREDICTED BY IDOCK:   -3.77 KCAL/MOL
REMARK 923 INTER-LIGAND FREE ENERGY PREDICTED BY IDOCK:   -3.75 KCAL/MOL
REMARK 924 INTRA-LIGAND FREE ENERGY PREDICTED BY IDOCK:   -0.02 KCAL/MOL
REMARK 927      BINDING AFFINITY PREDICTED BY RF-SCORE:    0.00 PKD
ROOT
HETATM    1  O   UNL     1     -12.226  14.351  63.532  1.00  0.00    -1.015 OA 
HETATM    2  C   UNL     1     -12.468  13.889  64.855  1.00  0.00    -0.391 C  
HETATM    3  H   UNL     1     -12.763  15.107  63.328  1.00  0.00     0.000 HD 
ENDROOT
BRANCH   2   4
HETATM    4  C   UNL     1     -11.616  12.690  65.179  1.00  0.00    -0.386 A  
HETATM    5  C   UNL     1     -11.439  12.302  66.515  1.00  0.00    -0.438 A  
HETATM    6  C   UNL     1     -10.674  11.177  66.835  1.00  0.00    -0.322 A  
HETATM    7  C   UNL     1     -10.088  10.420  65.820  1.00  0.00    -0.329 A  
HETATM    8  C   UNL     1     -10.273  10.783  64.489  1.00  0.00    -0.428 A  
HETATM    9  C   UNL     1     -11.037  11.907  64.170  1.00  0.00    -0.441 A  
ENDBRANCH   2   4
TORSDOF 1
ENDMDL
MODEL       31
REMARK 921   NORMALIZED FREE ENERGY PREDICTED BY IDOCK:   -3.53 KCAL/MOL
REMARK 922        TOTAL FREE ENERGY PREDICTED BY IDOCK:   -3.75 KCAL/MOL
REMARK 923 INTER-LIGAND FREE ENERGY PREDICTED BY IDOCK:   -3.73 KCAL/MOL
REMARK 924 INTRA-LIGAND FREE ENERGY PREDICTED BY IDOCK:   -0.02 KCAL/MOL
REMARK 927      BINDING AFFINITY PREDICTED BY RF-SCORE:    0.00 PKD
ROOT
HETATM    1  O   UNL     1     -12.851  16.031  70.100  1.00  0.00    -0.617 OA 
HETATM    2  C   UNL     1     -11.979  14.996  69.658  1.00  0.00    -0.321 C  
HETATM    3  H   UNL     1     -12.662  16.851  69.659  1.00  0.00     0.000 HD 
ENDROOT
BRANCH   2   4
HETATM    4  C   UNL     1     -12.278  13.696  70.357  1.00  0.00    -0.434 A  
HETATM    5  C   UNL     1     -13.052  13.695  71.526  1.00  0.00    -0.431 A  
HETATM    6  C   UNL     1     -13.363  12.497  72.175  1.00  0.00    -0.540 A  
HETATM    7  C   UNL     1     -12.912  11.284  71.653  1.00  0.00    -0.537 A  
HETATM    8  C   UNL     1     -12.160  11.269  70.482  1.00  0.00    -0.481 A  
HETATM    9  C   UNL     1     -11.850  12.466  69.834  1.00  0.00    -0.376 A  
ENDBRANCH   2   4
TORSDOF 1
ENDMDL
MODEL       32
REMARK 921   NORMALIZED FREE ENERGY PREDICTED BY IDOCK:   -3.51 KCAL/MOL
REMARK 922        TOTAL FREE ENERGY PREDICTED BY IDOCK:   -3.73 KCAL/MOL
REMARK 923 INTER-LIGAND FREE ENERGY PREDICTED BY IDOCK:   -3.72 KCAL/MOL
REMARK 924 INTRA-LIGAND FREE ENERGY PREDICTED BY IDOCK:   -0.01 KCAL/MOL
REMARK 927      BINDING AFFINITY PREDICTED BY RF-SCORE:    0.00 PKD
ROOT
HETATM    1  O   UNL     1     -12.252  11.373  68.188  1.00  0.00    -0.602 OA 
HETATM    2  C   UNL     1     -11.720  12.542  67.577  1.00  0.00    -0.374 C  
HETATM    3  H   UNL     1     -12.387  11.503  69.120  1.00  0.00     0.000 HD 
ENDROOT
BRANCH   2   4
HETATM    4  C   UNL     1     -11.506  12.337  66.101  1.00  0.00    -0.429 A  
HETATM    5  C   UNL     1     -10.390  11.616  65.651  1.00  0.00    -0.306 A  
HETATM    6  C   UNL     1     -10.188  11.392  64.287  1.00  0.00    -0.367 A  
HETATM    7  C   UNL     1     -11.108  11.875  63.357  1.00  0.00    -0.463 A  
HETATM    8  C   UNL     1     -12.231  12.575  63.790  1.00  0.00    -0.615 A  
HETATM    9  C   UNL     1     -12.433  12.798  65.153  1.00  0.00    -0.565 A  
ENDBRANCH   2   4
TORSDOF 1
ENDMDL
MODEL       33
REMARK 921   NORMALIZED FREE ENERGY PREDICTED BY IDOCK:   -3.51 KCAL/MOL
REMARK 922        TOTAL FREE ENERGY PREDICTED BY IDOCK:   -3.73 KCAL/MOL
REMARK 923 INTER-LIGAND FREE ENERGY PREDICTED BY IDOCK:   -3.71 KCAL/MOL
REMARK 924 INTRA-LIGAND FREE ENERGY PREDICTED BY IDOCK:   -0.01 KCAL/MOL
REMARK 927      BINDING AFFINITY PREDICTED BY RF-SCORE:    0.00 PKD
ROOT
HETATM    1  O   UNL     1     -13.303  11.663  72.107  1.00  0.00    -0.576 OA 
HETATM    2  C   UNL     1     -13.775  12.970  72.412  1.00  0.00    -0.494 C  
HETATM    3  H   UNL     1     -13.828  10.999  72.538  1.00  0.00     0.000 HD 
ENDROOT
BRANCH   2   4
HETATM    4  C   UNL     1     -12.942  14.023  71.729  1.00  0.00    -0.435 A  
HETATM    5  C   UNL     1     -12.675  15.235  72.384  1.00  0.00    -0.449 A  
HETATM    6  C   UNL     1     -11.883  16.213  71.779  1.00  0.00    -0.581 A  
HETATM    7  C   UNL     1     -11.337  15.986  70.516  1.00  0.00    -0.420 A  
HETATM    8  C   UNL     1     -11.577  14.780  69.863  1.00  0.00    -0.330 A  
HETATM    9  C   UNL     1     -12.368  13.802  70.468  1.00  0.00    -0.429 A  
ENDBRANCH   2   4
TORSDOF 1
ENDMDL
MODEL       34
REMARK 921   NORMALIZED FREE ENERGY PREDICTED BY IDOCK:   -3.43 KCAL/MOL
REMARK 922        TOTAL FREE ENERGY PREDICTED BY IDOCK:   -3.64 KCAL/MOL
REMARK 923 INTER-LIGAND FREE ENERGY PREDICTED BY IDOCK:   -3.63 KCAL/MOL
REMARK 924 INTRA-LIGAND FREE ENERGY PREDICTED BY IDOCK:   -0.01 KCAL/MOL
REMARK 927      BINDING AFFINITY PREDICTED BY RF-SCORE:    0.00 PKD
ROOT
HETATM    1  O   UNL     1     -13.153  12.870  64.920  1.00  0.00    -0.799 OA 
HETATM    2  C   UNL     1     -11.903  12.563  65.525  1.00  0.00    -0.439 C  
HETATM    3  H   UNL     1     -13.163  12.619  64.004  1.00  0.00     0.000 HD 
ENDROOT
BRANCH   2   4
HETATM    4  C   UNL     1     -11.887  12.962  66.977  1.00  0.00    -0.437 A  
HETATM    5  C   UNL     1     -11.766  11.979  67.970  1.00  0.00    -0.398 A  
HETATM    6  C   UNL     1     -11.723  12.331  69.321  1.00  0.00    -0.388 A  
HETATM    7  C   UNL     1     -11.787  13.673  69.695  1.00  0.00    -0.396 A  
HETATM    8  C   UNL     1     -11.887  14.661  68.719  1.00  0.00    -0.348 A  
HETATM    9  C   UNL     1     -11.930  14.309  67.369  1.00  0.00    -0.426 A  
ENDBRANCH   2   4
TORSDOF 1
ENDMDL
MODEL       35
REMARK 921   NORMALIZED FREE ENERGY PREDICTED BY IDOCK:   -3.39 KCAL/MOL
REMARK 922        TOTAL FREE ENERGY PREDICTED BY IDOCK:   -3.61 KCAL/MOL
REMARK 923 INTER-LIGAND FREE ENERGY PREDICTED BY IDOCK:   -3.59 KCAL/MOL
REMARK 924 INTRA-LIGAND FREE ENERGY PREDICTED BY IDOCK:   -0.01 KCAL/MOL
REMARK 927      BINDING AFFINITY PREDICTED BY RF-SCORE:    0.00 PKD
ROOT
HETATM    1  O   UNL     1     -11.555  15.914  68.495  1.00  0.00    -0.377 OA 
HETATM    2  C   UNL     1     -10.630  16.216  67.457  1.00  0.00    -0.314 C  
HETATM    3  H   UNL     1     -11.707  14.978  68.558  1.00  0.00     0.000 HD 
ENDROOT
BRANCH   2   4
HETATM    4  C   UNL     1     -10.389  17.699  67.357  1.00  0.00    -0.360 A  
HETATM    5  C   UNL     1     -10.080  18.436  68.510  1.00  0.00    -0.413 A  
HETATM    6  C   UNL     1      -9.827  19.808  68.433  1.00  0.00    -0.522 A  
HETATM    7  C   UNL     1      -9.867  20.457  67.200  1.00  0.00    -0.601 A  
HETATM    8  C   UNL     1     -10.153  19.735  66.044  1.00  0.00    -0.574 A  
HETATM    9  C   UNL     1     -10.406  18.364  66.121  1.00  0.00    -0.431 A  
ENDBRANCH   2   4
TORSDOF 1
ENDMDL
MODEL       36
REMARK 921   NORMALIZED FREE ENERGY PREDICTED BY IDOCK:   -3.39 KCAL/MOL
REMARK 922        TOTAL FREE ENERGY PREDICTED BY IDOCK:   -3.61 KCAL/MOL
REMARK 923 INTER-LIGAND FREE ENERGY PREDICTED BY IDOCK:   -3.60 KCAL/MOL
REMARK 924 INTRA-LIGAND FREE ENERGY PREDICTED BY IDOCK:   -0.01 KCAL/MOL
REMARK 927      BINDING AFFINITY PREDICTED BY RF-SCORE:    0.00 PKD
ROOT
HETATM    1  O   UNL     1     -11.577   6.342  68.958  1.00  0.00    -0.597 OA 
HETATM    2  C   UNL     1     -11.414   6.359  70.371  1.00  0.00    -0.393 C  
HETATM    3  H   UNL     1     -11.115   5.610  68.567  1.00  0.00     0.000 HD 
ENDROOT
BRANCH   2   4
HETATM    4  C   UNL     1     -12.146   7.520  70.990  1.00  0.00    -0.305 A  
HETATM    5  C   UNL     1     -11.546   8.788  71.018  1.00  0.00    -0.337 A  
HETATM    6  C   UNL     1     -12.220   9.883  71.564  1.00  0.00    -0.505 A  
HETATM    7  C   UNL     1     -13.506   9.726  72.077  1.00  0.00    -0.498 A  
HETATM    8  C   UNL     1     -14.122   8.478  72.038  1.00  0.00    -0.516 A  
HETATM    9  C   UNL     1     -13.449   7.383  71.492  1.00  0.00    -0.445 A  
ENDBRANCH   2   4
TORSDOF 1
ENDMDL
MODEL       37
REMARK 921   NORMALIZED FREE ENERGY PREDICTED BY IDOCK:   -3.33 KCAL/MOL
REMARK 922        TOTAL FREE ENERGY PREDICTED BY IDOCK:   -3.54 KCAL/MOL
REMARK 923 INTER-LIGAND FREE ENERGY PREDICTED BY IDOCK:   -3.52 KCAL/MOL
REMARK 924 INTRA-LIGAND FREE ENERGY PREDICTED BY IDOCK:   -0.02 KCAL/MOL
REMARK 927      BINDING AFFINITY PREDICTED BY RF-SCORE:    0.00 PKD
ROOT
HETATM    1  O   UNL     1     -12.431  14.536  67.623  1.00  0.00    -0.595 OA 
HETATM    2  C   UNL     1     -11.447  14.793  66.630  1.00  0.00    -0.335 C  
HETATM    3  H   UNL     1     -12.405  15.190  68.311  1.00  0.00     0.000 HD 
ENDROOT
BRANCH   2   4
HETATM    4  C   UNL     1     -11.488  13.756  65.539  1.00  0.00    -0.319 A  
HETATM    5  C   UNL     1     -12.715  13.192  65.159  1.00  0.00    -0.468 A  
HETATM    6  C   UNL     1     -12.778  12.248  64.131  1.00  0.00    -0.431 A  
HETATM    7  C   UNL     1     -11.615  11.865  63.463  1.00  0.00    -0.537 A  
HETATM    8  C   UNL     1     -10.393  12.432  63.816  1.00  0.00    -0.454 A  
HETATM    9  C   UNL     1     -10.331  13.376  64.843  1.00  0.00    -0.382 A  
ENDBRANCH   2   4
TORSDOF 1
ENDMDL
MODEL       38
REMARK 921   NORMALIZED FREE ENERGY PREDICTED BY IDOCK:   -3.33 KCAL/MOL
REMARK 922        TOTAL FREE ENERGY PREDICTED BY IDOCK:   -3.54 KCAL/MOL
REMARK 923 INTER-LIGAND FREE ENERGY PREDICTED BY IDOCK:   -3.52 KCAL/MOL
REMARK 924 INTRA-LIGAND FREE ENERGY PREDICTED BY IDOCK:   -0.01 KCAL/MOL
REMARK 927      BINDING AFFINITY PREDICTED BY RF-SCORE:    0.00 PKD
ROOT
HETATM    1  O   UNL     1     -11.714  15.931  68.511  1.00  0.00    -0.383 OA 
HETATM    2  C   UNL     1     -10.810  16.213  67.449  1.00  0.00    -0.265 C  
HETATM    3  H   UNL     1     -11.950  15.011  68.526  1.00  0.00     0.000 HD 
ENDROOT
BRANCH   2   4
HETATM    4  C   UNL     1     -10.436  17.672  67.425  1.00  0.00    -0.356 A  
HETATM    5  C   UNL     1     -10.452  18.375  66.212  1.00  0.00    -0.421 A  
HETATM    6  C   UNL     1     -10.134  19.735  66.172  1.00  0.00    -0.600 A  
HETATM    7  C   UNL     1      -9.809  20.410  67.348  1.00  0.00    -0.587 A  
HETATM    8  C   UNL     1      -9.809  19.729  68.562  1.00  0.00    -0.506 A  
HETATM    9  C   UNL     1     -10.127  18.370  68.602  1.00  0.00    -0.407 A  
ENDBRANCH   2   4
TORSDOF 1
ENDMDL
MODEL       39
REMARK 921   NORMALIZED FREE ENERGY PREDICTED BY IDOCK:   -3.32 KCAL/MOL
REMARK 922        TOTAL FREE ENERGY PREDICTED BY IDOCK:   -3.53 KCAL/MOL
REMARK 923 INTER-LIGAND FREE ENERGY PREDICTED BY IDOCK:   -3.52 KCAL/MOL
REMARK 924 INTRA-LIGAND FREE ENERGY PREDICTED BY IDOCK:   -0.01 KCAL/MOL
REMARK 927      BINDING AFFINITY PREDICTED BY RF-SCORE:    0.00 PKD
ROOT
HETATM    1  O   UNL     1     -12.521   6.328  72.436  1.00  0.00    -0.546 OA 
HETATM    2  C   UNL     1     -11.403   7.207  72.456  1.00  0.00    -0.279 C  
HETATM    3  H   UNL     1     -12.290   5.470  72.772  1.00  0.00     0.000 HD 
ENDROOT
BRANCH   2   4
HETATM    4  C   UNL     1     -11.769   8.567  71.923  1.00  0.00    -0.409 A  
HETATM    5  C   UNL     1     -10.961   9.176  70.952  1.00  0.00    -0.349 A  
HETATM    6  C   UNL     1     -11.298  10.425  70.425  1.00  0.00    -0.417 A  
HETATM    7  C   UNL     1     -12.455  11.075  70.854  1.00  0.00    -0.509 A  
HETATM    8  C   UNL     1     -13.277  10.473  71.803  1.00  0.00    -0.522 A  
HETATM    9  C   UNL     1     -12.941   9.224  72.329  1.00  0.00    -0.488 A  
ENDBRANCH   2   4
TORSDOF 1
ENDMDL
MODEL       40
REMARK 921   NORMALIZED FREE ENERGY PREDICTED BY IDOCK:   -3.31 KCAL/MOL
REMARK 922        TOTAL FREE ENERGY PREDICTED BY IDOCK:   -3.52 KCAL/MOL
REMARK 923 INTER-LIGAND FREE ENERGY PREDICTED BY IDOCK:   -3.51 KCAL/MOL
REMARK 924 INTRA-LIGAND FREE ENERGY PREDICTED BY IDOCK:   -0.01 KCAL/MOL
REMARK 927      BINDING AFFINITY PREDICTED BY RF-SCORE:    0.00 PKD
ROOT
HETATM    1  O   UNL     1     -12.410  14.371  67.610  1.00  0.00    -0.619 OA 
HETATM    2  C   UNL     1     -11.311  14.628  66.743  1.00  0.00    -0.356 C  
HETATM    3  H   UNL     1     -12.447  15.005  68.316  1.00  0.00     0.000 HD 
ENDROOT
BRANCH   2   4
HETATM    4  C   UNL     1     -11.254  13.623  65.623  1.00  0.00    -0.305 A  
HETATM    5  C   UNL     1     -10.337  12.564  65.683  1.00  0.00    -0.294 A  
HETATM    6  C   UNL     1     -10.286  11.606  64.666  1.00  0.00    -0.341 A  
HETATM    7  C   UNL     1     -11.161  11.691  63.584  1.00  0.00    -0.497 A  
HETATM    8  C   UNL     1     -12.090  12.726  63.521  1.00  0.00    -0.642 A  
HETATM    9  C   UNL     1     -12.141  13.682  64.537  1.00  0.00    -0.459 A  
ENDBRANCH   2   4
TORSDOF 1
ENDMDL
MODEL       41
REMARK 921   NORMALIZED FREE ENERGY PREDICTED BY IDOCK:   -3.31 KCAL/MOL
REMARK 922        TOTAL FREE ENERGY PREDICTED BY IDOCK:   -3.51 KCAL/MOL
REMARK 923 INTER-LIGAND FREE ENERGY PREDICTED BY IDOCK:   -3.50 KCAL/MOL
REMARK 924 INTRA-LIGAND FREE ENERGY PREDICTED BY IDOCK:   -0.01 KCAL/MOL
REMARK 927      BINDING AFFINITY PREDICTED BY RF-SCORE:    0.00 PKD
ROOT
HETATM    1  O   UNL     1     -12.824  12.850  64.340  1.00  0.00    -0.696 OA 
HETATM    2  C   UNL     1     -12.130  13.832  65.101  1.00  0.00    -0.399 C  
HETATM    3  H   UNL     1     -12.958  13.140  63.445  1.00  0.00     0.000 HD 
ENDROOT
BRANCH   2   4
HETATM    4  C   UNL     1     -11.917  13.373  66.519  1.00  0.00    -0.452 A  
HETATM    5  C   UNL     1     -12.035  14.289  67.574  1.00  0.00    -0.411 A  
HETATM    6  C   UNL     1     -11.868  13.877  68.898  1.00  0.00    -0.393 A  
HETATM    7  C   UNL     1     -11.593  12.541  69.184  1.00  0.00    -0.375 A  
HETATM    8  C   UNL     1     -11.492  11.616  68.148  1.00  0.00    -0.382 A  
HETATM    9  C   UNL     1     -11.660  12.027  66.824  1.00  0.00    -0.391 A  
ENDBRANCH   2   4
TORSDOF 1
ENDMDL
MODEL       42
REMARK 921   NORMALIZED FREE ENERGY PREDICTED BY IDOCK:   -3.30 KCAL/MOL
REMARK 922        TOTAL FREE ENERGY PREDICTED BY IDOCK:   -3.51 KCAL/MOL
REMARK 923 INTER-LIGAND FREE ENERGY PREDICTED BY IDOCK:   -3.49 KCAL/MOL
REMARK 924 INTRA-LIGAND FREE ENERGY PREDICTED BY IDOCK:   -0.02 KCAL/MOL
REMARK 927      BINDING AFFINITY PREDICTED BY RF-SCORE:    0.00 PKD
ROOT
HETATM    1  O   UNL     1     -12.293  10.800  68.695  1.00  0.00    -0.825 OA 
HETATM    2  C   UNL     1     -11.606  11.948  68.212  1.00  0.00    -0.327 C  
HETATM    3  H   UNL     1     -12.126  10.043  68.146  1.00  0.00     0.000 HD 
ENDROOT
BRANCH   2   4
HETATM    4  C   UNL     1     -11.872  13.148  69.082  1.00  0.00    -0.364 A  
HETATM    5  C   UNL     1     -12.320  12.969  70.399  1.00  0.00    -0.351 A  
HETATM    6  C   UNL     1     -12.547  14.069  71.231  1.00  0.00    -0.444 A  
HETATM    7  C   UNL     1     -12.316  15.360  70.759  1.00  0.00    -0.447 A  
HETATM    8  C   UNL     1     -11.851  15.552  69.460  1.00  0.00    -0.390 A  
HETATM    9  C   UNL     1     -11.624  14.453  68.629  1.00  0.00    -0.347 A  
ENDBRANCH   2   4
TORSDOF 1
ENDMDL
MODEL       43
REMARK 921   NORMALIZED FREE ENERGY PREDICTED BY IDOCK:   -3.30 KCAL/MOL
REMARK 922        TOTAL FREE ENERGY PREDICTED BY IDOCK:   -3.50 KCAL/MOL
REMARK 923 INTER-LIGAND FREE ENERGY PREDICTED BY IDOCK:   -3.49 KCAL/MOL
REMARK 924 INTRA-LIGAND FREE ENERGY PREDICTED BY IDOCK:   -0.01 KCAL/MOL
REMARK 927      BINDING AFFINITY PREDICTED BY RF-SCORE:    0.00 PKD
ROOT
HETATM    1  O   UNL     1     -12.446  14.247  68.401  1.00  0.00    -0.564 OA 
HETATM    2  C   UNL     1     -11.417  13.494  69.032  1.00  0.00    -0.303 C  
HETATM    3  H   UNL     1     -12.086  14.868  67.779  1.00  0.00     0.000 HD 
ENDROOT
BRANCH   2   4
HETATM    4  C   UNL     1     -11.988  12.509  70.018  1.00  0.00    -0.372 A  
HETATM    5  C   UNL     1     -11.743  11.138  69.855  1.00  0.00    -0.433 A  
HETATM    6  C   UNL     1     -12.242  10.211  70.774  1.00  0.00    -0.434 A  
HETATM    7  C   UNL     1     -12.981  10.646  71.873  1.00  0.00    -0.542 A  
HETATM    8  C   UNL     1     -13.215  12.006  72.058  1.00  0.00    -0.481 A  
HETATM    9  C   UNL     1     -12.716  12.932  71.141  1.00  0.00    -0.366 A  
ENDBRANCH   2   4
TORSDOF 1
ENDMDL
MODEL       44
REMARK 921   NORMALIZED FREE ENERGY PREDICTED BY IDOCK:   -3.26 KCAL/MOL
REMARK 922        TOTAL FREE ENERGY PREDICTED BY IDOCK:   -3.46 KCAL/MOL
REMARK 923 INTER-LIGAND FREE ENERGY PREDICTED BY IDOCK:   -3.45 KCAL/MOL
REMARK 924 INTRA-LIGAND FREE ENERGY PREDICTED BY IDOCK:   -0.02 KCAL/MOL
REMARK 927      BINDING AFFINITY PREDICTED BY RF-SCORE:    0.00 PKD
ROOT
HETATM    1  O   UNL     1      -9.915  11.244  62.441  1.00  0.00    -0.543 OA 
HETATM    2  C   UNL     1     -10.032  10.968  63.831  1.00  0.00    -0.341 C  
HETATM    3  H   UNL     1      -9.397  10.580  62.001  1.00  0.00     0.000 HD 
ENDROOT
BRANCH   2   4
HETATM    4  C   UNL     1     -10.854  12.020  64.528  1.00  0.00    -0.363 A  
HETATM    5  C   UNL     1     -11.292  13.148  63.818  1.00  0.00    -0.370 A  
HETATM    6  C   UNL     1     -12.078  14.121  64.439  1.00  0.00    -0.486 A  
HETATM    7  C   UNL     1     -12.445  13.973  65.776  1.00  0.00    -0.523 A  
HETATM    8  C   UNL     1     -12.035  12.849  66.488  1.00  0.00    -0.447 A  
HETATM    9  C   UNL     1     -11.250  11.876  65.867  1.00  0.00    -0.373 A  
ENDBRANCH   2   4
TORSDOF 1
ENDMDL
MODEL       45
REMARK 921   NORMALIZED FREE ENERGY PREDICTED BY IDOCK:   -3.25 KCAL/MOL
REMARK 922        TOTAL FREE ENERGY PREDICTED BY IDOCK:   -3.46 KCAL/MOL
REMARK 923 INTER-LIGAND FREE ENERGY PREDICTED BY IDOCK:   -3.44 KCAL/MOL
REMARK 924 INTRA-LIGAND FREE ENERGY PREDICTED BY IDOCK:   -0.01 KCAL/MOL
REMARK 927      BINDING AFFINITY PREDICTED BY RF-SCORE:    0.00 PKD
ROOT
HETATM    1  O   UNL     1     -12.014  11.903  70.654  1.00  0.00    -0.447 OA 
HETATM    2  C   UNL     1     -12.937  11.295  71.550  1.00  0.00    -0.415 C  
HETATM    3  H   UNL     1     -12.120  12.847  70.639  1.00  0.00     0.000 HD 
ENDROOT
BRANCH   2   4
HETATM    4  C   UNL     1     -12.768   9.799  71.573  1.00  0.00    -0.504 A  
HETATM    5  C   UNL     1     -11.482   9.242  71.596  1.00  0.00    -0.468 A  
HETATM    6  C   UNL     1     -11.305   7.857  71.645  1.00  0.00    -0.299 A  
HETATM    7  C   UNL     1     -12.414   7.013  71.685  1.00  0.00    -0.413 A  
HETATM    8  C   UNL     1     -13.697   7.553  71.683  1.00  0.00    -0.465 A  
HETATM    9  C   UNL     1     -13.874   8.936  71.635  1.00  0.00    -0.432 A  
ENDBRANCH   2   4
TORSDOF 1
ENDMDL
MODEL       46
REMARK 921   NORMALIZED FREE ENERGY PREDICTED BY IDOCK:   -3.22 KCAL/MOL
REMARK 922        TOTAL FREE ENERGY PREDICTED BY IDOCK:   -3.42 KCAL/MOL
REMARK 923 INTER-LIGAND FREE ENERGY PREDICTED BY IDOCK:   -3.40 KCAL/MOL
REMARK 924 INTRA-LIGAND FREE ENERGY PREDICTED BY IDOCK:   -0.02 KCAL/MOL
REMARK 927      BINDING AFFINITY PREDICTED BY RF-SCORE:    0.00 PKD
ROOT
HETATM    1  O   UNL     1      -6.791  20.941  65.351  1.00  0.00    -0.494 OA 
HETATM    2  C   UNL     1      -6.832  20.525  66.711  1.00  0.00    -0.272 C  
HETATM    3  H   UNL     1      -5.938  21.292  65.125  1.00  0.00     0.000 HD 
ENDROOT
BRANCH   2   4
HETATM    4  C   UNL     1      -8.185  19.968  67.070  1.00  0.00    -0.364 A  
HETATM    5  C   UNL     1      -8.377  19.349  68.314  1.00  0.00    -0.379 A  
HETATM    6  C   UNL     1      -9.631  18.851  68.676  1.00  0.00    -0.443 A  
HETATM    7  C   UNL     1     -10.710  18.976  67.803  1.00  0.00    -0.441 A  
HETATM    8  C   UNL     1     -10.539  19.605  66.573  1.00  0.00    -0.591 A  
HETATM    9  C   UNL     1      -9.287  20.104  66.211  1.00  0.00    -0.419 A  
ENDBRANCH   2   4
TORSDOF 1
ENDMDL
MODEL       47
REMARK 921   NORMALIZED FREE ENERGY PREDICTED BY IDOCK:   -3.21 KCAL/MOL
REMARK 922        TOTAL FREE ENERGY PREDICTED BY IDOCK:   -3.41 KCAL/MOL
REMARK 923 INTER-LIGAND FREE ENERGY PREDICTED BY IDOCK:   -3.40 KCAL/MOL
REMARK 924 INTRA-LIGAND FREE ENERGY PREDICTED BY IDOCK:   -0.01 KCAL/MOL
REMARK 927      BINDING AFFINITY PREDICTED BY RF-SCORE:    0.00 PKD
ROOT
HETATM    1  O   UNL     1     -12.610  14.270  68.692  1.00  0.00    -0.506 OA 
HETATM    2  C   UNL     1     -11.649  13.350  68.190  1.00  0.00    -0.341 C  
HETATM    3  H   UNL     1     -12.562  14.336  69.639  1.00  0.00     0.000 HD 
ENDROOT
BRANCH   2   4
HETATM    4  C   UNL     1     -11.726  13.247  66.689  1.00  0.00    -0.425 A  
HETATM    5  C   UNL     1     -11.531  12.006  66.065  1.00  0.00    -0.399 A  
HETATM    6  C   UNL     1     -11.624  11.884  64.676  1.00  0.00    -0.320 A  
HETATM    7  C   UNL     1     -11.927  13.000  63.897  1.00  0.00    -0.551 A  
HETATM    8  C   UNL     1     -12.143  14.234  64.505  1.00  0.00    -0.499 A  
HETATM    9  C   UNL     1     -12.050  14.355  65.892  1.00  0.00    -0.358 A  
ENDBRANCH   2   4
TORSDOF 1
ENDMDL
MODEL       48
REMARK 921   NORMALIZED FREE ENERGY PREDICTED BY IDOCK:   -3.21 KCAL/MOL
REMARK 922        TOTAL FREE ENERGY PREDICTED BY IDOCK:   -3.41 KCAL/MOL
REMARK 923 INTER-LIGAND FREE ENERGY PREDICTED BY IDOCK:   -3.39 KCAL/MOL
REMARK 924 INTRA-LIGAND FREE ENERGY PREDICTED BY IDOCK:   -0.02 KCAL/MOL
REMARK 927      BINDING AFFINITY PREDICTED BY RF-SCORE:    0.00 PKD
ROOT
HETATM    1  O   UNL     1      -9.458  11.079  69.381  1.00  0.00    -0.417 OA 
HETATM    2  C   UNL     1      -9.602   9.782  69.947  1.00  0.00    -0.235 C  
HETATM    3  H   UNL     1      -8.660  11.144  68.870  1.00  0.00     0.000 HD 
ENDROOT
BRANCH   2   4
HETATM    4  C   UNL     1     -10.867   9.677  70.757  1.00  0.00    -0.400 A  
HETATM    5  C   UNL     1     -11.842  10.681  70.661  1.00  0.00    -0.463 A  
HETATM    6  C   UNL     1     -13.034  10.590  71.383  1.00  0.00    -0.542 A  
HETATM    7  C   UNL     1     -13.271   9.486  72.202  1.00  0.00    -0.539 A  
HETATM    8  C   UNL     1     -12.321   8.472  72.292  1.00  0.00    -0.450 A  
HETATM    9  C   UNL     1     -11.130   8.563  71.569  1.00  0.00    -0.343 A  
ENDBRANCH   2   4
TORSDOF 1
ENDMDL
MODEL       49
REMARK 921   NORMALIZED FREE ENERGY PREDICTED BY IDOCK:   -3.20 KCAL/MOL
REMARK 922        TOTAL FREE ENERGY PREDICTED BY IDOCK:   -3.40 KCAL/MOL
REMARK 923 INTER-LIGAND FREE ENERGY PREDICTED BY IDOCK:   -3.39 KCAL/MOL
REMARK 924 INTRA-LIGAND FREE ENERGY PREDICTED BY IDOCK:   -0.01 KCAL/MOL
REMARK 927      BINDING AFFINITY PREDICTED BY RF-SCORE:    0.00 PKD
ROOT
HETATM    1  O   UNL     1     -12.690   7.211  70.685  1.00  0.00    -0.609 OA 
HETATM    2  C   UNL     1     -12.451   8.050  71.808  1.00  0.00    -0.324 C  
HETATM    3  H   UNL     1     -12.752   6.299  70.943  1.00  0.00     0.000 HD 
ENDROOT
BRANCH   2   4
HETATM    4  C   UNL     1     -12.352   9.495  71.398  1.00  0.00    -0.451 A  
HETATM    5  C   UNL     1     -11.387   9.890  70.460  1.00  0.00    -0.399 A  
HETATM    6  C   UNL     1     -11.297  11.221  70.046  1.00  0.00    -0.292 A  
HETATM    7  C   UNL     1     -12.179  12.172  70.558  1.00  0.00    -0.392 A  
HETATM    8  C   UNL     1     -13.155  11.791  71.475  1.00  0.00    -0.389 A  
HETATM    9  C   UNL     1     -13.245  10.460  71.888  1.00  0.00    -0.535 A  
ENDBRANCH   2   4
TORSDOF 1
ENDMDL
MODEL       50
REMARK 921   NORMALIZED FREE ENERGY PREDICTED BY IDOCK:   -3.19 KCAL/MOL
REMARK 922        TOTAL FREE ENERGY PREDICTED BY IDOCK:   -3.39 KCAL/MOL
REMARK 923 INTER-LIGAND FREE ENERGY PREDICTED BY IDOCK:   -3.38 KCAL/MOL
REMARK 924 INTRA-LIGAND FREE ENERGY PREDICTED BY IDOCK:   -0.01 KCAL/MOL
REMARK 927      BINDING AFFINITY PREDICTED BY RF-SCORE:    0.00 PKD
ROOT
HETATM    1  O   UNL     1     -13.459  15.022  70.447  1.00  0.00    -0.646 OA 
HETATM    2  C   UNL     1     -12.370  14.125  70.630  1.00  0.00    -0.365 C  
HETATM    3  H   UNL     1     -13.675  15.470  71.256  1.00  0.00     0.000 HD 
ENDROOT
BRANCH   2   4
HETATM    4  C   UNL     1     -12.027  13.415  69.347  1.00  0.00    -0.369 A  
HETATM    5  C   UNL     1     -11.762  12.038  69.361  1.00  0.00    -0.402 A  
HETATM    6  C   UNL     1     -11.468  11.356  68.177  1.00  0.00    -0.375 A  
HETATM    7  C   UNL     1     -11.448  12.042  66.964  1.00  0.00    -0.402 A  
HETATM    8  C   UNL     1     -11.728  13.405  66.932  1.00  0.00    -0.434 A  
HETATM    9  C   UNL     1     -12.022  14.087  68.114  1.00  0.00    -0.382 A  
ENDBRANCH   2   4
TORSDOF 1
ENDMDL
MODEL       51
REMARK 921   NORMALIZED FREE ENERGY PREDICTED BY IDOCK:   -3.19 KCAL/MOL
REMARK 922        TOTAL FREE ENERGY PREDICTED BY IDOCK:   -3.39 KCAL/MOL
REMARK 923 INTER-LIGAND FREE ENERGY PREDICTED BY IDOCK:   -3.37 KCAL/MOL
REMARK 924 INTRA-LIGAND FREE ENERGY PREDICTED BY IDOCK:   -0.02 KCAL/MOL
REMARK 927      BINDING AFFINITY PREDICTED BY RF-SCORE:    0.00 PKD
ROOT
HETATM    1  O   UNL     1     -12.600   6.145  72.531  1.00  0.00    -0.548 OA 
HETATM    2  C   UNL     1     -12.000   6.724  71.379  1.00  0.00    -0.355 C  
HETATM    3  H   UNL     1     -12.455   5.207  72.560  1.00  0.00     0.000 HD 
ENDROOT
BRANCH   2   4
HETATM    4  C   UNL     1     -12.231   8.211  71.333  1.00  0.00    -0.324 A  
HETATM    5  C   UNL     1     -13.316   8.770  72.022  1.00  0.00    -0.455 A  
HETATM    6  C   UNL     1     -13.532  10.151  72.014  1.00  0.00    -0.418 A  
HETATM    7  C   UNL     1     -12.657  10.990  71.325  1.00  0.00    -0.517 A  
HETATM    8  C   UNL     1     -11.564  10.450  70.652  1.00  0.00    -0.440 A  
HETATM    9  C   UNL     1     -11.348   9.071  70.661  1.00  0.00    -0.311 A  
ENDBRANCH   2   4
TORSDOF 1
ENDMDL
MODEL       52
REMARK 921   NORMALIZED FREE ENERGY PREDICTED BY IDOCK:   -3.14 KCAL/MOL
REMARK 922        TOTAL FREE ENERGY PREDICTED BY IDOCK:   -3.33 KCAL/MOL
REMARK 923 INTER-LIGAND FREE ENERGY PREDICTED BY IDOCK:   -3.32 KCAL/MOL
REMARK 924 INTRA-LIGAND FREE ENERGY PREDICTED BY IDOCK:   -0.02 KCAL/MOL
REMARK 927      BINDING AFFINITY PREDICTED BY RF-SCORE:    0.00 PKD
ROOT
HETATM    1  O   UNL     1     -12.183  10.679  68.515  1.00  0.00    -0.822 OA 
HETATM    2  C   UNL     1     -11.139  10.804  67.557  1.00  0.00    -0.308 C  
HETATM    3  H   UNL     1     -12.177   9.820  68.921  1.00  0.00     0.000 HD 
ENDROOT
BRANCH   2   4
HETATM    4  C   UNL     1     -11.149  12.166  66.914  1.00  0.00    -0.348 A  
HETATM    5  C   UNL     1     -11.746  13.246  67.578  1.00  0.00    -0.410 A  
HETATM    6  C   UNL     1     -11.742  14.523  67.010  1.00  0.00    -0.412 A  
HETATM    7  C   UNL     1     -11.129  14.736  65.776  1.00  0.00    -0.338 A  
HETATM    8  C   UNL     1     -10.515  13.676  65.114  1.00  0.00    -0.388 A  
HETATM    9  C   UNL     1     -10.518  12.400  65.682  1.00  0.00    -0.290 A  
ENDBRANCH   2   4
TORSDOF 1
ENDMDL
MODEL       53
REMARK 921   NORMALIZED FREE ENERGY PREDICTED BY IDOCK:   -3.13 KCAL/MOL
REMARK 922        TOTAL FREE ENERGY PREDICTED BY IDOCK:   -3.33 KCAL/MOL
REMARK 923 INTER-LIGAND FREE ENERGY PREDICTED BY IDOCK:   -3.32 KCAL/MOL
REMARK 924 INTRA-LIGAND FREE ENERGY PREDICTED BY IDOCK:   -0.01 KCAL/MOL
REMARK 927      BINDING AFFINITY PREDICTED BY RF-SCORE:    0.00 PKD
ROOT
HETATM    1  O   UNL     1     -12.429  10.838  68.682  1.00  0.00    -0.793 OA 
HETATM    2  C   UNL     1     -11.505  11.282  69.668  1.00  0.00    -0.309 C  
HETATM    3  H   UNL     1     -12.687  11.549  68.107  1.00  0.00     0.000 HD 
ENDROOT
BRANCH   2   4
HETATM    4  C   UNL     1     -11.096  10.155  70.580  1.00  0.00    -0.400 A  
HETATM    5  C   UNL     1      -9.801   9.624  70.494  1.00  0.00    -0.294 A  
HETATM    6  C   UNL     1      -9.394   8.596  71.348  1.00  0.00    -0.305 A  
HETATM    7  C   UNL     1     -10.274   8.096  72.308  1.00  0.00    -0.348 A  
HETATM    8  C   UNL     1     -11.556   8.628  72.417  1.00  0.00    -0.385 A  
HETATM    9  C   UNL     1     -11.963   9.656  71.564  1.00  0.00    -0.485 A  
ENDBRANCH   2   4
TORSDOF 1
ENDMDL
MODEL       54
REMARK 921   NORMALIZED FREE ENERGY PREDICTED BY IDOCK:   -3.12 KCAL/MOL
REMARK 922        TOTAL FREE ENERGY PREDICTED BY IDOCK:   -3.32 KCAL/MOL
REMARK 923 INTER-LIGAND FREE ENERGY PREDICTED BY IDOCK:   -3.31 KCAL/MOL
REMARK 924 INTRA-LIGAND FREE ENERGY PREDICTED BY IDOCK:   -0.01 KCAL/MOL
REMARK 927      BINDING AFFINITY PREDICTED BY RF-SCORE:    0.00 PKD
ROOT
HETATM    1  O   UNL     1      -8.652  14.190  66.483  1.00  0.00    -0.438 OA 
HETATM    2  C   UNL     1      -9.478  13.092  66.849  1.00  0.00    -0.242 C  
HETATM    3  H   UNL     1      -8.035  14.402  67.173  1.00  0.00     0.000 HD 
ENDROOT
BRANCH   2   4
HETATM    4  C   UNL     1     -10.456  12.756  65.754  1.00  0.00    -0.294 A  
HETATM    5  C   UNL     1     -11.740  13.320  65.769  1.00  0.00    -0.395 A  
HETATM    6  C   UNL     1     -12.653  13.042  64.748  1.00  0.00    -0.460 A  
HETATM    7  C   UNL     1     -12.287  12.206  63.694  1.00  0.00    -0.673 A  
HETATM    8  C   UNL     1     -11.009  11.654  63.656  1.00  0.00    -0.507 A  
HETATM    9  C   UNL     1     -10.097  11.933  64.676  1.00  0.00    -0.301 A  
ENDBRANCH   2   4
TORSDOF 1
ENDMDL
MODEL       55
REMARK 921   NORMALIZED FREE ENERGY PREDICTED BY IDOCK:   -3.11 KCAL/MOL
REMARK 922        TOTAL FREE ENERGY PREDICTED BY IDOCK:   -3.30 KCAL/MOL
REMARK 923 INTER-LIGAND FREE ENERGY PREDICTED BY IDOCK:   -3.29 KCAL/MOL
REMARK 924 INTRA-LIGAND FREE ENERGY PREDICTED BY IDOCK:   -0.01 KCAL/MOL
REMARK 927      BINDING AFFINITY PREDICTED BY RF-SCORE:    0.00 PKD
ROOT
HETATM    1  O   UNL     1      -8.671  13.642  66.541  1.00  0.00    -0.440 OA 
HETATM    2  C   UNL     1      -9.810  14.393  66.137  1.00  0.00    -0.320 C  
HETATM    3  H   UNL     1      -8.109  14.151  67.113  1.00  0.00     0.000 HD 
ENDROOT
BRANCH   2   4
HETATM    4  C   UNL     1     -10.701  13.586  65.230  1.00  0.00    -0.328 A  
HETATM    5  C   UNL     1     -10.138  12.821  64.198  1.00  0.00    -0.260 A  
HETATM    6  C   UNL     1     -10.945  12.045  63.363  1.00  0.00    -0.475 A  
HETATM    7  C   UNL     1     -12.326  12.016  63.558  1.00  0.00    -0.661 A  
HETATM    8  C   UNL     1     -12.897  12.755  64.591  1.00  0.00    -0.355 A  
HETATM    9  C   UNL     1     -12.090  13.529  65.426  1.00  0.00    -0.447 A  
ENDBRANCH   2   4
TORSDOF 1
ENDMDL
MODEL       56
REMARK 921   NORMALIZED FREE ENERGY PREDICTED BY IDOCK:   -3.10 KCAL/MOL
REMARK 922        TOTAL FREE ENERGY PREDICTED BY IDOCK:   -3.30 KCAL/MOL
REMARK 923 INTER-LIGAND FREE ENERGY PREDICTED BY IDOCK:   -3.28 KCAL/MOL
REMARK 924 INTRA-LIGAND FREE ENERGY PREDICTED BY IDOCK:   -0.01 KCAL/MOL
REMARK 927      BINDING AFFINITY PREDICTED BY RF-SCORE:    0.00 PKD
ROOT
HETATM    1  O   UNL     1      -9.544  17.075  65.699  1.00  0.00    -0.536 OA 
HETATM    2  C   UNL     1     -10.471  16.520  66.624  1.00  0.00    -0.266 C  
HETATM    3  H   UNL     1      -9.135  17.857  66.049  1.00  0.00     0.000 HD 
ENDROOT
BRANCH   2   4
HETATM    4  C   UNL     1     -11.119  15.279  66.069  1.00  0.00    -0.278 A  
HETATM    5  C   UNL     1     -11.401  14.200  66.919  1.00  0.00    -0.343 A  
HETATM    6  C   UNL     1     -12.026  13.050  66.429  1.00  0.00    -0.466 A  
HETATM    7  C   UNL     1     -12.388  12.972  65.085  1.00  0.00    -0.536 A  
HETATM    8  C   UNL     1     -12.132  14.044  64.234  1.00  0.00    -0.476 A  
HETATM    9  C   UNL     1     -11.508  15.193  64.724  1.00  0.00    -0.383 A  
ENDBRANCH   2   4
TORSDOF 1
ENDMDL
MODEL       57
REMARK 921   NORMALIZED FREE ENERGY PREDICTED BY IDOCK:   -3.09 KCAL/MOL
REMARK 922        TOTAL FREE ENERGY PREDICTED BY IDOCK:   -3.29 KCAL/MOL
REMARK 923 INTER-LIGAND FREE ENERGY PREDICTED BY IDOCK:   -3.28 KCAL/MOL
REMARK 924 INTRA-LIGAND FREE ENERGY PREDICTED BY IDOCK:   -0.01 KCAL/MOL
REMARK 927      BINDING AFFINITY PREDICTED BY RF-SCORE:    0.00 PKD
ROOT
HETATM    1  O   UNL     1      -8.515   8.926  72.218  1.00  0.00    -0.391 OA 
HETATM    2  C   UNL     1      -9.416   8.327  71.293  1.00  0.00    -0.172 C  
HETATM    3  H   UNL     1      -7.644   8.555  72.138  1.00  0.00     0.000 HD 
ENDROOT
BRANCH   2   4
HETATM    4  C   UNL     1     -10.797   8.915  71.420  1.00  0.00    -0.378 A  
HETATM    5  C   UNL     1     -11.724   8.333  72.296  1.00  0.00    -0.453 A  
HETATM    6  C   UNL     1     -13.002   8.879  72.448  1.00  0.00    -0.467 A  
HETATM    7  C   UNL     1     -13.362  10.020  71.733  1.00  0.00    -0.492 A  
HETATM    8  C   UNL     1     -12.445  10.620  70.874  1.00  0.00    -0.495 A  
HETATM    9  C   UNL     1     -11.168  10.075  70.723  1.00  0.00    -0.428 A  
ENDBRANCH   2   4
TORSDOF 1
ENDMDL
MODEL       58
REMARK 921   NORMALIZED FREE ENERGY PREDICTED BY IDOCK:   -3.09 KCAL/MOL
REMARK 922        TOTAL FREE ENERGY PREDICTED BY IDOCK:   -3.28 KCAL/MOL
REMARK 923 INTER-LIGAND FREE ENERGY PREDICTED BY IDOCK:   -3.27 KCAL/MOL
REMARK 924 INTRA-LIGAND FREE ENERGY PREDICTED BY IDOCK:   -0.01 KCAL/MOL
REMARK 927      BINDING AFFINITY PREDICTED BY RF-SCORE:    0.00 PKD
ROOT
HETATM    1  O   UNL     1     -11.596   6.311  70.062  1.00  0.00    -0.425 OA 
HETATM    2  C   UNL     1     -10.745   7.390  70.427  1.00  0.00    -0.237 C  
HETATM    3  H   UNL     1     -11.093   5.566  69.752  1.00  0.00     0.000 HD 
ENDROOT
BRANCH   2   4
HETATM    4  C   UNL     1     -11.542   8.571  70.917  1.00  0.00    -0.295 A  
HETATM    5  C   UNL     1     -11.231   9.860  70.461  1.00  0.00    -0.399 A  
HETATM    6  C   UNL     1     -11.976  10.964  70.883  1.00  0.00    -0.416 A  
HETATM    7  C   UNL     1     -13.047  10.790  71.758  1.00  0.00    -0.573 A  
HETATM    8  C   UNL     1     -13.379   9.514  72.204  1.00  0.00    -0.545 A  
HETATM    9  C   UNL     1     -12.636   8.410  71.782  1.00  0.00    -0.378 A  
ENDBRANCH   2   4
TORSDOF 1
ENDMDL
MODEL       59
REMARK 921   NORMALIZED FREE ENERGY PREDICTED BY IDOCK:   -3.08 KCAL/MOL
REMARK 922        TOTAL FREE ENERGY PREDICTED BY IDOCK:   -3.27 KCAL/MOL
REMARK 923 INTER-LIGAND FREE ENERGY PREDICTED BY IDOCK:   -3.26 KCAL/MOL
REMARK 924 INTRA-LIGAND FREE ENERGY PREDICTED BY IDOCK:   -0.01 KCAL/MOL
REMARK 927      BINDING AFFINITY PREDICTED BY RF-SCORE:    0.00 PKD
ROOT
HETATM    1  O   UNL     1     -12.536  15.558  69.648  1.00  0.00    -0.575 OA 
HETATM    2  C   UNL     1     -11.660  15.616  68.528  1.00  0.00    -0.370 C  
HETATM    3  H   UNL     1     -12.564  16.389  70.107  1.00  0.00     0.000 HD 
ENDROOT
BRANCH   2   4
HETATM    4  C   UNL     1     -11.616  14.298  67.801  1.00  0.00    -0.383 A  
HETATM    5  C   UNL     1     -12.111  14.206  66.493  1.00  0.00    -0.481 A  
HETATM    6  C   UNL     1     -12.055  12.999  65.792  1.00  0.00    -0.510 A  
HETATM    7  C   UNL     1     -11.490  11.872  66.388  1.00  0.00    -0.371 A  
HETATM    8  C   UNL     1     -10.976  11.954  67.679  1.00  0.00    -0.286 A  
HETATM    9  C   UNL     1     -11.032  13.160  68.379  1.00  0.00    -0.287 A  
ENDBRANCH   2   4
TORSDOF 1
ENDMDL
MODEL       60
REMARK 921   NORMALIZED FREE ENERGY PREDICTED BY IDOCK:   -3.07 KCAL/MOL
REMARK 922        TOTAL FREE ENERGY PREDICTED BY IDOCK:   -3.26 KCAL/MOL
REMARK 923 INTER-LIGAND FREE ENERGY PREDICTED BY IDOCK:   -3.25 KCAL/MOL
REMARK 924 INTRA-LIGAND FREE ENERGY PREDICTED BY IDOCK:   -0.01 KCAL/MOL
REMARK 927      BINDING AFFINITY PREDICTED BY RF-SCORE:    0.00 PKD
ROOT
HETATM    1  O   UNL     1     -11.615   6.297  70.070  1.00  0.00    -0.425 OA 
HETATM    2  C   UNL     1     -10.812   7.453  70.278  1.00  0.00    -0.245 C  
HETATM    3  H   UNL     1     -11.095   5.570  69.749  1.00  0.00     0.000 HD 
ENDROOT
BRANCH   2   4
HETATM    4  C   UNL     1     -11.637   8.606  70.786  1.00  0.00    -0.273 A  
HETATM    5  C   UNL     1     -12.664   8.373  71.713  1.00  0.00    -0.373 A  
HETATM    6  C   UNL     1     -13.423   9.433  72.217  1.00  0.00    -0.539 A  
HETATM    7  C   UNL     1     -13.155  10.739  71.809  1.00  0.00    -0.573 A  
HETATM    8  C   UNL     1     -12.125  10.986  70.904  1.00  0.00    -0.444 A  
HETATM    9  C   UNL     1     -11.367   9.928  70.402  1.00  0.00    -0.376 A  
ENDBRANCH   2   4
TORSDOF 1
ENDMDL
MODEL       61
REMARK 921   NORMALIZED FREE ENERGY PREDICTED BY IDOCK:   -3.06 KCAL/MOL
REMARK 922        TOTAL FREE ENERGY PREDICTED BY IDOCK:   -3.26 KCAL/MOL
REMARK 923 INTER-LIGAND FREE ENERGY PREDICTED BY IDOCK:   -3.24 KCAL/MOL
REMARK 924 INTRA-LIGAND FREE ENERGY PREDICTED BY IDOCK:   -0.02 KCAL/MOL
REMARK 927      BINDING AFFINITY PREDICTED BY RF-SCORE:    0.00 PKD
ROOT
HETATM    1  O   UNL     1      -9.884  17.236  65.766  1.00  0.00    -0.528 OA 
HETATM    2  C   UNL     1      -9.404  15.912  65.969  1.00  0.00    -0.349 C  
HETATM    3  H   UNL     1      -9.214  17.879  65.965  1.00  0.00     0.000 HD 
ENDROOT
BRANCH   2   4
HETATM    4  C   UNL     1     -10.466  14.892  65.653  1.00  0.00    -0.366 A  
HETATM    5  C   UNL     1     -11.395  15.144  64.633  1.00  0.00    -0.362 A  
HETATM    6  C   UNL     1     -12.371  14.199  64.308  1.00  0.00    -0.398 A  
HETATM    7  C   UNL     1     -12.422  12.985  64.991  1.00  0.00    -0.534 A  
HETATM    8  C   UNL     1     -11.494  12.713  65.993  1.00  0.00    -0.414 A  
HETATM    9  C   UNL     1     -10.518  13.657  66.318  1.00  0.00    -0.291 A  
ENDBRANCH   2   4
TORSDOF 1
ENDMDL
MODEL       62
REMARK 921   NORMALIZED FREE ENERGY PREDICTED BY IDOCK:   -3.02 KCAL/MOL
REMARK 922        TOTAL FREE ENERGY PREDICTED BY IDOCK:   -3.21 KCAL/MOL
REMARK 923 INTER-LIGAND FREE ENERGY PREDICTED BY IDOCK:   -3.19 KCAL/MOL
REMARK 924 INTRA-LIGAND FREE ENERGY PREDICTED BY IDOCK:   -0.01 KCAL/MOL
REMARK 927      BINDING AFFINITY PREDICTED BY RF-SCORE:    0.00 PKD
ROOT
HETATM    1  O   UNL     1      -9.474  15.779  65.445  1.00  0.00    -0.321 OA 
HETATM    2  C   UNL     1      -8.620  16.371  66.416  1.00  0.00    -0.323 C  
HETATM    3  H   UNL     1      -9.226  14.878  65.272  1.00  0.00     0.000 HD 
ENDROOT
BRANCH   2   4
HETATM    4  C   UNL     1      -9.013  17.799  66.690  1.00  0.00    -0.283 A  
HETATM    5  C   UNL     1     -10.351  18.112  66.973  1.00  0.00    -0.391 A  
HETATM    6  C   UNL     1     -10.731  19.426  67.256  1.00  0.00    -0.603 A  
HETATM    7  C   UNL     1      -9.776  20.441  67.271  1.00  0.00    -0.602 A  
HETATM    8  C   UNL     1      -8.441  20.142  67.011  1.00  0.00    -0.397 A  
HETATM    9  C   UNL     1      -8.061  18.829  66.729  1.00  0.00    -0.274 A  
ENDBRANCH   2   4
TORSDOF 1
ENDMDL
MODEL       63
REMARK 921   NORMALIZED FREE ENERGY PREDICTED BY IDOCK:   -3.00 KCAL/MOL
REMARK 922        TOTAL FREE ENERGY PREDICTED BY IDOCK:   -3.19 KCAL/MOL
REMARK 923 INTER-LIGAND FREE ENERGY PREDICTED BY IDOCK:   -3.17 KCAL/MOL
REMARK 924 INTRA-LIGAND FREE ENERGY PREDICTED BY IDOCK:   -0.02 KCAL/MOL
REMARK 927      BINDING AFFINITY PREDICTED BY RF-SCORE:    0.00 PKD
ROOT
HETATM    1  O   UNL     1     -12.161  12.686  70.937  1.00  0.00    -0.456 OA 
HETATM    2  C   UNL     1     -11.825  11.700  69.968  1.00  0.00    -0.355 C  
HETATM    3  H   UNL     1     -12.194  12.314  71.810  1.00  0.00     0.000 HD 
ENDROOT
BRANCH   2   4
HETATM    4  C   UNL     1     -11.772  12.292  68.584  1.00  0.00    -0.377 A  
HETATM    5  C   UNL     1     -11.900  13.678  68.413  1.00  0.00    -0.407 A  
HETATM    6  C   UNL     1     -11.827  14.248  67.139  1.00  0.00    -0.454 A  
HETATM    7  C   UNL     1     -11.612  13.440  66.024  1.00  0.00    -0.375 A  
HETATM    8  C   UNL     1     -11.463  12.065  66.182  1.00  0.00    -0.401 A  
HETATM    9  C   UNL     1     -11.536  11.494  67.454  1.00  0.00    -0.349 A  
ENDBRANCH   2   4
TORSDOF 1
ENDMDL
MODEL       64
REMARK 921   NORMALIZED FREE ENERGY PREDICTED BY IDOCK:   -3.00 KCAL/MOL
REMARK 922        TOTAL FREE ENERGY PREDICTED BY IDOCK:   -3.19 KCAL/MOL
REMARK 923 INTER-LIGAND FREE ENERGY PREDICTED BY IDOCK:   -3.17 KCAL/MOL
REMARK 924 INTRA-LIGAND FREE ENERGY PREDICTED BY IDOCK:   -0.02 KCAL/MOL
REMARK 927      BINDING AFFINITY PREDICTED BY RF-SCORE:    0.00 PKD
ROOT
HETATM    1  O   UNL     1     -10.361  19.833  69.456  1.00  0.00    -0.635 OA 
HETATM    2  C   UNL     1     -10.345  19.720  68.038  1.00  0.00    -0.434 C  
HETATM    3  H   UNL     1     -10.355  20.743  69.729  1.00  0.00     0.000 HD 
ENDROOT
BRANCH   2   4
HETATM    4  C   UNL     1     -10.356  18.277  67.606  1.00  0.00    -0.414 A  
HETATM    5  C   UNL     1     -10.499  17.263  68.564  1.00  0.00    -0.375 A  
HETATM    6  C   UNL     1     -10.538  15.920  68.180  1.00  0.00    -0.280 A  
HETATM    7  C   UNL     1     -10.446  15.577  66.832  1.00  0.00    -0.301 A  
HETATM    8  C   UNL     1     -10.324  16.574  65.868  1.00  0.00    -0.365 A  
HETATM    9  C   UNL     1     -10.286  17.916  66.252  1.00  0.00    -0.363 A  
ENDBRANCH   2   4
TORSDOF 1
ENDMDL
MODEL       65
REMARK 921   NORMALIZED FREE ENERGY PREDICTED BY IDOCK:   -2.97 KCAL/MOL
REMARK 922        TOTAL FREE ENERGY PREDICTED BY IDOCK:   -3.16 KCAL/MOL
REMARK 923 INTER-LIGAND FREE ENERGY PREDICTED BY IDOCK:   -3.15 KCAL/MOL
REMARK 924 INTRA-LIGAND FREE ENERGY PREDICTED BY IDOCK:   -0.01 KCAL/MOL
REMARK 927      BINDING AFFINITY PREDICTED BY RF-SCORE:    0.00 PKD
ROOT
HETATM    1  O   UNL     1     -14.199   7.576  70.880  1.00  0.00    -0.644 OA 
HETATM    2  C   UNL     1     -13.099   7.677  71.775  1.00  0.00    -0.323 C  
HETATM    3  H   UNL     1     -14.890   8.184  71.114  1.00  0.00     0.000 HD 
ENDROOT
BRANCH   2   4
HETATM    4  C   UNL     1     -12.003   6.713  71.404  1.00  0.00    -0.405 A  
HETATM    5  C   UNL     1     -11.427   5.899  72.389  1.00  0.00    -0.358 A  
HETATM    6  C   UNL     1     -10.428   4.979  72.060  1.00  0.00    -0.269 A  
HETATM    7  C   UNL     1     -10.002   4.854  70.738  1.00  0.00    -0.292 A  
HETATM    8  C   UNL     1     -10.580   5.642  69.746  1.00  0.00    -0.400 A  
HETATM    9  C   UNL     1     -11.578   6.561  70.075  1.00  0.00    -0.455 A  
ENDBRANCH   2   4
TORSDOF 1
ENDMDL
MODEL       66
REMARK 921   NORMALIZED FREE ENERGY PREDICTED BY IDOCK:   -2.96 KCAL/MOL
REMARK 922        TOTAL FREE ENERGY PREDICTED BY IDOCK:   -3.15 KCAL/MOL
REMARK 923 INTER-LIGAND FREE ENERGY PREDICTED BY IDOCK:   -3.13 KCAL/MOL
REMARK 924 INTRA-LIGAND FREE ENERGY PREDICTED BY IDOCK:   -0.02 KCAL/MOL
REMARK 927      BINDING AFFINITY PREDICTED BY RF-SCORE:    0.00 PKD
ROOT
HETATM    1  O   UNL     1      -5.783  19.734  66.813  1.00  0.00    -0.173 OA 
HETATM    2  C   UNL     1      -6.555  19.744  68.008  1.00  0.00    -0.248 C  
HETATM    3  H   UNL     1      -4.853  19.780  67.004  1.00  0.00     0.000 HD 
ENDROOT
BRANCH   2   4
HETATM    4  C   UNL     1      -8.029  19.672  67.705  1.00  0.00    -0.320 A  
HETATM    5  C   UNL     1      -8.478  19.835  66.386  1.00  0.00    -0.391 A  
HETATM    6  C   UNL     1      -9.839  19.745  66.081  1.00  0.00    -0.544 A  
HETATM    7  C   UNL     1     -10.764  19.478  67.089  1.00  0.00    -0.599 A  
HETATM    8  C   UNL     1     -10.330  19.294  68.399  1.00  0.00    -0.435 A  
HETATM    9  C   UNL     1      -8.971  19.383  68.704  1.00  0.00    -0.419 A  
ENDBRANCH   2   4
TORSDOF 1
ENDMDL
MODEL       67
REMARK 921   NORMALIZED FREE ENERGY PREDICTED BY IDOCK:   -2.95 KCAL/MOL
REMARK 922        TOTAL FREE ENERGY PREDICTED BY IDOCK:   -3.13 KCAL/MOL
REMARK 923 INTER-LIGAND FREE ENERGY PREDICTED BY IDOCK:   -3.13 KCAL/MOL
REMARK 924 INTRA-LIGAND FREE ENERGY PREDICTED BY IDOCK:   -0.01 KCAL/MOL
REMARK 927      BINDING AFFINITY PREDICTED BY RF-SCORE:    0.00 PKD
ROOT
HETATM    1  O   UNL     1     -10.263  19.388  69.380  1.00  0.00    -0.591 OA 
HETATM    2  C   UNL     1      -9.243  18.740  68.629  1.00  0.00    -0.347 C  
HETATM    3  H   UNL     1     -11.015  18.821  69.499  1.00  0.00     0.000 HD 
ENDROOT
BRANCH   2   4
HETATM    4  C   UNL     1      -8.050  19.639  68.439  1.00  0.00    -0.352 A  
HETATM    5  C   UNL     1      -7.044  19.678  69.416  1.00  0.00    -0.326 A  
HETATM    6  C   UNL     1      -5.917  20.485  69.246  1.00  0.00    -0.383 A  
HETATM    7  C   UNL     1      -5.777  21.254  68.091  1.00  0.00    -0.342 A  
HETATM    8  C   UNL     1      -6.758  21.211  67.105  1.00  0.00    -0.411 A  
HETATM    9  C   UNL     1      -7.884  20.403  67.274  1.00  0.00    -0.373 A  
ENDBRANCH   2   4
TORSDOF 1
ENDMDL
MODEL       68
REMARK 921   NORMALIZED FREE ENERGY PREDICTED BY IDOCK:   -2.95 KCAL/MOL
REMARK 922        TOTAL FREE ENERGY PREDICTED BY IDOCK:   -3.13 KCAL/MOL
REMARK 923 INTER-LIGAND FREE ENERGY PREDICTED BY IDOCK:   -3.12 KCAL/MOL
REMARK 924 INTRA-LIGAND FREE ENERGY PREDICTED BY IDOCK:   -0.02 KCAL/MOL
REMARK 927      BINDING AFFINITY PREDICTED BY RF-SCORE:    0.00 PKD
ROOT
HETATM    1  O   UNL     1     -11.845  11.309  67.462  1.00  0.00    -0.613 OA 
HETATM    2  C   UNL     1     -11.847  12.670  67.047  1.00  0.00    -0.345 C  
HETATM    3  H   UNL     1     -11.845  10.722  66.716  1.00  0.00     0.000 HD 
ENDROOT
BRANCH   2   4
HETATM    4  C   UNL     1     -11.847  13.601  68.231  1.00  0.00    -0.404 A  
HETATM    5  C   UNL     1     -11.464  14.940  68.065  1.00  0.00    -0.355 A  
HETATM    6  C   UNL     1     -11.483  15.826  69.145  1.00  0.00    -0.383 A  
HETATM    7  C   UNL     1     -11.898  15.386  70.401  1.00  0.00    -0.366 A  
HETATM    8  C   UNL     1     -12.300  14.065  70.576  1.00  0.00    -0.437 A  
HETATM    9  C   UNL     1     -12.282  13.179  69.497  1.00  0.00    -0.214 A  
ENDBRANCH   2   4
TORSDOF 1
ENDMDL
MODEL       69
REMARK 921   NORMALIZED FREE ENERGY PREDICTED BY IDOCK:   -2.94 KCAL/MOL
REMARK 922        TOTAL FREE ENERGY PREDICTED BY IDOCK:   -3.13 KCAL/MOL
REMARK 923 INTER-LIGAND FREE ENERGY PREDICTED BY IDOCK:   -3.12 KCAL/MOL
REMARK 924 INTRA-LIGAND FREE ENERGY PREDICTED BY IDOCK:   -0.01 KCAL/MOL
REMARK 927      BINDING AFFINITY PREDICTED BY RF-SCORE:    0.00 PKD
ROOT
HETATM    1  O   UNL     1     -12.141  11.449  63.279  1.00  0.00    -0.830 OA 
HETATM    2  C   UNL     1     -10.787  11.575  63.697  1.00  0.00    -0.415 C  
HETATM    3  H   UNL     1     -12.204  10.986  62.452  1.00  0.00     0.000 HD 
ENDROOT
BRANCH   2   4
HETATM    4  C   UNL     1     -10.687  12.309  65.008  1.00  0.00    -0.336 A  
HETATM    5  C   UNL     1     -10.858  11.612  66.213  1.00  0.00    -0.333 A  
HETATM    6  C   UNL     1     -10.743  12.270  67.440  1.00  0.00    -0.261 A  
HETATM    7  C   UNL     1     -10.443  13.631  67.477  1.00  0.00    -0.241 A  
HETATM    8  C   UNL     1     -10.251  14.332  66.289  1.00  0.00    -0.307 A  
HETATM    9  C   UNL     1     -10.366  13.674  65.062  1.00  0.00    -0.393 A  
ENDBRANCH   2   4
TORSDOF 1
ENDMDL
MODEL       70
REMARK 921   NORMALIZED FREE ENERGY PREDICTED BY IDOCK:   -2.91 KCAL/MOL
REMARK 922        TOTAL FREE ENERGY PREDICTED BY IDOCK:   -3.10 KCAL/MOL
REMARK 923 INTER-LIGAND FREE ENERGY PREDICTED BY IDOCK:   -3.08 KCAL/MOL
REMARK 924 INTRA-LIGAND FREE ENERGY PREDICTED BY IDOCK:   -0.02 KCAL/MOL
REMARK 927      BINDING AFFINITY PREDICTED BY RF-SCORE:    0.00 PKD
ROOT
HETATM    1  O   UNL     1     -12.147  10.723  68.567  1.00  0.00    -0.788 OA 
HETATM    2  C   UNL     1     -11.336  11.302  67.553  1.00  0.00    -0.288 C  
HETATM    3  H   UNL     1     -12.154   9.775  68.503  1.00  0.00     0.000 HD 
ENDROOT
BRANCH   2   4
HETATM    4  C   UNL     1     -11.326  12.805  67.655  1.00  0.00    -0.359 A  
HETATM    5  C   UNL     1     -11.805  13.428  68.816  1.00  0.00    -0.386 A  
HETATM    6  C   UNL     1     -11.779  14.820  68.940  1.00  0.00    -0.340 A  
HETATM    7  C   UNL     1     -11.262  15.603  67.909  1.00  0.00    -0.328 A  
HETATM    8  C   UNL     1     -10.764  14.996  66.759  1.00  0.00    -0.308 A  
HETATM    9  C   UNL     1     -10.789  13.606  66.635  1.00  0.00    -0.283 A  
ENDBRANCH   2   4
TORSDOF 1
ENDMDL
MODEL       71
REMARK 921   NORMALIZED FREE ENERGY PREDICTED BY IDOCK:   -2.89 KCAL/MOL
REMARK 922        TOTAL FREE ENERGY PREDICTED BY IDOCK:   -3.08 KCAL/MOL
REMARK 923 INTER-LIGAND FREE ENERGY PREDICTED BY IDOCK:   -3.06 KCAL/MOL
REMARK 924 INTRA-LIGAND FREE ENERGY PREDICTED BY IDOCK:   -0.02 KCAL/MOL
REMARK 927      BINDING AFFINITY PREDICTED BY RF-SCORE:    0.00 PKD
ROOT
HETATM    1  O   UNL     1     -11.554  12.599  70.415  1.00  0.00    -0.533 OA 
HETATM    2  C   UNL     1     -11.982  13.696  69.618  1.00  0.00    -0.343 C  
HETATM    3  H   UNL     1     -11.678  12.776  71.340  1.00  0.00     0.000 HD 
ENDROOT
BRANCH   2   4
HETATM    4  C   UNL     1     -11.785  13.416  68.152  1.00  0.00    -0.397 A  
HETATM    5  C   UNL     1     -11.244  12.188  67.743  1.00  0.00    -0.333 A  
HETATM    6  C   UNL     1     -11.078  11.898  66.386  1.00  0.00    -0.359 A  
HETATM    7  C   UNL     1     -11.463  12.828  65.422  1.00  0.00    -0.363 A  
HETATM    8  C   UNL     1     -12.020  14.043  65.813  1.00  0.00    -0.417 A  
HETATM    9  C   UNL     1     -12.187  14.333  67.168  1.00  0.00    -0.312 A  
ENDBRANCH   2   4
TORSDOF 1
ENDMDL
MODEL       72
REMARK 921   NORMALIZED FREE ENERGY PREDICTED BY IDOCK:   -2.88 KCAL/MOL
REMARK 922        TOTAL FREE ENERGY PREDICTED BY IDOCK:   -3.06 KCAL/MOL
REMARK 923 INTER-LIGAND FREE ENERGY PREDICTED BY IDOCK:   -3.05 KCAL/MOL
REMARK 924 INTRA-LIGAND FREE ENERGY PREDICTED BY IDOCK:   -0.01 KCAL/MOL
REMARK 927      BINDING AFFINITY PREDICTED BY RF-SCORE:    0.00 PKD
ROOT
HETATM    1  O   UNL     1      -6.334  17.508  68.093  1.00  0.00    -0.166 OA 
HETATM    2  C   UNL     1      -6.969  18.583  68.774  1.00  0.00    -0.278 C  
HETATM    3  H   UNL     1      -5.477  17.327  68.460  1.00  0.00     0.000 HD 
ENDROOT
BRANCH   2   4
HETATM    4  C   UNL     1      -8.328  18.871  68.192  1.00  0.00    -0.341 A  
HETATM    5  C   UNL     1      -9.386  17.979  68.418  1.00  0.00    -0.306 A  
HETATM    6  C   UNL     1     -10.661  18.242  67.908  1.00  0.00    -0.392 A  
HETATM    7  C   UNL     1     -10.894  19.406  67.177  1.00  0.00    -0.561 A  
HETATM    8  C   UNL     1      -9.857  20.310  66.962  1.00  0.00    -0.607 A  
HETATM    9  C   UNL     1      -8.584  20.048  67.472  1.00  0.00    -0.401 A  
ENDBRANCH   2   4
TORSDOF 1
ENDMDL
MODEL       73
REMARK 921   NORMALIZED FREE ENERGY PREDICTED BY IDOCK:   -2.87 KCAL/MOL
REMARK 922        TOTAL FREE ENERGY PREDICTED BY IDOCK:   -3.05 KCAL/MOL
REMARK 923 INTER-LIGAND FREE ENERGY PREDICTED BY IDOCK:   -3.03 KCAL/MOL
REMARK 924 INTRA-LIGAND FREE ENERGY PREDICTED BY IDOCK:   -0.01 KCAL/MOL
REMARK 927      BINDING AFFINITY PREDICTED BY RF-SCORE:    0.00 PKD
ROOT
HETATM    1  O   UNL     1     -11.765   4.548  65.055  1.00  0.00    -1.044 OA 
HETATM    2  C   UNL     1     -10.425   4.492  65.529  1.00  0.00    -0.211 C  
HETATM    3  H   UNL     1     -11.825   4.245  64.157  1.00  0.00     0.000 HD 
ENDROOT
BRANCH   2   4
HETATM    4  C   UNL     1     -10.329   4.972  66.953  1.00  0.00    -0.267 A  
HETATM    5  C   UNL     1     -10.997   6.143  67.341  1.00  0.00    -0.409 A  
HETATM    6  C   UNL     1     -10.943   6.590  68.663  1.00  0.00    -0.363 A  
HETATM    7  C   UNL     1     -10.230   5.865  69.617  1.00  0.00    -0.281 A  
HETATM    8  C   UNL     1      -9.579   4.690  69.251  1.00  0.00    -0.251 A  
HETATM    9  C   UNL     1      -9.633   4.242  67.929  1.00  0.00    -0.207 A  
ENDBRANCH   2   4
TORSDOF 1
ENDMDL
MODEL       74
REMARK 921   NORMALIZED FREE ENERGY PREDICTED BY IDOCK:   -2.87 KCAL/MOL
REMARK 922        TOTAL FREE ENERGY PREDICTED BY IDOCK:   -3.05 KCAL/MOL
REMARK 923 INTER-LIGAND FREE ENERGY PREDICTED BY IDOCK:   -3.03 KCAL/MOL
REMARK 924 INTRA-LIGAND FREE ENERGY PREDICTED BY IDOCK:   -0.02 KCAL/MOL
REMARK 927      BINDING AFFINITY PREDICTED BY RF-SCORE:    0.00 PKD
ROOT
HETATM    1  O   UNL     1     -10.795  13.760  64.139  1.00  0.00    -0.577 OA 
HETATM    2  C   UNL     1     -11.416  13.610  65.410  1.00  0.00    -0.311 C  
HETATM    3  H   UNL     1     -10.955  13.005  63.586  1.00  0.00     0.000 HD 
ENDROOT
BRANCH   2   4
HETATM    4  C   UNL     1     -11.162  14.807  66.287  1.00  0.00    -0.343 A  
HETATM    5  C   UNL     1     -11.642  14.821  67.604  1.00  0.00    -0.374 A  
HETATM    6  C   UNL     1     -11.394  15.912  68.442  1.00  0.00    -0.361 A  
HETATM    7  C   UNL     1     -10.651  16.995  67.975  1.00  0.00    -0.373 A  
HETATM    8  C   UNL     1     -10.152  16.986  66.676  1.00  0.00    -0.308 A  
HETATM    9  C   UNL     1     -10.399  15.897  65.839  1.00  0.00    -0.383 A  
ENDBRANCH   2   4
TORSDOF 1
ENDMDL
MODEL       75
REMARK 921   NORMALIZED FREE ENERGY PREDICTED BY IDOCK:   -2.86 KCAL/MOL
REMARK 922        TOTAL FREE ENERGY PREDICTED BY IDOCK:   -3.04 KCAL/MOL
REMARK 923 INTER-LIGAND FREE ENERGY PREDICTED BY IDOCK:   -3.02 KCAL/MOL
REMARK 924 INTRA-LIGAND FREE ENERGY PREDICTED BY IDOCK:   -0.01 KCAL/MOL
REMARK 927      BINDING AFFINITY PREDICTED BY RF-SCORE:    0.00 PKD
ROOT
HETATM    1  O   UNL     1     -11.847   8.769  70.288  1.00  0.00    -0.476 OA 
HETATM    2  C   UNL     1     -11.483  10.086  70.683  1.00  0.00    -0.345 C  
HETATM    3  H   UNL     1     -11.811   8.167  71.021  1.00  0.00     0.000 HD 
ENDROOT
BRANCH   2   4
HETATM    4  C   UNL     1     -11.542  11.041  69.520  1.00  0.00    -0.384 A  
HETATM    5  C   UNL     1     -11.939  12.370  69.728  1.00  0.00    -0.359 A  
HETATM    6  C   UNL     1     -11.974  13.278  68.667  1.00  0.00    -0.345 A  
HETATM    7  C   UNL     1     -11.600  12.871  67.387  1.00  0.00    -0.414 A  
HETATM    8  C   UNL     1     -11.184  11.560  67.170  1.00  0.00    -0.365 A  
HETATM    9  C   UNL     1     -11.148  10.652  68.230  1.00  0.00    -0.334 A  
ENDBRANCH   2   4
TORSDOF 1
ENDMDL
MODEL       76
REMARK 921   NORMALIZED FREE ENERGY PREDICTED BY IDOCK:   -2.85 KCAL/MOL
REMARK 922        TOTAL FREE ENERGY PREDICTED BY IDOCK:   -3.03 KCAL/MOL
REMARK 923 INTER-LIGAND FREE ENERGY PREDICTED BY IDOCK:   -3.01 KCAL/MOL
REMARK 924 INTRA-LIGAND FREE ENERGY PREDICTED BY IDOCK:   -0.02 KCAL/MOL
REMARK 927      BINDING AFFINITY PREDICTED BY RF-SCORE:    0.00 PKD
ROOT
HETATM    1  O   UNL     1     -12.694  14.510  69.643  1.00  0.00    -0.560 OA 
HETATM    2  C   UNL     1     -11.717  15.543  69.621  1.00  0.00    -0.357 C  
HETATM    3  H   UNL     1     -13.001  14.345  70.527  1.00  0.00     0.000 HD 
ENDROOT
BRANCH   2   4
HETATM    4  C   UNL     1     -11.231  15.804  68.220  1.00  0.00    -0.356 A  
HETATM    5  C   UNL     1     -10.594  17.016  67.917  1.00  0.00    -0.365 A  
HETATM    6  C   UNL     1     -10.112  17.267  66.630  1.00  0.00    -0.302 A  
HETATM    7  C   UNL     1     -10.250  16.302  65.633  1.00  0.00    -0.368 A  
HETATM    8  C   UNL     1     -10.863  15.086  65.924  1.00  0.00    -0.339 A  
HETATM    9  C   UNL     1     -11.344  14.836  67.211  1.00  0.00    -0.366 A  
ENDBRANCH   2   4
TORSDOF 1
ENDMDL
MODEL       77
REMARK 921   NORMALIZED FREE ENERGY PREDICTED BY IDOCK:   -2.81 KCAL/MOL
REMARK 922        TOTAL FREE ENERGY PREDICTED BY IDOCK:   -2.98 KCAL/MOL
REMARK 923 INTER-LIGAND FREE ENERGY PREDICTED BY IDOCK:   -2.97 KCAL/MOL
REMARK 924 INTRA-LIGAND FREE ENERGY PREDICTED BY IDOCK:   -0.02 KCAL/MOL
REMARK 927      BINDING AFFINITY PREDICTED BY RF-SCORE:    0.00 PKD
ROOT
HETATM    1  O   UNL     1      -9.565  20.941  67.038  1.00  0.00    -0.679 OA 
HETATM    2  C   UNL     1     -10.383  19.930  67.615  1.00  0.00    -0.416 C  
HETATM    3  H   UNL     1      -9.890  21.808  67.249  1.00  0.00     0.000 HD 
ENDROOT
BRANCH   2   4
HETATM    4  C   UNL     1      -9.868  18.555  67.281  1.00  0.00    -0.329 A  
HETATM    5  C   UNL     1      -8.619  18.410  66.658  1.00  0.00    -0.289 A  
HETATM    6  C   UNL     1      -8.112  17.142  66.363  1.00  0.00    -0.337 A  
HETATM    7  C   UNL     1      -8.842  16.003  66.700  1.00  0.00    -0.307 A  
HETATM    8  C   UNL     1     -10.074  16.131  67.336  1.00  0.00    -0.257 A  
HETATM    9  C   UNL     1     -10.581  17.398  67.631  1.00  0.00    -0.350 A  
ENDBRANCH   2   4
TORSDOF 1
ENDMDL
MODEL       78
REMARK 921   NORMALIZED FREE ENERGY PREDICTED BY IDOCK:   -2.79 KCAL/MOL
REMARK 922        TOTAL FREE ENERGY PREDICTED BY IDOCK:   -2.97 KCAL/MOL
REMARK 923 INTER-LIGAND FREE ENERGY PREDICTED BY IDOCK:   -2.95 KCAL/MOL
REMARK 924 INTRA-LIGAND FREE ENERGY PREDICTED BY IDOCK:   -0.02 KCAL/MOL
REMARK 927      BINDING AFFINITY PREDICTED BY RF-SCORE:    0.00 PKD
ROOT
HETATM    1  O   UNL     1     -11.227   7.239  67.508  1.00  0.00    -0.548 OA 
HETATM    2  C   UNL     1     -10.925   6.307  68.540  1.00  0.00    -0.340 C  
HETATM    3  H   UNL     1     -11.125   6.846  66.649  1.00  0.00     0.000 HD 
ENDROOT
BRANCH   2   4
HETATM    4  C   UNL     1     -11.087   6.930  69.901  1.00  0.00    -0.333 A  
HETATM    5  C   UNL     1     -11.321   6.114  71.018  1.00  0.00    -0.348 A  
HETATM    6  C   UNL     1     -11.447   6.670  72.293  1.00  0.00    -0.319 A  
HETATM    7  C   UNL     1     -11.327   8.048  72.469  1.00  0.00    -0.469 A  
HETATM    8  C   UNL     1     -11.075   8.868  71.372  1.00  0.00    -0.376 A  
HETATM    9  C   UNL     1     -10.949   8.312  70.098  1.00  0.00    -0.222 A  
ENDBRANCH   2   4
TORSDOF 1
ENDMDL
MODEL       79
REMARK 921   NORMALIZED FREE ENERGY PREDICTED BY IDOCK:   -2.76 KCAL/MOL
REMARK 922        TOTAL FREE ENERGY PREDICTED BY IDOCK:   -2.93 KCAL/MOL
REMARK 923 INTER-LIGAND FREE ENERGY PREDICTED BY IDOCK:   -2.92 KCAL/MOL
REMARK 924 INTRA-LIGAND FREE ENERGY PREDICTED BY IDOCK:   -0.01 KCAL/MOL
REMARK 927      BINDING AFFINITY PREDICTED BY RF-SCORE:    0.00 PKD
ROOT
HETATM    1  O   UNL     1     -12.623  10.240  69.881  1.00  0.00    -0.550 OA 
HETATM    2  C   UNL     1     -11.319   9.971  70.382  1.00  0.00    -0.320 C  
HETATM    3  H   UNL     1     -12.666  11.098  69.478  1.00  0.00     0.000 HD 
ENDROOT
BRANCH   2   4
HETATM    4  C   UNL     1     -11.250   8.609  71.021  1.00  0.00    -0.321 A  
HETATM    5  C   UNL     1     -11.313   7.459  70.221  1.00  0.00    -0.244 A  
HETATM    6  C   UNL     1     -11.224   6.187  70.792  1.00  0.00    -0.373 A  
HETATM    7  C   UNL     1     -11.059   6.051  72.170  1.00  0.00    -0.328 A  
HETATM    8  C   UNL     1     -10.975   7.184  72.974  1.00  0.00    -0.357 A  
HETATM    9  C   UNL     1     -11.063   8.455  72.404  1.00  0.00    -0.431 A  
ENDBRANCH   2   4
TORSDOF 1
ENDMDL
MODEL       80
REMARK 921   NORMALIZED FREE ENERGY PREDICTED BY IDOCK:   -2.75 KCAL/MOL
REMARK 922        TOTAL FREE ENERGY PREDICTED BY IDOCK:   -2.92 KCAL/MOL
REMARK 923 INTER-LIGAND FREE ENERGY PREDICTED BY IDOCK:   -2.90 KCAL/MOL
REMARK 924 INTRA-LIGAND FREE ENERGY PREDICTED BY IDOCK:   -0.02 KCAL/MOL
REMARK 927      BINDING AFFINITY PREDICTED BY RF-SCORE:    0.00 PKD
ROOT
HETATM    1  O   UNL     1     -10.798  15.701  66.663  1.00  0.00    -0.313 OA 
HETATM    2  C   UNL     1     -11.081  16.267  67.937  1.00  0.00    -0.270 C  
HETATM    3  H   UNL     1     -10.511  16.365  66.047  1.00  0.00     0.000 HD 
ENDROOT
BRANCH   2   4
HETATM    4  C   UNL     1     -11.537  15.214  68.912  1.00  0.00    -0.361 A  
HETATM    5  C   UNL     1     -11.429  13.857  68.575  1.00  0.00    -0.346 A  
HETATM    6  C   UNL     1     -11.822  12.865  69.477  1.00  0.00    -0.383 A  
HETATM    7  C   UNL     1     -12.316  13.218  70.732  1.00  0.00    -0.425 A  
HETATM    8  C   UNL     1     -12.410  14.561  71.087  1.00  0.00    -0.415 A  
HETATM    9  C   UNL     1     -12.017  15.553  70.187  1.00  0.00    -0.389 A  
ENDBRANCH   2   4
TORSDOF 1
ENDMDL
MODEL       81
REMARK 921   NORMALIZED FREE ENERGY PREDICTED BY IDOCK:   -2.73 KCAL/MOL
REMARK 922        TOTAL FREE ENERGY PREDICTED BY IDOCK:   -2.90 KCAL/MOL
REMARK 923 INTER-LIGAND FREE ENERGY PREDICTED BY IDOCK:   -2.89 KCAL/MOL
REMARK 924 INTRA-LIGAND FREE ENERGY PREDICTED BY IDOCK:   -0.01 KCAL/MOL
REMARK 927      BINDING AFFINITY PREDICTED BY RF-SCORE:    0.00 PKD
ROOT
HETATM    1  O   UNL     1      -8.505  18.421  65.925  1.00  0.00    -0.497 OA 
HETATM    2  C   UNL     1      -9.882  18.515  66.272  1.00  0.00    -0.337 C  
HETATM    3  H   UNL     1      -8.149  19.272  65.696  1.00  0.00     0.000 HD 
ENDROOT
BRANCH   2   4
HETATM    4  C   UNL     1     -10.446  17.167  66.635  1.00  0.00    -0.259 A  
HETATM    5  C   UNL     1     -10.651  16.205  65.635  1.00  0.00    -0.377 A  
HETATM    6  C   UNL     1     -11.149  14.939  65.955  1.00  0.00    -0.338 A  
HETATM    7  C   UNL     1     -11.434  14.616  67.281  1.00  0.00    -0.386 A  
HETATM    8  C   UNL     1     -11.217  15.555  68.286  1.00  0.00    -0.343 A  
HETATM    9  C   UNL     1     -10.719  16.819  67.966  1.00  0.00    -0.355 A  
ENDBRANCH   2   4
TORSDOF 1
ENDMDL
MODEL       82
REMARK 921   NORMALIZED FREE ENERGY PREDICTED BY IDOCK:   -2.70 KCAL/MOL
REMARK 922        TOTAL FREE ENERGY PREDICTED BY IDOCK:   -2.88 KCAL/MOL
REMARK 923 INTER-LIGAND FREE ENERGY PREDICTED BY IDOCK:   -2.87 KCAL/MOL
REMARK 924 INTRA-LIGAND FREE ENERGY PREDICTED BY IDOCK:   -0.01 KCAL/MOL
REMARK 927      BINDING AFFINITY PREDICTED BY RF-SCORE:    0.00 PKD
ROOT
HETATM    1  O   UNL     1     -12.079   6.741  69.709  1.00  0.00    -0.648 OA 
HETATM    2  C   UNL     1     -12.717   6.928  70.967  1.00  0.00    -0.210 C  
HETATM    3  H   UNL     1     -12.684   6.887  68.991  1.00  0.00     0.000 HD 
ENDROOT
BRANCH   2   4
HETATM    4  C   UNL     1     -11.758   6.697  72.105  1.00  0.00    -0.342 A  
HETATM    5  C   UNL     1     -11.641   5.418  72.669  1.00  0.00    -0.270 A  
HETATM    6  C   UNL     1     -10.738   5.178  73.708  1.00  0.00    -0.352 A  
HETATM    7  C   UNL     1      -9.932   6.210  74.185  1.00  0.00    -0.276 A  
HETATM    8  C   UNL     1     -10.024   7.480  73.621  1.00  0.00    -0.347 A  
HETATM    9  C   UNL     1     -10.926   7.720  72.583  1.00  0.00    -0.422 A  
ENDBRANCH   2   4
TORSDOF 1
ENDMDL
MODEL       83
REMARK 921   NORMALIZED FREE ENERGY PREDICTED BY IDOCK:   -2.69 KCAL/MOL
REMARK 922        TOTAL FREE ENERGY PREDICTED BY IDOCK:   -2.86 KCAL/MOL
REMARK 923 INTER-LIGAND FREE ENERGY PREDICTED BY IDOCK:   -2.85 KCAL/MOL
REMARK 924 INTRA-LIGAND FREE ENERGY PREDICTED BY IDOCK:   -0.01 KCAL/MOL
REMARK 927      BINDING AFFINITY PREDICTED BY RF-SCORE:    0.00 PKD
ROOT
HETATM    1  O   UNL     1      -9.738  16.347  65.741  1.00  0.00    -0.440 OA 
HETATM    2  C   UNL     1     -10.322  17.147  66.761  1.00  0.00    -0.302 C  
HETATM    3  H   UNL     1      -9.405  16.883  65.031  1.00  0.00     0.000 HD 
ENDROOT
BRANCH   2   4
HETATM    4  C   UNL     1     -10.850  16.296  67.886  1.00  0.00    -0.330 A  
HETATM    5  C   UNL     1     -10.752  16.751  69.209  1.00  0.00    -0.324 A  
HETATM    6  C   UNL     1     -11.260  15.988  70.265  1.00  0.00    -0.397 A  
HETATM    7  C   UNL     1     -11.882  14.767  70.007  1.00  0.00    -0.362 A  
HETATM    8  C   UNL     1     -12.003  14.313  68.697  1.00  0.00    -0.348 A  
HETATM    9  C   UNL     1     -11.497  15.075  67.642  1.00  0.00    -0.344 A  
ENDBRANCH   2   4
TORSDOF 1
ENDMDL
MODEL       84
REMARK 921   NORMALIZED FREE ENERGY PREDICTED BY IDOCK:   -2.68 KCAL/MOL
REMARK 922        TOTAL FREE ENERGY PREDICTED BY IDOCK:   -2.85 KCAL/MOL
REMARK 923 INTER-LIGAND FREE ENERGY PREDICTED BY IDOCK:   -2.84 KCAL/MOL
REMARK 924 INTRA-LIGAND FREE ENERGY PREDICTED BY IDOCK:   -0.01 KCAL/MOL
REMARK 927      BINDING AFFINITY PREDICTED BY RF-SCORE:    0.00 PKD
ROOT
HETATM    1  O   UNL     1     -12.013  11.384  67.824  1.00  0.00    -0.637 OA 
HETATM    2  C   UNL     1     -11.739  12.119  66.637  1.00  0.00    -0.313 C  
HETATM    3  H   UNL     1     -12.423  10.550  67.625  1.00  0.00     0.000 HD 
ENDROOT
BRANCH   2   4
HETATM    4  C   UNL     1     -11.089  13.441  66.952  1.00  0.00    -0.309 A  
HETATM    5  C   UNL     1      -9.843  13.757  66.391  1.00  0.00    -0.305 A  
HETATM    6  C   UNL     1      -9.236  14.988  66.650  1.00  0.00    -0.302 A  
HETATM    7  C   UNL     1      -9.875  15.924  67.463  1.00  0.00    -0.230 A  
HETATM    8  C   UNL     1     -11.121  15.631  68.011  1.00  0.00    -0.335 A  
HETATM    9  C   UNL     1     -11.728  14.401  67.752  1.00  0.00    -0.407 A  
ENDBRANCH   2   4
TORSDOF 1
ENDMDL
MODEL       85
REMARK 921   NORMALIZED FREE ENERGY PREDICTED BY IDOCK:   -2.66 KCAL/MOL
REMARK 922        TOTAL FREE ENERGY PREDICTED BY IDOCK:   -2.83 KCAL/MOL
REMARK 923 INTER-LIGAND FREE ENERGY PREDICTED BY IDOCK:   -2.82 KCAL/MOL
REMARK 924 INTRA-LIGAND FREE ENERGY PREDICTED BY IDOCK:   -0.01 KCAL/MOL
REMARK 927      BINDING AFFINITY PREDICTED BY RF-SCORE:    0.00 PKD
ROOT
HETATM    1  O   UNL     1     -13.183  15.434  71.115  1.00  0.00    -0.462 OA 
HETATM    2  C   UNL     1     -12.396  14.276  70.863  1.00  0.00    -0.359 C  
HETATM    3  H   UNL     1     -13.505  15.443  72.008  1.00  0.00     0.000 HD 
ENDROOT
BRANCH   2   4
HETATM    4  C   UNL     1     -11.885  14.262  69.446  1.00  0.00    -0.372 A  
HETATM    5  C   UNL     1     -11.396  15.443  68.869  1.00  0.00    -0.322 A  
HETATM    6  C   UNL     1     -10.893  15.444  67.565  1.00  0.00    -0.305 A  
HETATM    7  C   UNL     1     -10.863  14.262  66.828  1.00  0.00    -0.298 A  
HETATM    8  C   UNL     1     -11.327  13.078  67.395  1.00  0.00    -0.347 A  
HETATM    9  C   UNL     1     -11.828  13.076  68.698  1.00  0.00    -0.353 A  
ENDBRANCH   2   4
TORSDOF 1
ENDMDL
MODEL       86
REMARK 921   NORMALIZED FREE ENERGY PREDICTED BY IDOCK:   -2.64 KCAL/MOL
REMARK 922        TOTAL FREE ENERGY PREDICTED BY IDOCK:   -2.81 KCAL/MOL
REMARK 923 INTER-LIGAND FREE ENERGY PREDICTED BY IDOCK:   -2.80 KCAL/MOL
REMARK 924 INTRA-LIGAND FREE ENERGY PREDICTED BY IDOCK:   -0.02 KCAL/MOL
REMARK 927      BINDING AFFINITY PREDICTED BY RF-SCORE:    0.00 PKD
ROOT
HETATM    1  O   UNL     1     -10.998  17.093  68.089  1.00  0.00    -0.361 OA 
HETATM    2  C   UNL     1     -10.655  18.124  67.170  1.00  0.00    -0.344 C  
HETATM    3  H   UNL     1     -11.845  16.717  67.882  1.00  0.00     0.000 HD 
ENDROOT
BRANCH   2   4
HETATM    4  C   UNL     1      -9.312  18.721  67.497  1.00  0.00    -0.315 A  
HETATM    5  C   UNL     1      -8.916  19.922  66.890  1.00  0.00    -0.434 A  
HETATM    6  C   UNL     1      -7.685  20.506  67.200  1.00  0.00    -0.368 A  
HETATM    7  C   UNL     1      -6.842  19.902  68.131  1.00  0.00    -0.328 A  
HETATM    8  C   UNL     1      -7.231  18.721  68.757  1.00  0.00    -0.336 A  
HETATM    9  C   UNL     1      -8.461  18.138  68.448  1.00  0.00    -0.311 A  
ENDBRANCH   2   4
TORSDOF 1
ENDMDL
MODEL       87
REMARK 921   NORMALIZED FREE ENERGY PREDICTED BY IDOCK:   -2.64 KCAL/MOL
REMARK 922        TOTAL FREE ENERGY PREDICTED BY IDOCK:   -2.81 KCAL/MOL
REMARK 923 INTER-LIGAND FREE ENERGY PREDICTED BY IDOCK:   -2.80 KCAL/MOL
REMARK 924 INTRA-LIGAND FREE ENERGY PREDICTED BY IDOCK:   -0.01 KCAL/MOL
REMARK 927      BINDING AFFINITY PREDICTED BY RF-SCORE:    0.00 PKD
ROOT
HETATM    1  O   UNL     1     -10.232  13.687  64.183  1.00  0.00    -0.718 OA 
HETATM    2  C   UNL     1     -10.850  12.785  65.092  1.00  0.00    -0.291 C  
HETATM    3  H   UNL     1     -10.241  13.343  63.297  1.00  0.00     0.000 HD 
ENDROOT
BRANCH   2   4
HETATM    4  C   UNL     1     -10.836  13.330  66.496  1.00  0.00    -0.288 A  
HETATM    5  C   UNL     1      -9.616  13.511  67.162  1.00  0.00    -0.241 A  
HETATM    6  C   UNL     1      -9.580  14.040  68.455  1.00  0.00    -0.222 A  
HETATM    7  C   UNL     1     -10.765  14.408  69.091  1.00  0.00    -0.254 A  
HETATM    8  C   UNL     1     -11.982  14.253  68.434  1.00  0.00    -0.344 A  
HETATM    9  C   UNL     1     -12.018  13.724  67.142  1.00  0.00    -0.442 A  
ENDBRANCH   2   4
TORSDOF 1
ENDMDL
MODEL       88
REMARK 921   NORMALIZED FREE ENERGY PREDICTED BY IDOCK:   -2.63 KCAL/MOL
REMARK 922        TOTAL FREE ENERGY PREDICTED BY IDOCK:   -2.80 KCAL/MOL
REMARK 923 INTER-LIGAND FREE ENERGY PREDICTED BY IDOCK:   -2.79 KCAL/MOL
REMARK 924 INTRA-LIGAND FREE ENERGY PREDICTED BY IDOCK:   -0.01 KCAL/MOL
REMARK 927      BINDING AFFINITY PREDICTED BY RF-SCORE:    0.00 PKD
ROOT
HETATM    1  O   UNL     1     -13.375  10.006  72.121  1.00  0.00    -0.474 OA 
HETATM    2  C   UNL     1     -12.877  11.211  71.553  1.00  0.00    -0.437 C  
HETATM    3  H   UNL     1     -14.036  10.183  72.780  1.00  0.00     0.000 HD 
ENDROOT
BRANCH   2   4
HETATM    4  C   UNL     1     -11.829  10.930  70.509  1.00  0.00    -0.457 A  
HETATM    5  C   UNL     1     -10.826   9.984  70.764  1.00  0.00    -0.330 A  
HETATM    6  C   UNL     1      -9.861   9.689  69.798  1.00  0.00    -0.253 A  
HETATM    7  C   UNL     1      -9.895  10.330  68.560  1.00  0.00    -0.174 A  
HETATM    8  C   UNL     1     -10.896  11.258  68.285  1.00  0.00    -0.249 A  
HETATM    9  C   UNL     1     -11.861  11.551  69.251  1.00  0.00    -0.414 A  
ENDBRANCH   2   4
TORSDOF 1
ENDMDL
MODEL       89
REMARK 921   NORMALIZED FREE ENERGY PREDICTED BY IDOCK:   -2.63 KCAL/MOL
REMARK 922        TOTAL FREE ENERGY PREDICTED BY IDOCK:   -2.79 KCAL/MOL
REMARK 923 INTER-LIGAND FREE ENERGY PREDICTED BY IDOCK:   -2.78 KCAL/MOL
REMARK 924 INTRA-LIGAND FREE ENERGY PREDICTED BY IDOCK:   -0.02 KCAL/MOL
REMARK 927      BINDING AFFINITY PREDICTED BY RF-SCORE:    0.00 PKD
ROOT
HETATM    1  O   UNL     1     -10.816  17.438  67.816  1.00  0.00    -0.361 OA 
HETATM    2  C   UNL     1      -9.965  18.095  68.748  1.00  0.00    -0.375 C  
HETATM    3  H   UNL     1     -11.460  16.898  68.259  1.00  0.00     0.000 HD 
ENDROOT
BRANCH   2   4
HETATM    4  C   UNL     1      -8.944  18.950  68.046  1.00  0.00    -0.338 A  
HETATM    5  C   UNL     1      -7.834  19.433  68.754  1.00  0.00    -0.392 A  
HETATM    6  C   UNL     1      -6.861  20.206  68.114  1.00  0.00    -0.326 A  
HETATM    7  C   UNL     1      -6.982  20.494  66.755  1.00  0.00    -0.330 A  
HETATM    8  C   UNL     1      -8.069  20.005  66.036  1.00  0.00    -0.281 A  
HETATM    9  C   UNL     1      -9.040  19.232  66.675  1.00  0.00    -0.374 A  
ENDBRANCH   2   4
TORSDOF 1
ENDMDL
MODEL       90
REMARK 921   NORMALIZED FREE ENERGY PREDICTED BY IDOCK:   -2.63 KCAL/MOL
REMARK 922        TOTAL FREE ENERGY PREDICTED BY IDOCK:   -2.79 KCAL/MOL
REMARK 923 INTER-LIGAND FREE ENERGY PREDICTED BY IDOCK:   -2.78 KCAL/MOL
REMARK 924 INTRA-LIGAND FREE ENERGY PREDICTED BY IDOCK:   -0.02 KCAL/MOL
REMARK 927      BINDING AFFINITY PREDICTED BY RF-SCORE:    0.00 PKD
ROOT
HETATM    1  O   UNL     1     -12.214  14.175  66.889  1.00  0.00    -0.467 OA 
HETATM    2  C   UNL     1     -11.275  13.199  66.456  1.00  0.00    -0.310 C  
HETATM    3  H   UNL     1     -12.254  14.906  66.283  1.00  0.00     0.000 HD 
ENDROOT
BRANCH   2   4
HETATM    4  C   UNL     1     -11.211  12.040  67.417  1.00  0.00    -0.368 A  
HETATM    5  C   UNL     1     -10.666  10.818  66.999  1.00  0.00    -0.320 A  
HETATM    6  C   UNL     1     -10.573   9.739  67.883  1.00  0.00    -0.310 A  
HETATM    7  C   UNL     1     -11.015   9.876  69.199  1.00  0.00    -0.233 A  
HETATM    8  C   UNL     1     -11.541  11.090  69.632  1.00  0.00    -0.390 A  
HETATM    9  C   UNL     1     -11.632  12.167  68.749  1.00  0.00    -0.380 A  
ENDBRANCH   2   4
TORSDOF 1
ENDMDL
MODEL       91
REMARK 921   NORMALIZED FREE ENERGY PREDICTED BY IDOCK:   -2.62 KCAL/MOL
REMARK 922        TOTAL FREE ENERGY PREDICTED BY IDOCK:   -2.79 KCAL/MOL
REMARK 923 INTER-LIGAND FREE ENERGY PREDICTED BY IDOCK:   -2.78 KCAL/MOL
REMARK 924 INTRA-LIGAND FREE ENERGY PREDICTED BY IDOCK:   -0.01 KCAL/MOL
REMARK 927      BINDING AFFINITY PREDICTED BY RF-SCORE:    0.00 PKD
ROOT
HETATM    1  O   UNL     1     -12.875  11.812  63.483  1.00  0.00    -0.637 OA 
HETATM    2  C   UNL     1     -11.548  12.281  63.278  1.00  0.00    -0.351 C  
HETATM    3  H   UNL     1     -13.501  12.320  62.980  1.00  0.00     0.000 HD 
ENDROOT
BRANCH   2   4
HETATM    4  C   UNL     1     -10.555  11.476  64.075  1.00  0.00    -0.437 A  
HETATM    5  C   UNL     1     -10.583  11.524  65.476  1.00  0.00    -0.334 A  
HETATM    6  C   UNL     1      -9.689  10.764  66.234  1.00  0.00    -0.248 A  
HETATM    7  C   UNL     1      -8.763   9.937  65.598  1.00  0.00    -0.168 A  
HETATM    8  C   UNL     1      -8.738   9.864  64.208  1.00  0.00    -0.229 A  
HETATM    9  C   UNL     1      -9.632  10.623  63.451  1.00  0.00    -0.373 A  
ENDBRANCH   2   4
TORSDOF 1
ENDMDL
MODEL       92
REMARK 921   NORMALIZED FREE ENERGY PREDICTED BY IDOCK:   -2.62 KCAL/MOL
REMARK 922        TOTAL FREE ENERGY PREDICTED BY IDOCK:   -2.79 KCAL/MOL
REMARK 923 INTER-LIGAND FREE ENERGY PREDICTED BY IDOCK:   -2.77 KCAL/MOL
REMARK 924 INTRA-LIGAND FREE ENERGY PREDICTED BY IDOCK:   -0.02 KCAL/MOL
REMARK 927      BINDING AFFINITY PREDICTED BY RF-SCORE:    0.00 PKD
ROOT
HETATM    1  O   UNL     1     -12.664   6.790  72.381  1.00  0.00    -0.520 OA 
HETATM    2  C   UNL     1     -12.295   7.258  71.090  1.00  0.00    -0.345 C  
HETATM    3  H   UNL     1     -13.265   7.390  72.806  1.00  0.00     0.000 HD 
ENDROOT
BRANCH   2   4
HETATM    4  C   UNL     1     -11.342   6.306  70.416  1.00  0.00    -0.440 A  
HETATM    5  C   UNL     1     -11.159   6.369  69.027  1.00  0.00    -0.424 A  
HETATM    6  C   UNL     1     -10.260   5.513  68.387  1.00  0.00    -0.242 A  
HETATM    7  C   UNL     1      -9.523   4.592  69.131  1.00  0.00    -0.233 A  
HETATM    8  C   UNL     1      -9.680   4.532  70.513  1.00  0.00    -0.290 A  
HETATM    9  C   UNL     1     -10.578   5.388  71.153  1.00  0.00    -0.276 A  
ENDBRANCH   2   4
TORSDOF 1
ENDMDL
MODEL       93
REMARK 921   NORMALIZED FREE ENERGY PREDICTED BY IDOCK:   -2.60 KCAL/MOL
REMARK 922        TOTAL FREE ENERGY PREDICTED BY IDOCK:   -2.77 KCAL/MOL
REMARK 923 INTER-LIGAND FREE ENERGY PREDICTED BY IDOCK:   -2.75 KCAL/MOL
REMARK 924 INTRA-LIGAND FREE ENERGY PREDICTED BY IDOCK:   -0.02 KCAL/MOL
REMARK 927      BINDING AFFINITY PREDICTED BY RF-SCORE:    0.00 PKD
ROOT
HETATM    1  O   UNL     1     -10.360  10.572  64.585  1.00  0.00    -0.344 OA 
HETATM    2  C   UNL     1     -10.486  10.404  65.992  1.00  0.00    -0.140 C  
HETATM    3  H   UNL     1     -10.012   9.789  64.175  1.00  0.00     0.000 HD 
ENDROOT
BRANCH   2   4
HETATM    4  C   UNL     1     -11.037  11.646  66.642  1.00  0.00    -0.364 A  
HETATM    5  C   UNL     1     -11.616  12.649  65.851  1.00  0.00    -0.443 A  
HETATM    6  C   UNL     1     -12.158  13.796  66.438  1.00  0.00    -0.483 A  
HETATM    7  C   UNL     1     -12.136  13.947  67.823  1.00  0.00    -0.328 A  
HETATM    8  C   UNL     1     -11.582  12.950  68.622  1.00  0.00    -0.353 A  
HETATM    9  C   UNL     1     -11.042  11.804  68.036  1.00  0.00    -0.297 A  
ENDBRANCH   2   4
TORSDOF 1
ENDMDL
MODEL       94
REMARK 921   NORMALIZED FREE ENERGY PREDICTED BY IDOCK:   -2.59 KCAL/MOL
REMARK 922        TOTAL FREE ENERGY PREDICTED BY IDOCK:   -2.75 KCAL/MOL
REMARK 923 INTER-LIGAND FREE ENERGY PREDICTED BY IDOCK:   -2.74 KCAL/MOL
REMARK 924 INTRA-LIGAND FREE ENERGY PREDICTED BY IDOCK:   -0.02 KCAL/MOL
REMARK 927      BINDING AFFINITY PREDICTED BY RF-SCORE:    0.00 PKD
ROOT
HETATM    1  O   UNL     1     -11.619   5.135  73.639  1.00  0.00    -0.419 OA 
HETATM    2  C   UNL     1     -10.541   6.063  73.659  1.00  0.00    -0.264 C  
HETATM    3  H   UNL     1     -11.450   4.399  74.215  1.00  0.00     0.000 HD 
ENDROOT
BRANCH   2   4
HETATM    4  C   UNL     1     -10.808   7.230  72.747  1.00  0.00    -0.356 A  
HETATM    5  C   UNL     1      -9.764   8.101  72.403  1.00  0.00    -0.338 A  
HETATM    6  C   UNL     1      -9.986   9.174  71.537  1.00  0.00    -0.358 A  
HETATM    7  C   UNL     1     -11.253   9.382  70.994  1.00  0.00    -0.412 A  
HETATM    8  C   UNL     1     -12.295   8.514  71.311  1.00  0.00    -0.301 A  
HETATM    9  C   UNL     1     -12.073   7.441  72.176  1.00  0.00    -0.289 A  
ENDBRANCH   2   4
TORSDOF 1
ENDMDL
MODEL       95
REMARK 921   NORMALIZED FREE ENERGY PREDICTED BY IDOCK:   -2.58 KCAL/MOL
REMARK 922        TOTAL FREE ENERGY PREDICTED BY IDOCK:   -2.75 KCAL/MOL
REMARK 923 INTER-LIGAND FREE ENERGY PREDICTED BY IDOCK:   -2.73 KCAL/MOL
REMARK 924 INTRA-LIGAND FREE ENERGY PREDICTED BY IDOCK:   -0.02 KCAL/MOL
REMARK 927      BINDING AFFINITY PREDICTED BY RF-SCORE:    0.00 PKD
ROOT
HETATM    1  O   UNL     1      -9.174   9.578  64.445  1.00  0.00    -0.358 OA 
HETATM    2  C   UNL     1      -9.560   9.119  65.735  1.00  0.00    -0.253 C  
HETATM    3  H   UNL     1      -8.673   8.918  63.981  1.00  0.00     0.000 HD 
ENDROOT
BRANCH   2   4
HETATM    4  C   UNL     1     -10.356  10.166  66.471  1.00  0.00    -0.270 A  
HETATM    5  C   UNL     1     -10.686   9.970  67.820  1.00  0.00    -0.333 A  
HETATM    6  C   UNL     1     -11.400  10.941  68.527  1.00  0.00    -0.367 A  
HETATM    7  C   UNL     1     -11.781  12.124  67.896  1.00  0.00    -0.403 A  
HETATM    8  C   UNL     1     -11.443  12.340  66.563  1.00  0.00    -0.438 A  
HETATM    9  C   UNL     1     -10.729  11.371  65.856  1.00  0.00    -0.311 A  
ENDBRANCH   2   4
TORSDOF 1
ENDMDL
MODEL       96
REMARK 921   NORMALIZED FREE ENERGY PREDICTED BY IDOCK:   -2.58 KCAL/MOL
REMARK 922        TOTAL FREE ENERGY PREDICTED BY IDOCK:   -2.75 KCAL/MOL
REMARK 923 INTER-LIGAND FREE ENERGY PREDICTED BY IDOCK:   -2.74 KCAL/MOL
REMARK 924 INTRA-LIGAND FREE ENERGY PREDICTED BY IDOCK:   -0.01 KCAL/MOL
REMARK 927      BINDING AFFINITY PREDICTED BY RF-SCORE:    0.00 PKD
ROOT
HETATM    1  O   UNL     1      -8.885  14.806  66.115  1.00  0.00    -0.472 OA 
HETATM    2  C   UNL     1     -10.223  14.983  66.564  1.00  0.00    -0.275 C  
HETATM    3  H   UNL     1      -8.577  15.571  65.643  1.00  0.00     0.000 HD 
ENDROOT
BRANCH   2   4
HETATM    4  C   UNL     1     -10.712  13.770  67.311  1.00  0.00    -0.286 A  
HETATM    5  C   UNL     1     -11.214  13.909  68.614  1.00  0.00    -0.298 A  
HETATM    6  C   UNL     1     -11.697  12.801  69.314  1.00  0.00    -0.376 A  
HETATM    7  C   UNL     1     -11.696  11.542  68.714  1.00  0.00    -0.397 A  
HETATM    8  C   UNL     1     -11.219  11.393  67.414  1.00  0.00    -0.370 A  
HETATM    9  C   UNL     1     -10.737  12.501  66.715  1.00  0.00    -0.261 A  
ENDBRANCH   2   4
TORSDOF 1
ENDMDL
MODEL       97
REMARK 921   NORMALIZED FREE ENERGY PREDICTED BY IDOCK:   -2.58 KCAL/MOL
REMARK 922        TOTAL FREE ENERGY PREDICTED BY IDOCK:   -2.74 KCAL/MOL
REMARK 923 INTER-LIGAND FREE ENERGY PREDICTED BY IDOCK:   -2.73 KCAL/MOL
REMARK 924 INTRA-LIGAND FREE ENERGY PREDICTED BY IDOCK:   -0.01 KCAL/MOL
REMARK 927      BINDING AFFINITY PREDICTED BY RF-SCORE:    0.00 PKD
ROOT
HETATM    1  O   UNL     1      -7.979   8.657  72.749  1.00  0.00    -0.370 OA 
HETATM    2  C   UNL     1      -9.038   8.185  73.572  1.00  0.00    -0.207 C  
HETATM    3  H   UNL     1      -7.192   8.816  73.257  1.00  0.00     0.000 HD 
ENDROOT
BRANCH   2   4
HETATM    4  C   UNL     1     -10.285   7.933  72.766  1.00  0.00    -0.380 A  
HETATM    5  C   UNL     1     -10.868   6.658  72.763  1.00  0.00    -0.283 A  
HETATM    6  C   UNL     1     -12.039   6.411  72.043  1.00  0.00    -0.353 A  
HETATM    7  C   UNL     1     -12.648   7.440  71.327  1.00  0.00    -0.376 A  
HETATM    8  C   UNL     1     -12.091   8.716  71.336  1.00  0.00    -0.351 A  
HETATM    9  C   UNL     1     -10.921   8.964  72.056  1.00  0.00    -0.412 A  
ENDBRANCH   2   4
TORSDOF 1
ENDMDL
MODEL       98
REMARK 921   NORMALIZED FREE ENERGY PREDICTED BY IDOCK:   -2.57 KCAL/MOL
REMARK 922        TOTAL FREE ENERGY PREDICTED BY IDOCK:   -2.74 KCAL/MOL
REMARK 923 INTER-LIGAND FREE ENERGY PREDICTED BY IDOCK:   -2.73 KCAL/MOL
REMARK 924 INTRA-LIGAND FREE ENERGY PREDICTED BY IDOCK:   -0.01 KCAL/MOL
REMARK 927      BINDING AFFINITY PREDICTED BY RF-SCORE:    0.00 PKD
ROOT
HETATM    1  O   UNL     1     -11.660  16.494  70.467  1.00  0.00    -0.496 OA 
HETATM    2  C   UNL     1     -10.954  16.159  69.278  1.00  0.00    -0.315 C  
HETATM    3  H   UNL     1     -12.377  15.891  70.622  1.00  0.00     0.000 HD 
ENDROOT
BRANCH   2   4
HETATM    4  C   UNL     1      -9.816  17.115  69.031  1.00  0.00    -0.240 A  
HETATM    5  C   UNL     1      -8.503  16.629  68.950  1.00  0.00    -0.233 A  
HETATM    6  C   UNL     1      -7.437  17.496  68.696  1.00  0.00    -0.265 A  
HETATM    7  C   UNL     1      -7.674  18.857  68.507  1.00  0.00    -0.365 A  
HETATM    8  C   UNL     1      -8.975  19.350  68.565  1.00  0.00    -0.418 A  
HETATM    9  C   UNL     1     -10.040  18.484  68.819  1.00  0.00    -0.394 A  
ENDBRANCH   2   4
TORSDOF 1
ENDMDL
MODEL       99
REMARK 921   NORMALIZED FREE ENERGY PREDICTED BY IDOCK:   -2.57 KCAL/MOL
REMARK 922        TOTAL FREE ENERGY PREDICTED BY IDOCK:   -2.73 KCAL/MOL
REMARK 923 INTER-LIGAND FREE ENERGY PREDICTED BY IDOCK:   -2.72 KCAL/MOL
REMARK 924 INTRA-LIGAND FREE ENERGY PREDICTED BY IDOCK:   -0.01 KCAL/MOL
REMARK 927      BINDING AFFINITY PREDICTED BY RF-SCORE:    0.00 PKD
ROOT
HETATM    1  O   UNL     1     -12.822   8.361  71.051  1.00  0.00    -0.500 OA 
HETATM    2  C   UNL     1     -12.311   7.042  70.895  1.00  0.00    -0.314 C  
HETATM    3  H   UNL     1     -13.319   8.629  70.287  1.00  0.00     0.000 HD 
ENDROOT
BRANCH   2   4
HETATM    4  C   UNL     1     -11.522   6.617  72.106  1.00  0.00    -0.323 A  
HETATM    5  C   UNL     1     -10.646   7.522  72.721  1.00  0.00    -0.365 A  
HETATM    6  C   UNL     1      -9.926   7.155  73.860  1.00  0.00    -0.360 A  
HETATM    7  C   UNL     1     -10.083   5.881  74.405  1.00  0.00    -0.302 A  
HETATM    8  C   UNL     1     -10.965   4.979  73.816  1.00  0.00    -0.336 A  
HETATM    9  C   UNL     1     -11.685   5.346  72.678  1.00  0.00    -0.214 A  
ENDBRANCH   2   4
TORSDOF 1
ENDMDL
MODEL      100
REMARK 921   NORMALIZED FREE ENERGY PREDICTED BY IDOCK:   -2.56 KCAL/MOL
REMARK 922        TOTAL FREE ENERGY PREDICTED BY IDOCK:   -2.73 KCAL/MOL
REMARK 923 INTER-LIGAND FREE ENERGY PREDICTED BY IDOCK:   -2.71 KCAL/MOL
REMARK 924 INTRA-LIGAND FREE ENERGY PREDICTED BY IDOCK:   -0.02 KCAL/MOL
REMARK 927      BINDING AFFINITY PREDICTED BY RF-SCORE:    0.00 PKD
ROOT
HETATM    1  O   UNL     1     -11.162   7.172  73.531  1.00  0.00    -0.561 OA 
HETATM    2  C   UNL     1      -9.883   7.515  73.011  1.00  0.00    -0.238 C  
HETATM    3  H   UNL     1     -11.085   6.585  74.274  1.00  0.00     0.000 HD 
ENDROOT
BRANCH   2   4
HETATM    4  C   UNL     1     -10.004   8.445  71.833  1.00  0.00    -0.331 A  
HETATM    5  C   UNL     1     -11.260   8.955  71.474  1.00  0.00    -0.396 A  
HETATM    6  C   UNL     1     -11.390   9.840  70.400  1.00  0.00    -0.362 A  
HETATM    7  C   UNL     1     -10.263  10.235  69.681  1.00  0.00    -0.268 A  
HETATM    8  C   UNL     1      -9.007   9.751  70.039  1.00  0.00    -0.255 A  
HETATM    9  C   UNL     1      -8.877   8.868  71.112  1.00  0.00    -0.297 A  
ENDBRANCH   2   4
TORSDOF 1
ENDMDL
MODEL      101
REMARK 921   NORMALIZED FREE ENERGY PREDICTED BY IDOCK:   -2.54 KCAL/MOL
REMARK 922        TOTAL FREE ENERGY PREDICTED BY IDOCK:   -2.70 KCAL/MOL
REMARK 923 INTER-LIGAND FREE ENERGY PREDICTED BY IDOCK:   -2.69 KCAL/MOL
REMARK 924 INTRA-LIGAND FREE ENERGY PREDICTED BY IDOCK:   -0.01 KCAL/MOL
REMARK 927      BINDING AFFINITY PREDICTED BY RF-SCORE:    0.00 PKD
ROOT
HETATM    1  O   UNL     1     -11.870   7.729  73.184  1.00  0.00    -0.645 OA 
HETATM    2  C   UNL     1     -10.665   7.579  72.444  1.00  0.00    -0.263 C  
HETATM    3  H   UNL     1     -11.858   7.199  73.973  1.00  0.00     0.000 HD 
ENDROOT
BRANCH   2   4
HETATM    4  C   UNL     1     -10.684   8.418  71.194  1.00  0.00    -0.280 A  
HETATM    5  C   UNL     1     -10.128   7.916  70.008  1.00  0.00    -0.199 A  
HETATM    6  C   UNL     1     -10.160   8.669  68.831  1.00  0.00    -0.213 A  
HETATM    7  C   UNL     1     -10.760   9.927  68.824  1.00  0.00    -0.247 A  
HETATM    8  C   UNL     1     -11.334  10.430  69.989  1.00  0.00    -0.384 A  
HETATM    9  C   UNL     1     -11.302   9.678  71.165  1.00  0.00    -0.456 A  
ENDBRANCH   2   4
TORSDOF 1
ENDMDL
MODEL      102
REMARK 921   NORMALIZED FREE ENERGY PREDICTED BY IDOCK:   -2.51 KCAL/MOL
REMARK 922        TOTAL FREE ENERGY PREDICTED BY IDOCK:   -2.67 KCAL/MOL
REMARK 923 INTER-LIGAND FREE ENERGY PREDICTED BY IDOCK:   -2.66 KCAL/MOL
REMARK 924 INTRA-LIGAND FREE ENERGY PREDICTED BY IDOCK:   -0.01 KCAL/MOL
REMARK 927      BINDING AFFINITY PREDICTED BY RF-SCORE:    0.00 PKD
ROOT
HETATM    1  O   UNL     1     -10.659  18.789  68.736  1.00  0.00    -0.387 OA 
HETATM    2  C   UNL     1      -9.378  18.184  68.868  1.00  0.00    -0.173 C  
HETATM    3  H   UNL     1     -11.349  18.197  69.012  1.00  0.00     0.000 HD 
ENDROOT
BRANCH   2   4
HETATM    4  C   UNL     1      -8.285  19.123  68.430  1.00  0.00    -0.384 A  
HETATM    5  C   UNL     1      -8.332  19.702  67.154  1.00  0.00    -0.334 A  
HETATM    6  C   UNL     1      -7.342  20.596  66.740  1.00  0.00    -0.294 A  
HETATM    7  C   UNL     1      -6.298  20.930  67.602  1.00  0.00    -0.385 A  
HETATM    8  C   UNL     1      -6.249  20.378  68.879  1.00  0.00    -0.360 A  
HETATM    9  C   UNL     1      -7.239  19.485  69.294  1.00  0.00    -0.346 A  
ENDBRANCH   2   4
TORSDOF 1
ENDMDL
MODEL      103
REMARK 921   NORMALIZED FREE ENERGY PREDICTED BY IDOCK:   -2.50 KCAL/MOL
REMARK 922        TOTAL FREE ENERGY PREDICTED BY IDOCK:   -2.66 KCAL/MOL
REMARK 923 INTER-LIGAND FREE ENERGY PREDICTED BY IDOCK:   -2.64 KCAL/MOL
REMARK 924 INTRA-LIGAND FREE ENERGY PREDICTED BY IDOCK:   -0.01 KCAL/MOL
REMARK 927      BINDING AFFINITY PREDICTED BY RF-SCORE:    0.00 PKD
ROOT
HETATM    1  O   UNL     1     -10.361  10.693  69.991  1.00  0.00    -0.441 OA 
HETATM    2  C   UNL     1     -10.332   9.301  69.700  1.00  0.00    -0.217 C  
HETATM    3  H   UNL     1     -10.287  11.212  69.200  1.00  0.00     0.000 HD 
ENDROOT
BRANCH   2   4
HETATM    4  C   UNL     1     -10.449   8.478  70.955  1.00  0.00    -0.264 A  
HETATM    5  C   UNL     1      -9.558   8.694  72.017  1.00  0.00    -0.385 A  
HETATM    6  C   UNL     1      -9.668   7.960  73.200  1.00  0.00    -0.353 A  
HETATM    7  C   UNL     1     -10.678   7.009  73.341  1.00  0.00    -0.379 A  
HETATM    8  C   UNL     1     -11.581   6.798  72.302  1.00  0.00    -0.311 A  
HETATM    9  C   UNL     1     -11.472   7.532  71.120  1.00  0.00    -0.295 A  
ENDBRANCH   2   4
TORSDOF 1
ENDMDL
MODEL      104
REMARK 921   NORMALIZED FREE ENERGY PREDICTED BY IDOCK:   -2.49 KCAL/MOL
REMARK 922        TOTAL FREE ENERGY PREDICTED BY IDOCK:   -2.65 KCAL/MOL
REMARK 923 INTER-LIGAND FREE ENERGY PREDICTED BY IDOCK:   -2.63 KCAL/MOL
REMARK 924 INTRA-LIGAND FREE ENERGY PREDICTED BY IDOCK:   -0.02 KCAL/MOL
REMARK 927      BINDING AFFINITY PREDICTED BY RF-SCORE:    0.00 PKD
ROOT
HETATM    1  O   UNL     1      -9.489   8.647  65.035  1.00  0.00    -0.373 OA 
HETATM    2  C   UNL     1      -9.833   9.372  66.209  1.00  0.00    -0.281 C  
HETATM    3  H   UNL     1      -9.211   9.231  64.339  1.00  0.00     0.000 HD 
ENDROOT
BRANCH   2   4
HETATM    4  C   UNL     1     -10.275   8.447  67.313  1.00  0.00    -0.349 A  
HETATM    5  C   UNL     1     -10.628   7.123  67.013  1.00  0.00    -0.413 A  
HETATM    6  C   UNL     1     -11.014   6.242  68.026  1.00  0.00    -0.418 A  
HETATM    7  C   UNL     1     -11.040   6.671  69.352  1.00  0.00    -0.365 A  
HETATM    8  C   UNL     1     -10.672   7.976  69.666  1.00  0.00    -0.207 A  
HETATM    9  C   UNL     1     -10.286   8.857  68.655  1.00  0.00    -0.221 A  
ENDBRANCH   2   4
TORSDOF 1
ENDMDL
MODEL      105
REMARK 921   NORMALIZED FREE ENERGY PREDICTED BY IDOCK:   -2.48 KCAL/MOL
REMARK 922        TOTAL FREE ENERGY PREDICTED BY IDOCK:   -2.64 KCAL/MOL
REMARK 923 INTER-LIGAND FREE ENERGY PREDICTED BY IDOCK:   -2.63 KCAL/MOL
REMARK 924 INTRA-LIGAND FREE ENERGY PREDICTED BY IDOCK:   -0.02 KCAL/MOL
REMARK 927      BINDING AFFINITY PREDICTED BY RF-SCORE:    0.00 PKD
ROOT
HETATM    1  O   UNL     1     -12.618  14.278  66.290  1.00  0.00    -0.488 OA 
HETATM    2  C   UNL     1     -12.030  13.957  67.545  1.00  0.00    -0.386 C  
HETATM    3  H   UNL     1     -13.062  15.117  66.323  1.00  0.00     0.000 HD 
ENDROOT
BRANCH   2   4
HETATM    4  C   UNL     1     -11.327  12.626  67.494  1.00  0.00    -0.361 A  
HETATM    5  C   UNL     1     -10.985  11.972  68.686  1.00  0.00    -0.281 A  
HETATM    6  C   UNL     1     -10.357  10.724  68.660  1.00  0.00    -0.208 A  
HETATM    7  C   UNL     1     -10.074  10.111  67.440  1.00  0.00    -0.251 A  
HETATM    8  C   UNL     1     -10.425  10.741  66.249  1.00  0.00    -0.287 A  
HETATM    9  C   UNL     1     -11.054  11.987  66.275  1.00  0.00    -0.363 A  
ENDBRANCH   2   4
TORSDOF 1
ENDMDL
MODEL      106
REMARK 921   NORMALIZED FREE ENERGY PREDICTED BY IDOCK:   -2.47 KCAL/MOL
REMARK 922        TOTAL FREE ENERGY PREDICTED BY IDOCK:   -2.63 KCAL/MOL
REMARK 923 INTER-LIGAND FREE ENERGY PREDICTED BY IDOCK:   -2.61 KCAL/MOL
REMARK 924 INTRA-LIGAND FREE ENERGY PREDICTED BY IDOCK:   -0.02 KCAL/MOL
REMARK 927      BINDING AFFINITY PREDICTED BY RF-SCORE:    0.00 PKD
ROOT
HETATM    1  O   UNL     1      -9.297   9.227  69.470  1.00  0.00    -0.158 OA 
HETATM    2  C   UNL     1     -10.381   8.929  70.343  1.00  0.00    -0.204 C  
HETATM    3  H   UNL     1      -8.746   8.466  69.334  1.00  0.00     0.000 HD 
ENDROOT
BRANCH   2   4
HETATM    4  C   UNL     1     -11.255  10.137  70.559  1.00  0.00    -0.411 A  
HETATM    5  C   UNL     1     -12.224  10.124  71.572  1.00  0.00    -0.473 A  
HETATM    6  C   UNL     1     -13.026  11.244  71.806  1.00  0.00    -0.519 A  
HETATM    7  C   UNL     1     -12.860  12.394  71.036  1.00  0.00    -0.245 A  
HETATM    8  C   UNL     1     -11.887  12.428  70.040  1.00  0.00    -0.363 A  
HETATM    9  C   UNL     1     -11.085  11.310  69.807  1.00  0.00    -0.238 A  
ENDBRANCH   2   4
TORSDOF 1
ENDMDL
MODEL      107
REMARK 921   NORMALIZED FREE ENERGY PREDICTED BY IDOCK:   -2.46 KCAL/MOL
REMARK 922        TOTAL FREE ENERGY PREDICTED BY IDOCK:   -2.62 KCAL/MOL
REMARK 923 INTER-LIGAND FREE ENERGY PREDICTED BY IDOCK:   -2.60 KCAL/MOL
REMARK 924 INTRA-LIGAND FREE ENERGY PREDICTED BY IDOCK:   -0.02 KCAL/MOL
REMARK 927      BINDING AFFINITY PREDICTED BY RF-SCORE:    0.00 PKD
ROOT
HETATM    1  O   UNL     1      -8.203   7.326  74.386  1.00  0.00    -0.152 OA 
HETATM    2  C   UNL     1      -8.086   7.952  73.114  1.00  0.00    -0.162 C  
HETATM    3  H   UNL     1      -7.349   7.133  74.754  1.00  0.00     0.000 HD 
ENDROOT
BRANCH   2   4
HETATM    4  C   UNL     1      -9.439   8.258  72.530  1.00  0.00    -0.356 A  
HETATM    5  C   UNL     1      -9.539   9.049  71.376  1.00  0.00    -0.356 A  
HETATM    6  C   UNL     1     -10.784   9.322  70.803  1.00  0.00    -0.350 A  
HETATM    7  C   UNL     1     -11.943   8.795  71.371  1.00  0.00    -0.367 A  
HETATM    8  C   UNL     1     -11.858   7.992  72.505  1.00  0.00    -0.419 A  
HETATM    9  C   UNL     1     -10.614   7.719  73.077  1.00  0.00    -0.441 A  
ENDBRANCH   2   4
TORSDOF 1
ENDMDL
MODEL      108
REMARK 921   NORMALIZED FREE ENERGY PREDICTED BY IDOCK:   -2.41 KCAL/MOL
REMARK 922        TOTAL FREE ENERGY PREDICTED BY IDOCK:   -2.57 KCAL/MOL
REMARK 923 INTER-LIGAND FREE ENERGY PREDICTED BY IDOCK:   -2.55 KCAL/MOL
REMARK 924 INTRA-LIGAND FREE ENERGY PREDICTED BY IDOCK:   -0.02 KCAL/MOL
REMARK 927      BINDING AFFINITY PREDICTED BY RF-SCORE:    0.00 PKD
ROOT
HETATM    1  O   UNL     1      -9.595  15.812  66.603  1.00  0.00    -0.224 OA 
HETATM    2  C   UNL     1     -10.272  16.985  66.166  1.00  0.00    -0.337 C  
HETATM    3  H   UNL     1     -10.115  15.034  66.439  1.00  0.00     0.000 HD 
ENDROOT
BRANCH   2   4
HETATM    4  C   UNL     1      -9.448  18.219  66.425  1.00  0.00    -0.290 A  
HETATM    5  C   UNL     1      -8.052  18.163  66.306  1.00  0.00    -0.254 A  
HETATM    6  C   UNL     1      -7.272  19.303  66.516  1.00  0.00    -0.241 A  
HETATM    7  C   UNL     1      -7.881  20.515  66.836  1.00  0.00    -0.311 A  
HETATM    8  C   UNL     1      -9.267  20.590  66.939  1.00  0.00    -0.400 A  
HETATM    9  C   UNL     1     -10.047  19.451  66.728  1.00  0.00    -0.496 A  
ENDBRANCH   2   4
TORSDOF 1
ENDMDL
MODEL      109
REMARK 921   NORMALIZED FREE ENERGY PREDICTED BY IDOCK:   -2.40 KCAL/MOL
REMARK 922        TOTAL FREE ENERGY PREDICTED BY IDOCK:   -2.55 KCAL/MOL
REMARK 923 INTER-LIGAND FREE ENERGY PREDICTED BY IDOCK:   -2.55 KCAL/MOL
REMARK 924 INTRA-LIGAND FREE ENERGY PREDICTED BY IDOCK:   -0.01 KCAL/MOL
REMARK 927      BINDING AFFINITY PREDICTED BY RF-SCORE:    0.00 PKD
ROOT
HETATM    1  O   UNL     1      -9.253  17.899  65.959  1.00  0.00    -0.509 OA 
HETATM    2  C   UNL     1     -10.504  17.223  65.964  1.00  0.00    -0.282 C  
HETATM    3  H   UNL     1      -9.310  18.725  65.493  1.00  0.00     0.000 HD 
ENDROOT
BRANCH   2   4
HETATM    4  C   UNL     1     -10.414  15.914  66.703  1.00  0.00    -0.306 A  
HETATM    5  C   UNL     1     -11.023  15.778  67.958  1.00  0.00    -0.330 A  
HETATM    6  C   UNL     1     -10.974  14.564  68.648  1.00  0.00    -0.263 A  
HETATM    7  C   UNL     1     -10.324  13.467  68.083  1.00  0.00    -0.247 A  
HETATM    8  C   UNL     1      -9.732  13.582  66.828  1.00  0.00    -0.271 A  
HETATM    9  C   UNL     1      -9.782  14.795  66.139  1.00  0.00    -0.338 A  
ENDBRANCH   2   4
TORSDOF 1
ENDMDL
MODEL      110
REMARK 921   NORMALIZED FREE ENERGY PREDICTED BY IDOCK:   -2.40 KCAL/MOL
REMARK 922        TOTAL FREE ENERGY PREDICTED BY IDOCK:   -2.55 KCAL/MOL
REMARK 923 INTER-LIGAND FREE ENERGY PREDICTED BY IDOCK:   -2.54 KCAL/MOL
REMARK 924 INTRA-LIGAND FREE ENERGY PREDICTED BY IDOCK:   -0.01 KCAL/MOL
REMARK 927      BINDING AFFINITY PREDICTED BY RF-SCORE:    0.00 PKD
ROOT
HETATM    1  O   UNL     1      -9.890  13.280  65.438  1.00  0.00    -0.464 OA 
HETATM    2  C   UNL     1      -9.287  13.638  66.676  1.00  0.00    -0.254 C  
HETATM    3  H   UNL     1      -9.761  12.358  65.247  1.00  0.00     0.000 HD 
ENDROOT
BRANCH   2   4
HETATM    4  C   UNL     1      -9.492  15.098  66.980  1.00  0.00    -0.237 A  
HETATM    5  C   UNL     1      -8.775  16.067  66.262  1.00  0.00    -0.372 A  
HETATM    6  C   UNL     1      -8.970  17.428  66.510  1.00  0.00    -0.285 A  
HETATM    7  C   UNL     1      -9.894  17.837  67.471  1.00  0.00    -0.304 A  
HETATM    8  C   UNL     1     -10.626  16.887  68.178  1.00  0.00    -0.360 A  
HETATM    9  C   UNL     1     -10.432  15.527  67.929  1.00  0.00    -0.266 A  
ENDBRANCH   2   4
TORSDOF 1
ENDMDL
MODEL      111
REMARK 921   NORMALIZED FREE ENERGY PREDICTED BY IDOCK:   -2.40 KCAL/MOL
REMARK 922        TOTAL FREE ENERGY PREDICTED BY IDOCK:   -2.55 KCAL/MOL
REMARK 923 INTER-LIGAND FREE ENERGY PREDICTED BY IDOCK:   -2.54 KCAL/MOL
REMARK 924 INTRA-LIGAND FREE ENERGY PREDICTED BY IDOCK:   -0.01 KCAL/MOL
REMARK 927      BINDING AFFINITY PREDICTED BY RF-SCORE:    0.00 PKD
ROOT
HETATM    1  O   UNL     1      -9.513  20.362  65.948  1.00  0.00    -0.641 OA 
HETATM    2  C   UNL     1      -8.201  19.829  66.082  1.00  0.00    -0.344 C  
HETATM    3  H   UNL     1      -9.505  21.180  65.465  1.00  0.00     0.000 HD 
ENDROOT
BRANCH   2   4
HETATM    4  C   UNL     1      -8.214  18.533  66.848  1.00  0.00    -0.266 A  
HETATM    5  C   UNL     1      -8.959  18.431  68.032  1.00  0.00    -0.305 A  
HETATM    6  C   UNL     1      -9.005  17.229  68.743  1.00  0.00    -0.231 A  
HETATM    7  C   UNL     1      -8.317  16.112  68.272  1.00  0.00    -0.171 A  
HETATM    8  C   UNL     1      -7.590  16.194  67.087  1.00  0.00    -0.237 A  
HETATM    9  C   UNL     1      -7.544  17.394  66.376  1.00  0.00    -0.342 A  
ENDBRANCH   2   4
TORSDOF 1
ENDMDL
MODEL      112
REMARK 921   NORMALIZED FREE ENERGY PREDICTED BY IDOCK:   -2.40 KCAL/MOL
REMARK 922        TOTAL FREE ENERGY PREDICTED BY IDOCK:   -2.55 KCAL/MOL
REMARK 923 INTER-LIGAND FREE ENERGY PREDICTED BY IDOCK:   -2.53 KCAL/MOL
REMARK 924 INTRA-LIGAND FREE ENERGY PREDICTED BY IDOCK:   -0.02 KCAL/MOL
REMARK 927      BINDING AFFINITY PREDICTED BY RF-SCORE:    0.00 PKD
ROOT
HETATM    1  O   UNL     1     -12.064  12.148  67.391  1.00  0.00    -0.553 OA 
HETATM    2  C   UNL     1     -11.473  11.001  67.989  1.00  0.00    -0.290 C  
HETATM    3  H   UNL     1     -12.593  12.629  68.016  1.00  0.00     0.000 HD 
ENDROOT
BRANCH   2   4
HETATM    4  C   UNL     1     -10.636  10.239  66.997  1.00  0.00    -0.302 A  
HETATM    5  C   UNL     1     -10.257   8.917  67.273  1.00  0.00    -0.326 A  
HETATM    6  C   UNL     1      -9.503   8.184  66.354  1.00  0.00    -0.285 A  
HETATM    7  C   UNL     1      -9.129   8.760  65.141  1.00  0.00    -0.104 A  
HETATM    8  C   UNL     1      -9.514  10.065  64.844  1.00  0.00    -0.355 A  
HETATM    9  C   UNL     1     -10.269  10.797  65.763  1.00  0.00    -0.319 A  
ENDBRANCH   2   4
TORSDOF 1
ENDMDL
MODEL      113
REMARK 921   NORMALIZED FREE ENERGY PREDICTED BY IDOCK:   -2.39 KCAL/MOL
REMARK 922        TOTAL FREE ENERGY PREDICTED BY IDOCK:   -2.55 KCAL/MOL
REMARK 923 INTER-LIGAND FREE ENERGY PREDICTED BY IDOCK:   -2.54 KCAL/MOL
REMARK 924 INTRA-LIGAND FREE ENERGY PREDICTED BY IDOCK:   -0.01 KCAL/MOL
REMARK 927      BINDING AFFINITY PREDICTED BY RF-SCORE:    0.00 PKD
ROOT
HETATM    1  O   UNL     1      -8.287   9.281  70.050  1.00  0.00    -0.132 OA 
HETATM    2  C   UNL     1      -9.598   9.654  69.644  1.00  0.00    -0.208 C  
HETATM    3  H   UNL     1      -7.628   9.793  69.596  1.00  0.00     0.000 HD 
ENDROOT
BRANCH   2   4
HETATM    4  C   UNL     1     -10.643   8.842  70.364  1.00  0.00    -0.252 A  
HETATM    5  C   UNL     1     -11.318   9.392  71.463  1.00  0.00    -0.464 A  
HETATM    6  C   UNL     1     -12.309   8.666  72.128  1.00  0.00    -0.452 A  
HETATM    7  C   UNL     1     -12.646   7.385  71.692  1.00  0.00    -0.391 A  
HETATM    8  C   UNL     1     -11.998   6.834  70.590  1.00  0.00    -0.418 A  
HETATM    9  C   UNL     1     -11.008   7.560  69.925  1.00  0.00    -0.223 A  
ENDBRANCH   2   4
TORSDOF 1
ENDMDL
MODEL      114
REMARK 921   NORMALIZED FREE ENERGY PREDICTED BY IDOCK:   -2.36 KCAL/MOL
REMARK 922        TOTAL FREE ENERGY PREDICTED BY IDOCK:   -2.52 KCAL/MOL
REMARK 923 INTER-LIGAND FREE ENERGY PREDICTED BY IDOCK:   -2.50 KCAL/MOL
REMARK 924 INTRA-LIGAND FREE ENERGY PREDICTED BY IDOCK:   -0.02 KCAL/MOL
REMARK 927      BINDING AFFINITY PREDICTED BY RF-SCORE:    0.00 PKD
ROOT
HETATM    1  O   UNL     1     -10.865  11.110  69.757  1.00  0.00    -0.422 OA 
HETATM    2  C   UNL     1     -11.314  11.529  68.474  1.00  0.00    -0.277 C  
HETATM    3  H   UNL     1     -11.253  11.637  70.446  1.00  0.00     0.000 HD 
ENDROOT
BRANCH   2   4
HETATM    4  C   UNL     1     -10.700  10.693  67.382  1.00  0.00    -0.326 A  
HETATM    5  C   UNL     1     -10.624  11.199  66.076  1.00  0.00    -0.298 A  
HETATM    6  C   UNL     1     -10.034  10.450  65.055  1.00  0.00    -0.399 A  
HETATM    7  C   UNL     1      -9.501   9.192  65.331  1.00  0.00    -0.231 A  
HETATM    8  C   UNL     1      -9.551   8.686  66.627  1.00  0.00    -0.285 A  
HETATM    9  C   UNL     1     -10.140   9.434  67.648  1.00  0.00    -0.262 A  
ENDBRANCH   2   4
TORSDOF 1
ENDMDL
MODEL      115
REMARK 921   NORMALIZED FREE ENERGY PREDICTED BY IDOCK:   -2.35 KCAL/MOL
REMARK 922        TOTAL FREE ENERGY PREDICTED BY IDOCK:   -2.50 KCAL/MOL
REMARK 923 INTER-LIGAND FREE ENERGY PREDICTED BY IDOCK:   -2.49 KCAL/MOL
REMARK 924 INTRA-LIGAND FREE ENERGY PREDICTED BY IDOCK:   -0.01 KCAL/MOL
REMARK 927      BINDING AFFINITY PREDICTED BY RF-SCORE:    0.00 PKD
ROOT
HETATM    1  O   UNL     1      -8.326   6.051  72.189  1.00  0.00    -0.111 OA 
HETATM    2  C   UNL     1      -9.453   6.024  73.057  1.00  0.00    -0.143 C  
HETATM    3  H   UNL     1      -7.618   5.517  72.529  1.00  0.00     0.000 HD 
ENDROOT
BRANCH   2   4
HETATM    4  C   UNL     1     -10.576   6.871  72.520  1.00  0.00    -0.251 A  
HETATM    5  C   UNL     1     -10.387   8.249  72.341  1.00  0.00    -0.402 A  
HETATM    6  C   UNL     1     -11.407   9.047  71.818  1.00  0.00    -0.447 A  
HETATM    7  C   UNL     1     -12.626   8.474  71.456  1.00  0.00    -0.348 A  
HETATM    8  C   UNL     1     -12.821   7.104  71.610  1.00  0.00    -0.420 A  
HETATM    9  C   UNL     1     -11.801   6.306  72.131  1.00  0.00    -0.365 A  
ENDBRANCH   2   4
TORSDOF 1
ENDMDL
MODEL      116
REMARK 921   NORMALIZED FREE ENERGY PREDICTED BY IDOCK:   -2.33 KCAL/MOL
REMARK 922        TOTAL FREE ENERGY PREDICTED BY IDOCK:   -2.49 KCAL/MOL
REMARK 923 INTER-LIGAND FREE ENERGY PREDICTED BY IDOCK:   -2.47 KCAL/MOL
REMARK 924 INTRA-LIGAND FREE ENERGY PREDICTED BY IDOCK:   -0.01 KCAL/MOL
REMARK 927      BINDING AFFINITY PREDICTED BY RF-SCORE:    0.00 PKD
ROOT
HETATM    1  O   UNL     1     -12.909   6.980  70.857  1.00  0.00    -0.544 OA 
HETATM    2  C   UNL     1     -11.930   6.916  71.887  1.00  0.00    -0.327 C  
HETATM    3  H   UNL     1     -13.370   7.811  70.871  1.00  0.00     0.000 HD 
ENDROOT
BRANCH   2   4
HETATM    4  C   UNL     1     -11.200   5.599  71.863  1.00  0.00    -0.246 A  
HETATM    5  C   UNL     1     -10.487   5.217  70.718  1.00  0.00    -0.263 A  
HETATM    6  C   UNL     1      -9.781   4.012  70.686  1.00  0.00    -0.266 A  
HETATM    7  C   UNL     1      -9.770   3.180  71.805  1.00  0.00    -0.234 A  
HETATM    8  C   UNL     1     -10.458   3.555  72.956  1.00  0.00    -0.251 A  
HETATM    9  C   UNL     1     -11.162   4.760  72.988  1.00  0.00    -0.344 A  
ENDBRANCH   2   4
TORSDOF 1
ENDMDL
MODEL      117
REMARK 921   NORMALIZED FREE ENERGY PREDICTED BY IDOCK:   -2.33 KCAL/MOL
REMARK 922        TOTAL FREE ENERGY PREDICTED BY IDOCK:   -2.48 KCAL/MOL
REMARK 923 INTER-LIGAND FREE ENERGY PREDICTED BY IDOCK:   -2.47 KCAL/MOL
REMARK 924 INTRA-LIGAND FREE ENERGY PREDICTED BY IDOCK:   -0.01 KCAL/MOL
REMARK 927      BINDING AFFINITY PREDICTED BY RF-SCORE:    0.00 PKD
ROOT
HETATM    1  O   UNL     1     -10.016   4.809  69.342  1.00  0.00    -0.204 OA 
HETATM    2  C   UNL     1     -10.145   4.851  70.758  1.00  0.00    -0.233 C  
HETATM    3  H   UNL     1      -9.723   3.954  69.049  1.00  0.00     0.000 HD 
ENDROOT
BRANCH   2   4
HETATM    4  C   UNL     1     -10.610   6.206  71.223  1.00  0.00    -0.295 A  
HETATM    5  C   UNL     1      -9.699   7.086  71.826  1.00  0.00    -0.165 A  
HETATM    6  C   UNL     1     -10.104   8.358  72.240  1.00  0.00    -0.382 A  
HETATM    7  C   UNL     1     -11.422   8.768  72.045  1.00  0.00    -0.441 A  
HETATM    8  C   UNL     1     -12.332   7.912  71.430  1.00  0.00    -0.334 A  
HETATM    9  C   UNL     1     -11.927   6.642  71.016  1.00  0.00    -0.415 A  
ENDBRANCH   2   4
TORSDOF 1
ENDMDL
MODEL      118
REMARK 921   NORMALIZED FREE ENERGY PREDICTED BY IDOCK:   -2.30 KCAL/MOL
REMARK 922        TOTAL FREE ENERGY PREDICTED BY IDOCK:   -2.45 KCAL/MOL
REMARK 923 INTER-LIGAND FREE ENERGY PREDICTED BY IDOCK:   -2.44 KCAL/MOL
REMARK 924 INTRA-LIGAND FREE ENERGY PREDICTED BY IDOCK:   -0.02 KCAL/MOL
REMARK 927      BINDING AFFINITY PREDICTED BY RF-SCORE:    0.00 PKD
ROOT
HETATM    1  O   UNL     1     -11.546   6.614  68.161  1.00  0.00    -0.543 OA 
HETATM    2  C   UNL     1     -10.691   7.214  67.195  1.00  0.00    -0.352 C  
HETATM    3  H   UNL     1     -11.751   5.716  67.928  1.00  0.00     0.000 HD 
ENDROOT
BRANCH   2   4
HETATM    4  C   UNL     1     -10.364   8.637  67.565  1.00  0.00    -0.336 A  
HETATM    5  C   UNL     1      -9.957   9.539  66.571  1.00  0.00    -0.329 A  
HETATM    6  C   UNL     1      -9.675  10.870  66.889  1.00  0.00    -0.210 A  
HETATM    7  C   UNL     1      -9.810  11.317  68.203  1.00  0.00    -0.190 A  
HETATM    8  C   UNL     1     -10.233  10.437  69.196  1.00  0.00    -0.239 A  
HETATM    9  C   UNL     1     -10.515   9.107  68.878  1.00  0.00    -0.239 A  
ENDBRANCH   2   4
TORSDOF 1
ENDMDL
MODEL      119
REMARK 921   NORMALIZED FREE ENERGY PREDICTED BY IDOCK:   -2.29 KCAL/MOL
REMARK 922        TOTAL FREE ENERGY PREDICTED BY IDOCK:   -2.43 KCAL/MOL
REMARK 923 INTER-LIGAND FREE ENERGY PREDICTED BY IDOCK:   -2.42 KCAL/MOL
REMARK 924 INTRA-LIGAND FREE ENERGY PREDICTED BY IDOCK:   -0.02 KCAL/MOL
REMARK 927      BINDING AFFINITY PREDICTED BY RF-SCORE:    0.00 PKD
ROOT
HETATM    1  O   UNL     1     -10.046  14.350  67.389  1.00  0.00    -0.240 OA 
HETATM    2  C   UNL     1     -10.657  15.620  67.200  1.00  0.00    -0.308 C  
HETATM    3  H   UNL     1     -10.605  13.649  67.077  1.00  0.00     0.000 HD 
ENDROOT
BRANCH   2   4
HETATM    4  C   UNL     1      -9.769  16.731  67.695  1.00  0.00    -0.251 A  
HETATM    5  C   UNL     1     -10.265  18.041  67.766  1.00  0.00    -0.385 A  
HETATM    6  C   UNL     1      -9.466  19.081  68.248  1.00  0.00    -0.401 A  
HETATM    7  C   UNL     1      -8.165  18.821  68.675  1.00  0.00    -0.363 A  
HETATM    8  C   UNL     1      -7.666  17.522  68.628  1.00  0.00    -0.275 A  
HETATM    9  C   UNL     1      -8.464  16.483  68.148  1.00  0.00    -0.191 A  
ENDBRANCH   2   4
TORSDOF 1
ENDMDL
MODEL      120
REMARK 921   NORMALIZED FREE ENERGY PREDICTED BY IDOCK:   -2.25 KCAL/MOL
REMARK 922        TOTAL FREE ENERGY PREDICTED BY IDOCK:   -2.40 KCAL/MOL
REMARK 923 INTER-LIGAND FREE ENERGY PREDICTED BY IDOCK:   -2.38 KCAL/MOL
REMARK 924 INTRA-LIGAND FREE ENERGY PREDICTED BY IDOCK:   -0.01 KCAL/MOL
REMARK 927      BINDING AFFINITY PREDICTED BY RF-SCORE:    0.00 PKD
ROOT
HETATM    1  O   UNL     1      -9.902   8.448  65.937  1.00  0.00    -0.471 OA 
HETATM    2  C   UNL     1     -10.496   9.091  67.058  1.00  0.00    -0.246 C  
HETATM    3  H   UNL     1      -9.813   9.047  65.205  1.00  0.00     0.000 HD 
ENDROOT
BRANCH   2   4
HETATM    4  C   UNL     1     -10.638   8.142  68.219  1.00  0.00    -0.153 A  
HETATM    5  C   UNL     1     -10.656   8.641  69.529  1.00  0.00    -0.218 A  
HETATM    6  C   UNL     1     -10.814   7.780  70.618  1.00  0.00    -0.241 A  
HETATM    7  C   UNL     1     -10.968   6.410  70.408  1.00  0.00    -0.367 A  
HETATM    8  C   UNL     1     -10.971   5.903  69.111  1.00  0.00    -0.382 A  
HETATM    9  C   UNL     1     -10.814   6.764  68.023  1.00  0.00    -0.306 A  
ENDBRANCH   2   4
TORSDOF 1
ENDMDL
MODEL      121
REMARK 921   NORMALIZED FREE ENERGY PREDICTED BY IDOCK:   -2.25 KCAL/MOL
REMARK 922        TOTAL FREE ENERGY PREDICTED BY IDOCK:   -2.40 KCAL/MOL
REMARK 923 INTER-LIGAND FREE ENERGY PREDICTED BY IDOCK:   -2.38 KCAL/MOL
REMARK 924 INTRA-LIGAND FREE ENERGY PREDICTED BY IDOCK:   -0.02 KCAL/MOL
REMARK 927      BINDING AFFINITY PREDICTED BY RF-SCORE:    0.00 PKD
ROOT
HETATM    1  O   UNL     1     -10.612  12.310  68.146  1.00  0.00    -0.201 OA 
HETATM    2  C   UNL     1     -10.499  12.592  66.756  1.00  0.00    -0.225 C  
HETATM    3  H   UNL     1     -10.591  11.374  68.310  1.00  0.00     0.000 HD 
ENDROOT
BRANCH   2   4
HETATM    4  C   UNL     1     -10.532  14.075  66.496  1.00  0.00    -0.281 A  
HETATM    5  C   UNL     1     -10.318  14.973  67.551  1.00  0.00    -0.241 A  
HETATM    6  C   UNL     1     -10.319  16.352  67.325  1.00  0.00    -0.287 A  
HETATM    7  C   UNL     1     -10.521  16.848  66.038  1.00  0.00    -0.297 A  
HETATM    8  C   UNL     1     -10.715  15.967  64.977  1.00  0.00    -0.426 A  
HETATM    9  C   UNL     1     -10.714  14.589  65.203  1.00  0.00    -0.422 A  
ENDBRANCH   2   4
TORSDOF 1
ENDMDL
MODEL      122
REMARK 921   NORMALIZED FREE ENERGY PREDICTED BY IDOCK:   -2.25 KCAL/MOL
REMARK 922        TOTAL FREE ENERGY PREDICTED BY IDOCK:   -2.39 KCAL/MOL
REMARK 923 INTER-LIGAND FREE ENERGY PREDICTED BY IDOCK:   -2.38 KCAL/MOL
REMARK 924 INTRA-LIGAND FREE ENERGY PREDICTED BY IDOCK:   -0.02 KCAL/MOL
REMARK 927      BINDING AFFINITY PREDICTED BY RF-SCORE:    0.00 PKD
ROOT
HETATM    1  O   UNL     1      -8.008   7.110  73.746  1.00  0.00    -0.102 OA 
HETATM    2  C   UNL     1      -8.672   6.157  72.924  1.00  0.00    -0.122 C  
HETATM    3  H   UNL     1      -7.206   6.752  74.107  1.00  0.00     0.000 HD 
ENDROOT
BRANCH   2   4
HETATM    4  C   UNL     1      -9.944   6.724  72.351  1.00  0.00    -0.184 A  
HETATM    5  C   UNL     1     -10.506   6.152  71.201  1.00  0.00    -0.281 A  
HETATM    6  C   UNL     1     -11.700   6.646  70.669  1.00  0.00    -0.452 A  
HETATM    7  C   UNL     1     -12.352   7.711  71.289  1.00  0.00    -0.334 A  
HETATM    8  C   UNL     1     -11.816   8.276  72.443  1.00  0.00    -0.461 A  
HETATM    9  C   UNL     1     -10.624   7.781  72.975  1.00  0.00    -0.441 A  
ENDBRANCH   2   4
TORSDOF 1
ENDMDL
MODEL      123
REMARK 921   NORMALIZED FREE ENERGY PREDICTED BY IDOCK:   -2.24 KCAL/MOL
REMARK 922        TOTAL FREE ENERGY PREDICTED BY IDOCK:   -2.38 KCAL/MOL
REMARK 923 INTER-LIGAND FREE ENERGY PREDICTED BY IDOCK:   -2.37 KCAL/MOL
REMARK 924 INTRA-LIGAND FREE ENERGY PREDICTED BY IDOCK:   -0.01 KCAL/MOL
REMARK 927      BINDING AFFINITY PREDICTED BY RF-SCORE:    0.00 PKD
ROOT
HETATM    1  O   UNL     1     -11.184  16.609  69.597  1.00  0.00    -0.340 OA 
HETATM    2  C   UNL     1     -10.615  17.253  68.463  1.00  0.00    -0.350 C  
HETATM    3  H   UNL     1     -12.117  16.472  69.483  1.00  0.00     0.000 HD 
ENDROOT
BRANCH   2   4
HETATM    4  C   UNL     1      -9.136  17.470  68.645  1.00  0.00    -0.263 A  
HETATM    5  C   UNL     1      -8.600  18.761  68.520  1.00  0.00    -0.378 A  
HETATM    6  C   UNL     1      -7.235  18.987  68.712  1.00  0.00    -0.358 A  
HETATM    7  C   UNL     1      -6.391  17.928  69.041  1.00  0.00    -0.232 A  
HETATM    8  C   UNL     1      -6.912  16.645  69.187  1.00  0.00    -0.227 A  
HETATM    9  C   UNL     1      -8.276  16.418  68.997  1.00  0.00    -0.222 A  
ENDBRANCH   2   4
TORSDOF 1
ENDMDL
MODEL      124
REMARK 921   NORMALIZED FREE ENERGY PREDICTED BY IDOCK:   -2.19 KCAL/MOL
REMARK 922        TOTAL FREE ENERGY PREDICTED BY IDOCK:   -2.33 KCAL/MOL
REMARK 923 INTER-LIGAND FREE ENERGY PREDICTED BY IDOCK:   -2.32 KCAL/MOL
REMARK 924 INTRA-LIGAND FREE ENERGY PREDICTED BY IDOCK:   -0.01 KCAL/MOL
REMARK 927      BINDING AFFINITY PREDICTED BY RF-SCORE:    0.00 PKD
ROOT
HETATM    1  O   UNL     1     -11.706  12.338  70.356  1.00  0.00    -0.526 OA 
HETATM    2  C   UNL     1     -11.975  11.527  69.218  1.00  0.00    -0.330 C  
HETATM    3  H   UNL     1     -12.303  13.075  70.402  1.00  0.00     0.000 HD 
ENDROOT
BRANCH   2   4
HETATM    4  C   UNL     1     -11.027  10.359  69.144  1.00  0.00    -0.285 A  
HETATM    5  C   UNL     1     -10.620   9.869  67.895  1.00  0.00    -0.303 A  
HETATM    6  C   UNL     1      -9.721   8.804  67.805  1.00  0.00    -0.194 A  
HETATM    7  C   UNL     1      -9.208   8.224  68.964  1.00  0.00    -0.147 A  
HETATM    8  C   UNL     1      -9.588   8.713  70.211  1.00  0.00    -0.186 A  
HETATM    9  C   UNL     1     -10.486   9.778  70.301  1.00  0.00    -0.345 A  
ENDBRANCH   2   4
TORSDOF 1
ENDMDL
MODEL      125
REMARK 921   NORMALIZED FREE ENERGY PREDICTED BY IDOCK:   -2.19 KCAL/MOL
REMARK 922        TOTAL FREE ENERGY PREDICTED BY IDOCK:   -2.33 KCAL/MOL
REMARK 923 INTER-LIGAND FREE ENERGY PREDICTED BY IDOCK:   -2.31 KCAL/MOL
REMARK 924 INTRA-LIGAND FREE ENERGY PREDICTED BY IDOCK:   -0.02 KCAL/MOL
REMARK 927      BINDING AFFINITY PREDICTED BY RF-SCORE:    0.00 PKD
ROOT
HETATM    1  O   UNL     1      -9.895  13.844  64.729  1.00  0.00    -0.603 OA 
HETATM    2  C   UNL     1     -10.334  12.492  64.684  1.00  0.00    -0.317 C  
HETATM    3  H   UNL     1     -10.020  14.275  63.892  1.00  0.00     0.000 HD 
ENDROOT
BRANCH   2   4
HETATM    4  C   UNL     1     -10.136  11.809  66.011  1.00  0.00    -0.263 A  
HETATM    5  C   UNL     1      -9.777  12.564  67.137  1.00  0.00    -0.205 A  
HETATM    6  C   UNL     1      -9.614  11.953  68.383  1.00  0.00    -0.196 A  
HETATM    7  C   UNL     1      -9.822  10.581  68.520  1.00  0.00    -0.175 A  
HETATM    8  C   UNL     1     -10.198   9.823  67.414  1.00  0.00    -0.284 A  
HETATM    9  C   UNL     1     -10.361  10.433  66.170  1.00  0.00    -0.269 A  
ENDBRANCH   2   4
TORSDOF 1
ENDMDL
MODEL      126
REMARK 921   NORMALIZED FREE ENERGY PREDICTED BY IDOCK:   -2.11 KCAL/MOL
REMARK 922        TOTAL FREE ENERGY PREDICTED BY IDOCK:   -2.25 KCAL/MOL
REMARK 923 INTER-LIGAND FREE ENERGY PREDICTED BY IDOCK:   -2.24 KCAL/MOL
REMARK 924 INTRA-LIGAND FREE ENERGY PREDICTED BY IDOCK:   -0.01 KCAL/MOL
REMARK 927      BINDING AFFINITY PREDICTED BY RF-SCORE:    0.00 PKD
ROOT
HETATM    1  O   UNL     1     -11.343  12.702  69.901  1.00  0.00    -0.493 OA 
HETATM    2  C   UNL     1     -11.474  13.074  68.535  1.00  0.00    -0.304 C  
HETATM    3  H   UNL     1     -11.960  13.174  70.447  1.00  0.00     0.000 HD 
ENDROOT
BRANCH   2   4
HETATM    4  C   UNL     1     -10.495  12.325  67.669  1.00  0.00    -0.230 A  
HETATM    5  C   UNL     1     -10.962  11.382  66.742  1.00  0.00    -0.347 A  
HETATM    6  C   UNL     1     -10.072  10.697  65.912  1.00  0.00    -0.321 A  
HETATM    7  C   UNL     1      -8.704  10.956  65.990  1.00  0.00    -0.192 A  
HETATM    8  C   UNL     1      -8.228  11.904  66.893  1.00  0.00    -0.157 A  
HETATM    9  C   UNL     1      -9.118  12.589  67.722  1.00  0.00    -0.191 A  
ENDBRANCH   2   4
TORSDOF 1
ENDMDL
MODEL      127
REMARK 921   NORMALIZED FREE ENERGY PREDICTED BY IDOCK:   -2.07 KCAL/MOL
REMARK 922        TOTAL FREE ENERGY PREDICTED BY IDOCK:   -2.21 KCAL/MOL
REMARK 923 INTER-LIGAND FREE ENERGY PREDICTED BY IDOCK:   -2.19 KCAL/MOL
REMARK 924 INTRA-LIGAND FREE ENERGY PREDICTED BY IDOCK:   -0.01 KCAL/MOL
REMARK 927      BINDING AFFINITY PREDICTED BY RF-SCORE:    0.00 PKD
ROOT
HETATM    1  O   UNL     1     -11.619   7.099  69.492  1.00  0.00    -0.512 OA 
HETATM    2  C   UNL     1     -11.499   6.414  70.733  1.00  0.00    -0.353 C  
HETATM    3  H   UNL     1     -12.339   6.755  68.977  1.00  0.00     0.000 HD 
ENDROOT
BRANCH   2   4
HETATM    4  C   UNL     1     -10.357   6.960  71.549  1.00  0.00    -0.220 A  
HETATM    5  C   UNL     1      -9.084   7.079  70.975  1.00  0.00    -0.151 A  
HETATM    6  C   UNL     1      -8.018   7.609  71.707  1.00  0.00    -0.102 A  
HETATM    7  C   UNL     1      -8.217   8.036  73.020  1.00  0.00    -0.234 A  
HETATM    8  C   UNL     1      -9.481   7.942  73.596  1.00  0.00    -0.252 A  
HETATM    9  C   UNL     1     -10.546   7.414  72.864  1.00  0.00    -0.370 A  
ENDBRANCH   2   4
TORSDOF 1
ENDMDL
MODEL      128
REMARK 921   NORMALIZED FREE ENERGY PREDICTED BY IDOCK:   -2.07 KCAL/MOL
REMARK 922        TOTAL FREE ENERGY PREDICTED BY IDOCK:   -2.20 KCAL/MOL
REMARK 923 INTER-LIGAND FREE ENERGY PREDICTED BY IDOCK:   -2.19 KCAL/MOL
REMARK 924 INTRA-LIGAND FREE ENERGY PREDICTED BY IDOCK:   -0.01 KCAL/MOL
REMARK 927      BINDING AFFINITY PREDICTED BY RF-SCORE:    0.00 PKD
ROOT
HETATM    1  O   UNL     1     -12.237   7.148  70.192  1.00  0.00    -0.586 OA 
HETATM    2  C   UNL     1     -11.548   7.896  71.187  1.00  0.00    -0.280 C  
HETATM    3  H   UNL     1     -12.948   6.645  70.571  1.00  0.00     0.000 HD 
ENDROOT
BRANCH   2   4
HETATM    4  C   UNL     1     -10.420   8.693  70.587  1.00  0.00    -0.243 A  
HETATM    5  C   UNL     1      -9.179   8.743  71.237  1.00  0.00    -0.309 A  
HETATM    6  C   UNL     1      -8.112   9.456  70.683  1.00  0.00    -0.197 A  
HETATM    7  C   UNL     1      -8.272  10.117  69.466  1.00  0.00    -0.176 A  
HETATM    8  C   UNL     1      -9.493  10.059  68.800  1.00  0.00    -0.162 A  
HETATM    9  C   UNL     1     -10.559   9.346  69.353  1.00  0.00    -0.235 A  
ENDBRANCH   2   4
TORSDOF 1
ENDMDL
MODEL      129
REMARK 921   NORMALIZED FREE ENERGY PREDICTED BY IDOCK:   -2.06 KCAL/MOL
REMARK 922        TOTAL FREE ENERGY PREDICTED BY IDOCK:   -2.20 KCAL/MOL
REMARK 923 INTER-LIGAND FREE ENERGY PREDICTED BY IDOCK:   -2.18 KCAL/MOL
REMARK 924 INTRA-LIGAND FREE ENERGY PREDICTED BY IDOCK:   -0.01 KCAL/MOL
REMARK 927      BINDING AFFINITY PREDICTED BY RF-SCORE:    0.00 PKD
ROOT
HETATM    1  O   UNL     1     -10.127   6.825  74.018  1.00  0.00    -0.299 OA 
HETATM    2  C   UNL     1      -9.618   5.765  73.217  1.00  0.00    -0.143 C  
HETATM    3  H   UNL     1      -9.847   6.739  74.921  1.00  0.00     0.000 HD 
ENDROOT
BRANCH   2   4
HETATM    4  C   UNL     1     -10.062   5.900  71.785  1.00  0.00    -0.228 A  
HETATM    5  C   UNL     1      -9.178   5.571  70.747  1.00  0.00    -0.179 A  
HETATM    6  C   UNL     1      -9.580   5.664  69.412  1.00  0.00    -0.187 A  
HETATM    7  C   UNL     1     -10.875   6.078  69.100  1.00  0.00    -0.422 A  
HETATM    8  C   UNL     1     -11.768   6.389  70.121  1.00  0.00    -0.372 A  
HETATM    9  C   UNL     1     -11.367   6.295  71.455  1.00  0.00    -0.353 A  
ENDBRANCH   2   4
TORSDOF 1
ENDMDL
MODEL      130
REMARK 921   NORMALIZED FREE ENERGY PREDICTED BY IDOCK:   -2.01 KCAL/MOL
REMARK 922        TOTAL FREE ENERGY PREDICTED BY IDOCK:   -2.14 KCAL/MOL
REMARK 923 INTER-LIGAND FREE ENERGY PREDICTED BY IDOCK:   -2.12 KCAL/MOL
REMARK 924 INTRA-LIGAND FREE ENERGY PREDICTED BY IDOCK:   -0.02 KCAL/MOL
REMARK 927      BINDING AFFINITY PREDICTED BY RF-SCORE:    0.00 PKD
ROOT
HETATM    1  O   UNL     1     -10.697  10.345  67.803  1.00  0.00    -0.236 OA 
HETATM    2  C   UNL     1     -10.189   9.521  68.845  1.00  0.00    -0.199 C  
HETATM    3  H   UNL     1     -10.593  11.266  68.010  1.00  0.00     0.000 HD 
ENDROOT
BRANCH   2   4
HETATM    4  C   UNL     1     -10.354   8.061  68.516  1.00  0.00    -0.229 A  
HETATM    5  C   UNL     1     -10.607   7.668  67.194  1.00  0.00    -0.410 A  
HETATM    6  C   UNL     1     -10.737   6.317  66.864  1.00  0.00    -0.411 A  
HETATM    7  C   UNL     1     -10.603   5.341  67.851  1.00  0.00    -0.098 A  
HETATM    8  C   UNL     1     -10.332   5.716  69.164  1.00  0.00    -0.328 A  
HETATM    9  C   UNL     1     -10.202   7.066  69.494  1.00  0.00    -0.208 A  
ENDBRANCH   2   4
TORSDOF 1
ENDMDL
MODEL      131
REMARK 921   NORMALIZED FREE ENERGY PREDICTED BY IDOCK:   -2.00 KCAL/MOL
REMARK 922        TOTAL FREE ENERGY PREDICTED BY IDOCK:   -2.13 KCAL/MOL
REMARK 923 INTER-LIGAND FREE ENERGY PREDICTED BY IDOCK:   -2.13 KCAL/MOL
REMARK 924 INTRA-LIGAND FREE ENERGY PREDICTED BY IDOCK:   -0.01 KCAL/MOL
REMARK 927      BINDING AFFINITY PREDICTED BY RF-SCORE:    0.00 PKD
ROOT
HETATM    1  O   UNL     1      -9.444   3.515  69.704  1.00  0.00    -0.164 OA 
HETATM    2  C   UNL     1      -9.060   4.724  70.346  1.00  0.00    -0.119 C  
HETATM    3  H   UNL     1      -8.689   3.053  69.360  1.00  0.00     0.000 HD 
ENDROOT
BRANCH   2   4
HETATM    4  C   UNL     1     -10.257   5.457  70.892  1.00  0.00    -0.303 A  
HETATM    5  C   UNL     1     -11.005   6.295  70.052  1.00  0.00    -0.422 A  
HETATM    6  C   UNL     1     -12.134   6.962  70.532  1.00  0.00    -0.315 A  
HETATM    7  C   UNL     1     -12.537   6.789  71.855  1.00  0.00    -0.328 A  
HETATM    8  C   UNL     1     -11.816   5.944  72.695  1.00  0.00    -0.192 A  
HETATM    9  C   UNL     1     -10.687   5.277  72.215  1.00  0.00    -0.282 A  
ENDBRANCH   2   4
TORSDOF 1
ENDMDL
MODEL      132
REMARK 921   NORMALIZED FREE ENERGY PREDICTED BY IDOCK:   -2.00 KCAL/MOL
REMARK 922        TOTAL FREE ENERGY PREDICTED BY IDOCK:   -2.13 KCAL/MOL
REMARK 923 INTER-LIGAND FREE ENERGY PREDICTED BY IDOCK:   -2.12 KCAL/MOL
REMARK 924 INTRA-LIGAND FREE ENERGY PREDICTED BY IDOCK:   -0.01 KCAL/MOL
REMARK 927      BINDING AFFINITY PREDICTED BY RF-SCORE:    0.00 PKD
ROOT
HETATM    1  O   UNL     1     -10.160  10.028  65.224  1.00  0.00    -0.321 OA 
HETATM    2  C   UNL     1      -9.957   9.525  66.539  1.00  0.00    -0.261 C  
HETATM    3  H   UNL     1     -10.237  10.975  65.226  1.00  0.00     0.000 HD 
ENDROOT
BRANCH   2   4
HETATM    4  C   UNL     1      -9.835   8.023  66.535  1.00  0.00    -0.289 A  
HETATM    5  C   UNL     1      -8.709   7.416  65.961  1.00  0.00    -0.171 A  
HETATM    6  C   UNL     1      -8.565   6.027  65.971  1.00  0.00    -0.147 A  
HETATM    7  C   UNL     1      -9.540   5.228  66.567  1.00  0.00    -0.166 A  
HETATM    8  C   UNL     1     -10.654   5.819  67.158  1.00  0.00    -0.365 A  
HETATM    9  C   UNL     1     -10.798   7.207  67.149  1.00  0.00    -0.403 A  
ENDBRANCH   2   4
TORSDOF 1
ENDMDL
MODEL      133
REMARK 921   NORMALIZED FREE ENERGY PREDICTED BY IDOCK:   -1.98 KCAL/MOL
REMARK 922        TOTAL FREE ENERGY PREDICTED BY IDOCK:   -2.11 KCAL/MOL
REMARK 923 INTER-LIGAND FREE ENERGY PREDICTED BY IDOCK:   -2.10 KCAL/MOL
REMARK 924 INTRA-LIGAND FREE ENERGY PREDICTED BY IDOCK:   -0.02 KCAL/MOL
REMARK 927      BINDING AFFINITY PREDICTED BY RF-SCORE:    0.00 PKD
ROOT
HETATM    1  O   UNL     1     -12.645  15.130  69.244  1.00  0.00    -0.576 OA 
HETATM    2  C   UNL     1     -11.352  15.267  69.821  1.00  0.00    -0.289 C  
HETATM    3  H   UNL     1     -13.311  15.524  69.795  1.00  0.00     0.000 HD 
ENDROOT
BRANCH   2   4
HETATM    4  C   UNL     1     -10.296  14.642  68.947  1.00  0.00    -0.245 A  
HETATM    5  C   UNL     1     -10.609  13.515  68.173  1.00  0.00    -0.253 A  
HETATM    6  C   UNL     1      -9.652  12.937  67.336  1.00  0.00    -0.203 A  
HETATM    7  C   UNL     1      -8.373  13.487  67.254  1.00  0.00    -0.188 A  
HETATM    8  C   UNL     1      -8.054  14.617  68.002  1.00  0.00    -0.135 A  
HETATM    9  C   UNL     1      -9.011  15.195  68.838  1.00  0.00    -0.206 A  
ENDBRANCH   2   4
TORSDOF 1
ENDMDL
MODEL      134
REMARK 921   NORMALIZED FREE ENERGY PREDICTED BY IDOCK:   -1.98 KCAL/MOL
REMARK 922        TOTAL FREE ENERGY PREDICTED BY IDOCK:   -2.10 KCAL/MOL
REMARK 923 INTER-LIGAND FREE ENERGY PREDICTED BY IDOCK:   -2.09 KCAL/MOL
REMARK 924 INTRA-LIGAND FREE ENERGY PREDICTED BY IDOCK:   -0.01 KCAL/MOL
REMARK 927      BINDING AFFINITY PREDICTED BY RF-SCORE:    0.00 PKD
ROOT
HETATM    1  O   UNL     1     -10.682  11.739  67.347  1.00  0.00    -0.218 OA 
HETATM    2  C   UNL     1     -11.155  12.807  68.159  1.00  0.00    -0.256 C  
HETATM    3  H   UNL     1     -11.072  10.912  67.605  1.00  0.00     0.000 HD 
ENDROOT
BRANCH   2   4
HETATM    4  C   UNL     1     -10.536  14.118  67.750  1.00  0.00    -0.246 A  
HETATM    5  C   UNL     1     -11.269  15.306  67.882  1.00  0.00    -0.333 A  
HETATM    6  C   UNL     1     -10.703  16.535  67.534  1.00  0.00    -0.283 A  
HETATM    7  C   UNL     1      -9.392  16.591  67.061  1.00  0.00    -0.242 A  
HETATM    8  C   UNL     1      -8.646  15.421  66.944  1.00  0.00    -0.291 A  
HETATM    9  C   UNL     1      -9.211  14.193  67.293  1.00  0.00    -0.222 A  
ENDBRANCH   2   4
TORSDOF 1
ENDMDL
MODEL      135
REMARK 921   NORMALIZED FREE ENERGY PREDICTED BY IDOCK:   -1.97 KCAL/MOL
REMARK 922        TOTAL FREE ENERGY PREDICTED BY IDOCK:   -2.10 KCAL/MOL
REMARK 923 INTER-LIGAND FREE ENERGY PREDICTED BY IDOCK:   -2.09 KCAL/MOL
REMARK 924 INTRA-LIGAND FREE ENERGY PREDICTED BY IDOCK:   -0.01 KCAL/MOL
REMARK 927      BINDING AFFINITY PREDICTED BY RF-SCORE:    0.00 PKD
ROOT
HETATM    1  O   UNL     1      -9.480   6.855  66.293  1.00  0.00    -0.299 OA 
HETATM    2  C   UNL     1     -10.720   7.291  66.837  1.00  0.00    -0.276 C  
HETATM    3  H   UNL     1      -9.611   6.345  65.503  1.00  0.00     0.000 HD 
ENDROOT
BRANCH   2   4
HETATM    4  C   UNL     1     -10.512   8.100  68.090  1.00  0.00    -0.225 A  
HETATM    5  C   UNL     1     -10.610   9.499  68.041  1.00  0.00    -0.282 A  
HETATM    6  C   UNL     1     -10.447  10.265  69.197  1.00  0.00    -0.246 A  
HETATM    7  C   UNL     1     -10.196   9.641  70.419  1.00  0.00    -0.348 A  
HETATM    8  C   UNL     1     -10.116   8.253  70.485  1.00  0.00    -0.210 A  
HETATM    9  C   UNL     1     -10.279   7.487  69.330  1.00  0.00    -0.201 A  
ENDBRANCH   2   4
TORSDOF 1
ENDMDL
MODEL      136
REMARK 921   NORMALIZED FREE ENERGY PREDICTED BY IDOCK:   -1.97 KCAL/MOL
REMARK 922        TOTAL FREE ENERGY PREDICTED BY IDOCK:   -2.09 KCAL/MOL
REMARK 923 INTER-LIGAND FREE ENERGY PREDICTED BY IDOCK:   -2.08 KCAL/MOL
REMARK 924 INTRA-LIGAND FREE ENERGY PREDICTED BY IDOCK:   -0.01 KCAL/MOL
REMARK 927      BINDING AFFINITY PREDICTED BY RF-SCORE:    0.00 PKD
ROOT
HETATM    1  O   UNL     1      -8.942   8.777  64.695  1.00  0.00    -0.412 OA 
HETATM    2  C   UNL     1      -9.416   9.095  65.998  1.00  0.00    -0.255 C  
HETATM    3  H   UNL     1      -8.911   9.549  64.143  1.00  0.00     0.000 HD 
ENDROOT
BRANCH   2   4
HETATM    4  C   UNL     1      -9.466   7.870  66.874  1.00  0.00    -0.243 A  
HETATM    5  C   UNL     1     -10.695   7.247  67.132  1.00  0.00    -0.413 A  
HETATM    6  C   UNL     1     -10.759   6.095  67.920  1.00  0.00    -0.374 A  
HETATM    7  C   UNL     1      -9.592   5.546  68.449  1.00  0.00    -0.155 A  
HETATM    8  C   UNL     1      -8.362   6.143  68.185  1.00  0.00    -0.114 A  
HETATM    9  C   UNL     1      -8.298   7.294  67.397  1.00  0.00    -0.119 A  
ENDBRANCH   2   4
TORSDOF 1
ENDMDL
MODEL      137
REMARK 921   NORMALIZED FREE ENERGY PREDICTED BY IDOCK:   -1.94 KCAL/MOL
REMARK 922        TOTAL FREE ENERGY PREDICTED BY IDOCK:   -2.07 KCAL/MOL
REMARK 923 INTER-LIGAND FREE ENERGY PREDICTED BY IDOCK:   -2.06 KCAL/MOL
REMARK 924 INTRA-LIGAND FREE ENERGY PREDICTED BY IDOCK:   -0.01 KCAL/MOL
REMARK 927      BINDING AFFINITY PREDICTED BY RF-SCORE:    0.00 PKD
ROOT
HETATM    1  O   UNL     1     -11.785   6.417  69.907  1.00  0.00    -0.528 OA 
HETATM    2  C   UNL     1     -11.393   7.671  70.452  1.00  0.00    -0.219 C  
HETATM    3  H   UNL     1     -12.096   5.829  70.585  1.00  0.00     0.000 HD 
ENDROOT
BRANCH   2   4
HETATM    4  C   UNL     1     -10.899   8.603  69.377  1.00  0.00    -0.108 A  
HETATM    5  C   UNL     1     -11.119   9.983  69.496  1.00  0.00    -0.279 A  
HETATM    6  C   UNL     1     -10.646  10.866  68.522  1.00  0.00    -0.219 A  
HETATM    7  C   UNL     1      -9.936  10.381  67.425  1.00  0.00    -0.226 A  
HETATM    8  C   UNL     1      -9.694   9.015  67.304  1.00  0.00    -0.232 A  
HETATM    9  C   UNL     1     -10.166   8.132  68.277  1.00  0.00    -0.245 A  
ENDBRANCH   2   4
TORSDOF 1
ENDMDL
MODEL      138
REMARK 921   NORMALIZED FREE ENERGY PREDICTED BY IDOCK:   -1.94 KCAL/MOL
REMARK 922        TOTAL FREE ENERGY PREDICTED BY IDOCK:   -2.07 KCAL/MOL
REMARK 923 INTER-LIGAND FREE ENERGY PREDICTED BY IDOCK:   -2.06 KCAL/MOL
REMARK 924 INTRA-LIGAND FREE ENERGY PREDICTED BY IDOCK:   -0.01 KCAL/MOL
REMARK 927      BINDING AFFINITY PREDICTED BY RF-SCORE:    0.00 PKD
ROOT
HETATM    1  O   UNL     1     -11.905  13.917  67.919  1.00  0.00    -0.343 OA 
HETATM    2  C   UNL     1     -11.741  15.208  67.344  1.00  0.00    -0.175 C  
HETATM    3  H   UNL     1     -12.806  13.625  67.856  1.00  0.00     0.000 HD 
ENDROOT
BRANCH   2   4
HETATM    4  C   UNL     1     -10.312  15.672  67.443  1.00  0.00    -0.275 A  
HETATM    5  C   UNL     1      -9.805  16.110  68.675  1.00  0.00    -0.226 A  
HETATM    6  C   UNL     1      -8.474  16.519  68.794  1.00  0.00    -0.248 A  
HETATM    7  C   UNL     1      -7.631  16.482  67.684  1.00  0.00    -0.165 A  
HETATM    8  C   UNL     1      -8.115  16.031  66.459  1.00  0.00    -0.304 A  
HETATM    9  C   UNL     1      -9.445  15.622  66.340  1.00  0.00    -0.321 A  
ENDBRANCH   2   4
TORSDOF 1
ENDMDL
MODEL      139
REMARK 921   NORMALIZED FREE ENERGY PREDICTED BY IDOCK:   -1.93 KCAL/MOL
REMARK 922        TOTAL FREE ENERGY PREDICTED BY IDOCK:   -2.06 KCAL/MOL
REMARK 923 INTER-LIGAND FREE ENERGY PREDICTED BY IDOCK:   -2.05 KCAL/MOL
REMARK 924 INTRA-LIGAND FREE ENERGY PREDICTED BY IDOCK:   -0.01 KCAL/MOL
REMARK 927      BINDING AFFINITY PREDICTED BY RF-SCORE:    0.00 PKD
ROOT
HETATM    1  O   UNL     1      -8.629   4.654  70.386  1.00  0.00    -0.083 OA 
HETATM    2  C   UNL     1      -9.996   5.033  70.278  1.00  0.00    -0.255 C  
HETATM    3  H   UNL     1      -8.500   4.027  71.088  1.00  0.00     0.000 HD 
ENDROOT
BRANCH   2   4
HETATM    4  C   UNL     1     -10.200   6.026  69.164  1.00  0.00    -0.258 A  
HETATM    5  C   UNL     1     -10.700   5.594  67.927  1.00  0.00    -0.241 A  
HETATM    6  C   UNL     1     -10.922   6.503  66.891  1.00  0.00    -0.408 A  
HETATM    7  C   UNL     1     -10.658   7.859  67.083  1.00  0.00    -0.383 A  
HETATM    8  C   UNL     1     -10.180   8.305  68.312  1.00  0.00    -0.246 A  
HETATM    9  C   UNL     1      -9.959   7.396  69.349  1.00  0.00    -0.176 A  
ENDBRANCH   2   4
TORSDOF 1
ENDMDL
MODEL      140
REMARK 921   NORMALIZED FREE ENERGY PREDICTED BY IDOCK:   -1.92 KCAL/MOL
REMARK 922        TOTAL FREE ENERGY PREDICTED BY IDOCK:   -2.05 KCAL/MOL
REMARK 923 INTER-LIGAND FREE ENERGY PREDICTED BY IDOCK:   -2.03 KCAL/MOL
REMARK 924 INTRA-LIGAND FREE ENERGY PREDICTED BY IDOCK:   -0.02 KCAL/MOL
REMARK 927      BINDING AFFINITY PREDICTED BY RF-SCORE:    0.00 PKD
ROOT
HETATM    1  O   UNL     1      -7.327   6.928  74.020  1.00  0.00    -0.092 OA 
HETATM    2  C   UNL     1      -7.864   6.063  73.027  1.00  0.00    -0.105 C  
HETATM    3  H   UNL     1      -6.454   6.657  74.277  1.00  0.00     0.000 HD 
ENDROOT
BRANCH   2   4
HETATM    4  C   UNL     1      -9.249   6.492  72.620  1.00  0.00    -0.141 A  
HETATM    5  C   UNL     1      -9.824   7.633  73.199  1.00  0.00    -0.337 A  
HETATM    6  C   UNL     1     -11.097   8.063  72.816  1.00  0.00    -0.448 A  
HETATM    7  C   UNL     1     -11.805   7.363  71.840  1.00  0.00    -0.332 A  
HETATM    8  C   UNL     1     -11.239   6.240  71.243  1.00  0.00    -0.355 A  
HETATM    9  C   UNL     1      -9.967   5.811  71.625  1.00  0.00    -0.218 A  
ENDBRANCH   2   4
TORSDOF 1
ENDMDL
MODEL      141
REMARK 921   NORMALIZED FREE ENERGY PREDICTED BY IDOCK:   -1.92 KCAL/MOL
REMARK 922        TOTAL FREE ENERGY PREDICTED BY IDOCK:   -2.04 KCAL/MOL
REMARK 923 INTER-LIGAND FREE ENERGY PREDICTED BY IDOCK:   -2.04 KCAL/MOL
REMARK 924 INTRA-LIGAND FREE ENERGY PREDICTED BY IDOCK:   -0.01 KCAL/MOL
REMARK 927      BINDING AFFINITY PREDICTED BY RF-SCORE:    0.00 PKD
ROOT
HETATM    1  O   UNL     1      -8.368   8.648  72.619  1.00  0.00    -0.378 OA 
HETATM    2  C   UNL     1      -9.715   8.517  72.181  1.00  0.00    -0.317 C  
HETATM    3  H   UNL     1      -8.269   9.384  73.211  1.00  0.00     0.000 HD 
ENDROOT
BRANCH   2   4
HETATM    4  C   UNL     1      -9.872   7.350  71.242  1.00  0.00    -0.182 A  
HETATM    5  C   UNL     1     -10.158   6.076  71.755  1.00  0.00    -0.222 A  
HETATM    6  C   UNL     1     -10.334   4.986  70.898  1.00  0.00    -0.260 A  
HETATM    7  C   UNL     1     -10.238   5.160  69.518  1.00  0.00    -0.318 A  
HETATM    8  C   UNL     1      -9.975   6.423  68.995  1.00  0.00    -0.171 A  
HETATM    9  C   UNL     1      -9.800   7.513  69.850  1.00  0.00    -0.187 A  
ENDBRANCH   2   4
TORSDOF 1
ENDMDL
MODEL      142
REMARK 921   NORMALIZED FREE ENERGY PREDICTED BY IDOCK:   -1.85 KCAL/MOL
REMARK 922        TOTAL FREE ENERGY PREDICTED BY IDOCK:   -1.97 KCAL/MOL
REMARK 923 INTER-LIGAND FREE ENERGY PREDICTED BY IDOCK:   -1.96 KCAL/MOL
REMARK 924 INTRA-LIGAND FREE ENERGY PREDICTED BY IDOCK:   -0.01 KCAL/MOL
REMARK 927      BINDING AFFINITY PREDICTED BY RF-SCORE:    0.00 PKD
ROOT
HETATM    1  O   UNL     1     -12.108   6.727  69.645  1.00  0.00    -0.635 OA 
HETATM    2  C   UNL     1     -11.330   6.299  70.756  1.00  0.00    -0.332 C  
HETATM    3  H   UNL     1     -12.938   6.267  69.609  1.00  0.00     0.000 HD 
ENDROOT
BRANCH   2   4
HETATM    4  C   UNL     1     -10.014   7.029  70.814  1.00  0.00    -0.197 A  
HETATM    5  C   UNL     1      -9.740   7.890  71.887  1.00  0.00    -0.231 A  
HETATM    6  C   UNL     1      -8.515   8.556  71.972  1.00  0.00    -0.231 A  
HETATM    7  C   UNL     1      -7.543   8.358  70.992  1.00  0.00    -0.084 A  
HETATM    8  C   UNL     1      -7.793   7.490  69.932  1.00  0.00    -0.107 A  
HETATM    9  C   UNL     1      -9.018   6.824  69.847  1.00  0.00    -0.144 A  
ENDBRANCH   2   4
TORSDOF 1
ENDMDL
MODEL      143
REMARK 921   NORMALIZED FREE ENERGY PREDICTED BY IDOCK:   -1.85 KCAL/MOL
REMARK 922        TOTAL FREE ENERGY PREDICTED BY IDOCK:   -1.97 KCAL/MOL
REMARK 923 INTER-LIGAND FREE ENERGY PREDICTED BY IDOCK:   -1.96 KCAL/MOL
REMARK 924 INTRA-LIGAND FREE ENERGY PREDICTED BY IDOCK:   -0.01 KCAL/MOL
REMARK 927      BINDING AFFINITY PREDICTED BY RF-SCORE:    0.00 PKD
ROOT
HETATM    1  O   UNL     1      -9.415   7.512  68.278  1.00  0.00    -0.144 OA 
HETATM    2  C   UNL     1      -8.780   6.893  69.390  1.00  0.00    -0.133 C  
HETATM    3  H   UNL     1      -8.900   7.411  67.487  1.00  0.00     0.000 HD 
ENDROOT
BRANCH   2   4
HETATM    4  C   UNL     1      -9.597   7.053  70.645  1.00  0.00    -0.165 A  
HETATM    5  C   UNL     1     -10.088   8.317  71.000  1.00  0.00    -0.230 A  
HETATM    6  C   UNL     1     -10.871   8.482  72.146  1.00  0.00    -0.427 A  
HETATM    7  C   UNL     1     -11.181   7.381  72.943  1.00  0.00    -0.368 A  
HETATM    8  C   UNL     1     -10.717   6.116  72.591  1.00  0.00    -0.261 A  
HETATM    9  C   UNL     1      -9.935   5.952  71.446  1.00  0.00    -0.228 A  
ENDBRANCH   2   4
TORSDOF 1
ENDMDL
MODEL      144
REMARK 921   NORMALIZED FREE ENERGY PREDICTED BY IDOCK:   -1.81 KCAL/MOL
REMARK 922        TOTAL FREE ENERGY PREDICTED BY IDOCK:   -1.93 KCAL/MOL
REMARK 923 INTER-LIGAND FREE ENERGY PREDICTED BY IDOCK:   -1.92 KCAL/MOL
REMARK 924 INTRA-LIGAND FREE ENERGY PREDICTED BY IDOCK:   -0.01 KCAL/MOL
REMARK 927      BINDING AFFINITY PREDICTED BY RF-SCORE:    0.00 PKD
ROOT
HETATM    1  O   UNL     1      -8.472   4.489  72.826  1.00  0.00    -0.110 OA 
HETATM    2  C   UNL     1      -9.056   4.451  71.529  1.00  0.00    -0.131 C  
HETATM    3  H   UNL     1      -7.839   3.790  72.939  1.00  0.00     0.000 HD 
ENDROOT
BRANCH   2   4
HETATM    4  C   UNL     1     -10.059   5.560  71.350  1.00  0.00    -0.258 A  
HETATM    5  C   UNL     1     -11.039   5.779  72.329  1.00  0.00    -0.330 A  
HETATM    6  C   UNL     1     -11.962   6.820  72.193  1.00  0.00    -0.309 A  
HETATM    7  C   UNL     1     -11.907   7.661  71.083  1.00  0.00    -0.314 A  
HETATM    8  C   UNL     1     -10.927   7.467  70.113  1.00  0.00    -0.267 A  
HETATM    9  C   UNL     1     -10.004   6.428  70.249  1.00  0.00    -0.199 A  
ENDBRANCH   2   4
TORSDOF 1
ENDMDL
MODEL      145
REMARK 921   NORMALIZED FREE ENERGY PREDICTED BY IDOCK:   -1.81 KCAL/MOL
REMARK 922        TOTAL FREE ENERGY PREDICTED BY IDOCK:   -1.93 KCAL/MOL
REMARK 923 INTER-LIGAND FREE ENERGY PREDICTED BY IDOCK:   -1.92 KCAL/MOL
REMARK 924 INTRA-LIGAND FREE ENERGY PREDICTED BY IDOCK:   -0.01 KCAL/MOL
REMARK 927      BINDING AFFINITY PREDICTED BY RF-SCORE:    0.00 PKD
ROOT
HETATM    1  O   UNL     1      -9.111  10.044  62.963  1.00  0.00    -0.241 OA 
HETATM    2  C   UNL     1      -9.984  10.926  63.657  1.00  0.00    -0.359 C  
HETATM    3  H   UNL     1      -9.249  10.090  62.024  1.00  0.00     0.000 HD 
ENDROOT
BRANCH   2   4
HETATM    4  C   UNL     1      -9.764  10.852  65.145  1.00  0.00    -0.312 A  
HETATM    5  C   UNL     1     -10.072   9.673  65.838  1.00  0.00    -0.304 A  
HETATM    6  C   UNL     1      -9.851   9.575  67.214  1.00  0.00    -0.228 A  
HETATM    7  C   UNL     1      -9.306  10.653  67.911  1.00  0.00    -0.154 A  
HETATM    8  C   UNL     1      -8.977  11.824  67.232  1.00  0.00    -0.172 A  
HETATM    9  C   UNL     1      -9.198  11.921  65.857  1.00  0.00    -0.147 A  
ENDBRANCH   2   4
TORSDOF 1
ENDMDL
MODEL      146
REMARK 921   NORMALIZED FREE ENERGY PREDICTED BY IDOCK:   -1.81 KCAL/MOL
REMARK 922        TOTAL FREE ENERGY PREDICTED BY IDOCK:   -1.93 KCAL/MOL
REMARK 923 INTER-LIGAND FREE ENERGY PREDICTED BY IDOCK:   -1.91 KCAL/MOL
REMARK 924 INTRA-LIGAND FREE ENERGY PREDICTED BY IDOCK:   -0.01 KCAL/MOL
REMARK 927      BINDING AFFINITY PREDICTED BY RF-SCORE:    0.00 PKD
ROOT
HETATM    1  O   UNL     1      -8.398   4.645  72.875  1.00  0.00    -0.099 OA 
HETATM    2  C   UNL     1      -8.717   5.135  71.579  1.00  0.00    -0.133 C  
HETATM    3  H   UNL     1      -7.969   3.799  72.827  1.00  0.00     0.000 HD 
ENDROOT
BRANCH   2   4
HETATM    4  C   UNL     1      -9.398   6.476  71.654  1.00  0.00    -0.147 A  
HETATM    5  C   UNL     1      -9.046   7.488  70.750  1.00  0.00    -0.154 A  
HETATM    6  C   UNL     1      -9.685   8.731  70.787  1.00  0.00    -0.257 A  
HETATM    7  C   UNL     1     -10.691   8.970  71.721  1.00  0.00    -0.437 A  
HETATM    8  C   UNL     1     -11.064   7.968  72.613  1.00  0.00    -0.453 A  
HETATM    9  C   UNL     1     -10.426   6.726  72.575  1.00  0.00    -0.235 A  
ENDBRANCH   2   4
TORSDOF 1
ENDMDL
MODEL      147
REMARK 921   NORMALIZED FREE ENERGY PREDICTED BY IDOCK:   -1.80 KCAL/MOL
REMARK 922        TOTAL FREE ENERGY PREDICTED BY IDOCK:   -1.92 KCAL/MOL
REMARK 923 INTER-LIGAND FREE ENERGY PREDICTED BY IDOCK:   -1.91 KCAL/MOL
REMARK 924 INTRA-LIGAND FREE ENERGY PREDICTED BY IDOCK:   -0.01 KCAL/MOL
REMARK 927      BINDING AFFINITY PREDICTED BY RF-SCORE:    0.00 PKD
ROOT
HETATM    1  O   UNL     1     -11.207   5.844  66.628  1.00  0.00    -0.664 OA 
HETATM    2  C   UNL     1     -11.094   7.167  67.139  1.00  0.00    -0.150 C  
HETATM    3  H   UNL     1     -11.966   5.401  66.988  1.00  0.00     0.000 HD 
ENDROOT
BRANCH   2   4
HETATM    4  C   UNL     1      -9.890   7.870  66.568  1.00  0.00    -0.272 A  
HETATM    5  C   UNL     1     -10.004   9.195  66.121  1.00  0.00    -0.338 A  
HETATM    6  C   UNL     1      -8.894   9.874  65.613  1.00  0.00    -0.184 A  
HETATM    7  C   UNL     1      -7.653   9.240  65.558  1.00  0.00    -0.091 A  
HETATM    8  C   UNL     1      -7.521   7.932  66.017  1.00  0.00    -0.078 A  
HETATM    9  C   UNL     1      -8.631   7.253  66.525  1.00  0.00    -0.134 A  
ENDBRANCH   2   4
TORSDOF 1
ENDMDL
MODEL      148
REMARK 921   NORMALIZED FREE ENERGY PREDICTED BY IDOCK:   -1.77 KCAL/MOL
REMARK 922        TOTAL FREE ENERGY PREDICTED BY IDOCK:   -1.88 KCAL/MOL
REMARK 923 INTER-LIGAND FREE ENERGY PREDICTED BY IDOCK:   -1.87 KCAL/MOL
REMARK 924 INTRA-LIGAND FREE ENERGY PREDICTED BY IDOCK:   -0.01 KCAL/MOL
REMARK 927      BINDING AFFINITY PREDICTED BY RF-SCORE:    0.00 PKD
ROOT
HETATM    1  O   UNL     1      -8.721   6.001  63.865  1.00  0.00    -0.339 OA 
HETATM    2  C   UNL     1      -8.066   6.282  65.096  1.00  0.00    -0.130 C  
HETATM    3  H   UNL     1      -8.103   5.974  63.145  1.00  0.00     0.000 HD 
ENDROOT
BRANCH   2   4
HETATM    4  C   UNL     1      -9.046   6.324  66.239  1.00  0.00    -0.166 A  
HETATM    5  C   UNL     1      -9.790   7.489  66.476  1.00  0.00    -0.226 A  
HETATM    6  C   UNL     1     -10.724   7.539  67.514  1.00  0.00    -0.296 A  
HETATM    7  C   UNL     1     -10.933   6.421  68.320  1.00  0.00    -0.396 A  
HETATM    8  C   UNL     1     -10.215   5.251  68.083  1.00  0.00    -0.204 A  
HETATM    9  C   UNL     1      -9.283   5.200  67.045  1.00  0.00    -0.117 A  
ENDBRANCH   2   4
TORSDOF 1
ENDMDL
MODEL      149
REMARK 921   NORMALIZED FREE ENERGY PREDICTED BY IDOCK:   -1.76 KCAL/MOL
REMARK 922        TOTAL FREE ENERGY PREDICTED BY IDOCK:   -1.88 KCAL/MOL
REMARK 923 INTER-LIGAND FREE ENERGY PREDICTED BY IDOCK:   -1.87 KCAL/MOL
REMARK 924 INTRA-LIGAND FREE ENERGY PREDICTED BY IDOCK:   -0.01 KCAL/MOL
REMARK 927      BINDING AFFINITY PREDICTED BY RF-SCORE:    0.00 PKD
ROOT
HETATM    1  O   UNL     1     -10.021  11.913  69.321  1.00  0.00    -0.405 OA 
HETATM    2  C   UNL     1     -10.288  12.318  67.983  1.00  0.00    -0.214 C  
HETATM    3  H   UNL     1     -10.519  12.431  69.942  1.00  0.00     0.000 HD 
ENDROOT
BRANCH   2   4
HETATM    4  C   UNL     1      -9.498  11.498  66.997  1.00  0.00    -0.193 A  
HETATM    5  C   UNL     1     -10.169  10.716  66.046  1.00  0.00    -0.309 A  
HETATM    6  C   UNL     1      -9.455   9.969  65.106  1.00  0.00    -0.331 A  
HETATM    7  C   UNL     1      -8.061  10.005  65.099  1.00  0.00    -0.144 A  
HETATM    8  C   UNL     1      -7.383  10.792  66.025  1.00  0.00    -0.114 A  
HETATM    9  C   UNL     1      -8.096  11.539  66.964  1.00  0.00    -0.161 A  
ENDBRANCH   2   4
TORSDOF 1
ENDMDL
MODEL      150
REMARK 921   NORMALIZED FREE ENERGY PREDICTED BY IDOCK:   -1.76 KCAL/MOL
REMARK 922        TOTAL FREE ENERGY PREDICTED BY IDOCK:   -1.87 KCAL/MOL
REMARK 923 INTER-LIGAND FREE ENERGY PREDICTED BY IDOCK:   -1.86 KCAL/MOL
REMARK 924 INTRA-LIGAND FREE ENERGY PREDICTED BY IDOCK:   -0.01 KCAL/MOL
REMARK 927      BINDING AFFINITY PREDICTED BY RF-SCORE:    0.00 PKD
ROOT
HETATM    1  O   UNL     1      -9.659  12.544  67.443  1.00  0.00    -0.186 OA 
HETATM    2  C   UNL     1      -9.241  11.191  67.313  1.00  0.00    -0.160 C  
HETATM    3  H   UNL     1      -9.714  12.801  68.356  1.00  0.00     0.000 HD 
ENDROOT
BRANCH   2   4
HETATM    4  C   UNL     1      -9.154  10.784  65.865  1.00  0.00    -0.208 A  
HETATM    5  C   UNL     1      -8.246   9.789  65.474  1.00  0.00    -0.129 A  
HETATM    6  C   UNL     1      -8.169   9.378  64.141  1.00  0.00    -0.158 A  
HETATM    7  C   UNL     1      -9.008   9.950  63.185  1.00  0.00    -0.275 A  
HETATM    8  C   UNL     1      -9.928  10.925  63.563  1.00  0.00    -0.419 A  
HETATM    9  C   UNL     1     -10.005  11.335  64.895  1.00  0.00    -0.323 A  
ENDBRANCH   2   4
TORSDOF 1
ENDMDL
MODEL      151
REMARK 921   NORMALIZED FREE ENERGY PREDICTED BY IDOCK:   -1.74 KCAL/MOL
REMARK 922        TOTAL FREE ENERGY PREDICTED BY IDOCK:   -1.86 KCAL/MOL
REMARK 923 INTER-LIGAND FREE ENERGY PREDICTED BY IDOCK:   -1.85 KCAL/MOL
REMARK 924 INTRA-LIGAND FREE ENERGY PREDICTED BY IDOCK:   -0.01 KCAL/MOL
REMARK 927      BINDING AFFINITY PREDICTED BY RF-SCORE:    0.00 PKD
ROOT
HETATM    1  O   UNL     1     -10.583   8.185  68.193  1.00  0.00    -0.338 OA 
HETATM    2  C   UNL     1     -10.597   9.284  69.096  1.00  0.00    -0.212 C  
HETATM    3  H   UNL     1     -10.819   7.376  68.631  1.00  0.00     0.000 HD 
ENDROOT
BRANCH   2   4
HETATM    4  C   UNL     1     -10.223  10.566  68.400  1.00  0.00    -0.192 A  
HETATM    5  C   UNL     1     -11.191  11.562  68.207  1.00  0.00    -0.322 A  
HETATM    6  C   UNL     1     -10.857  12.770  67.588  1.00  0.00    -0.252 A  
HETATM    7  C   UNL     1      -9.548  12.999  67.166  1.00  0.00    -0.230 A  
HETATM    8  C   UNL     1      -8.573  12.027  67.370  1.00  0.00    -0.171 A  
HETATM    9  C   UNL     1      -8.906  10.821  67.989  1.00  0.00    -0.132 A  
ENDBRANCH   2   4
TORSDOF 1
ENDMDL
MODEL      152
REMARK 921   NORMALIZED FREE ENERGY PREDICTED BY IDOCK:   -1.74 KCAL/MOL
REMARK 922        TOTAL FREE ENERGY PREDICTED BY IDOCK:   -1.85 KCAL/MOL
REMARK 923 INTER-LIGAND FREE ENERGY PREDICTED BY IDOCK:   -1.84 KCAL/MOL
REMARK 924 INTRA-LIGAND FREE ENERGY PREDICTED BY IDOCK:   -0.01 KCAL/MOL
REMARK 927      BINDING AFFINITY PREDICTED BY RF-SCORE:    0.00 PKD
ROOT
HETATM    1  O   UNL     1      -6.954   6.265  68.736  1.00  0.00    -0.070 OA 
HETATM    2  C   UNL     1      -7.655   5.183  69.337  1.00  0.00    -0.061 C  
HETATM    3  H   UNL     1      -6.071   6.011  68.494  1.00  0.00     0.000 HD 
ENDROOT
BRANCH   2   4
HETATM    4  C   UNL     1      -9.054   5.586  69.722  1.00  0.00    -0.157 A  
HETATM    5  C   UNL     1      -9.441   5.561  71.069  1.00  0.00    -0.203 A  
HETATM    6  C   UNL     1     -10.727   5.957  71.449  1.00  0.00    -0.319 A  
HETATM    7  C   UNL     1     -11.635   6.393  70.486  1.00  0.00    -0.424 A  
HETATM    8  C   UNL     1     -11.258   6.442  69.147  1.00  0.00    -0.421 A  
HETATM    9  C   UNL     1      -9.974   6.047  68.767  1.00  0.00    -0.186 A  
ENDBRANCH   2   4
TORSDOF 1
ENDMDL
MODEL      153
REMARK 921   NORMALIZED FREE ENERGY PREDICTED BY IDOCK:   -1.74 KCAL/MOL
REMARK 922        TOTAL FREE ENERGY PREDICTED BY IDOCK:   -1.85 KCAL/MOL
REMARK 923 INTER-LIGAND FREE ENERGY PREDICTED BY IDOCK:   -1.83 KCAL/MOL
REMARK 924 INTRA-LIGAND FREE ENERGY PREDICTED BY IDOCK:   -0.02 KCAL/MOL
REMARK 927      BINDING AFFINITY PREDICTED BY RF-SCORE:    0.00 PKD
ROOT
HETATM    1  O   UNL     1     -11.641   6.708  67.318  1.00  0.00    -0.747 OA 
HETATM    2  C   UNL     1     -10.423   7.307  66.890  1.00  0.00    -0.299 C  
HETATM    3  H   UNL     1     -12.274   7.366  67.580  1.00  0.00     0.000 HD 
ENDROOT
BRANCH   2   4
HETATM    4  C   UNL     1      -9.419   6.264  66.475  1.00  0.00    -0.181 A  
HETATM    5  C   UNL     1      -8.057   6.593  66.416  1.00  0.00    -0.113 A  
HETATM    6  C   UNL     1      -7.107   5.632  66.058  1.00  0.00    -0.068 A  
HETATM    7  C   UNL     1      -7.507   4.329  65.768  1.00  0.00    -0.081 A  
HETATM    8  C   UNL     1      -8.854   3.984  65.842  1.00  0.00    -0.123 A  
HETATM    9  C   UNL     1      -9.804   4.943  66.199  1.00  0.00    -0.222 A  
ENDBRANCH   2   4
TORSDOF 1
ENDMDL
MODEL      154
REMARK 921   NORMALIZED FREE ENERGY PREDICTED BY IDOCK:   -1.72 KCAL/MOL
REMARK 922        TOTAL FREE ENERGY PREDICTED BY IDOCK:   -1.83 KCAL/MOL
REMARK 923 INTER-LIGAND FREE ENERGY PREDICTED BY IDOCK:   -1.82 KCAL/MOL
REMARK 924 INTRA-LIGAND FREE ENERGY PREDICTED BY IDOCK:   -0.01 KCAL/MOL
REMARK 927      BINDING AFFINITY PREDICTED BY RF-SCORE:    0.00 PKD
ROOT
HETATM    1  O   UNL     1      -9.925   2.167  64.313  1.00  0.00    -0.278 OA 
HETATM    2  C   UNL     1      -8.910   2.577  65.221  1.00  0.00    -0.121 C  
HETATM    3  H   UNL     1      -9.597   1.519  63.701  1.00  0.00     0.000 HD 
ENDROOT
BRANCH   2   4
HETATM    4  C   UNL     1      -9.429   3.606  66.191  1.00  0.00    -0.171 A  
HETATM    5  C   UNL     1      -9.002   3.584  67.527  1.00  0.00    -0.170 A  
HETATM    6  C   UNL     1      -9.451   4.545  68.435  1.00  0.00    -0.209 A  
HETATM    7  C   UNL     1     -10.324   5.548  68.015  1.00  0.00    -0.237 A  
HETATM    8  C   UNL     1     -10.741   5.594  66.687  1.00  0.00    -0.339 A  
HETATM    9  C   UNL     1     -10.291   4.634  65.779  1.00  0.00    -0.295 A  
ENDBRANCH   2   4
TORSDOF 1
ENDMDL
MODEL      155
REMARK 921   NORMALIZED FREE ENERGY PREDICTED BY IDOCK:   -1.71 KCAL/MOL
REMARK 922        TOTAL FREE ENERGY PREDICTED BY IDOCK:   -1.82 KCAL/MOL
REMARK 923 INTER-LIGAND FREE ENERGY PREDICTED BY IDOCK:   -1.81 KCAL/MOL
REMARK 924 INTRA-LIGAND FREE ENERGY PREDICTED BY IDOCK:   -0.01 KCAL/MOL
REMARK 927      BINDING AFFINITY PREDICTED BY RF-SCORE:    0.00 PKD
ROOT
HETATM    1  O   UNL     1      -9.772   8.102  65.867  1.00  0.00    -0.453 OA 
HETATM    2  C   UNL     1     -10.201   8.707  67.081  1.00  0.00    -0.283 C  
HETATM    3  H   UNL     1     -10.023   8.625  65.115  1.00  0.00     0.000 HD 
ENDROOT
BRANCH   2   4
HETATM    4  C   UNL     1      -9.804   7.877  68.273  1.00  0.00    -0.187 A  
HETATM    5  C   UNL     1     -10.776   7.138  68.964  1.00  0.00    -0.204 A  
HETATM    6  C   UNL     1     -10.423   6.342  70.056  1.00  0.00    -0.274 A  
HETATM    7  C   UNL     1      -9.092   6.265  70.463  1.00  0.00    -0.157 A  
HETATM    8  C   UNL     1      -8.114   6.978  69.775  1.00  0.00    -0.126 A  
HETATM    9  C   UNL     1      -8.466   7.773  68.683  1.00  0.00    -0.129 A  
ENDBRANCH   2   4
TORSDOF 1
ENDMDL
MODEL      156
REMARK 921   NORMALIZED FREE ENERGY PREDICTED BY IDOCK:   -1.68 KCAL/MOL
REMARK 922        TOTAL FREE ENERGY PREDICTED BY IDOCK:   -1.79 KCAL/MOL
REMARK 923 INTER-LIGAND FREE ENERGY PREDICTED BY IDOCK:   -1.78 KCAL/MOL
REMARK 924 INTRA-LIGAND FREE ENERGY PREDICTED BY IDOCK:   -0.01 KCAL/MOL
REMARK 927      BINDING AFFINITY PREDICTED BY RF-SCORE:    0.00 PKD
ROOT
HETATM    1  O   UNL     1      -9.372   7.362  72.252  1.00  0.00    -0.139 OA 
HETATM    2  C   UNL     1      -8.516   7.436  71.118  1.00  0.00    -0.118 C  
HETATM    3  H   UNL     1      -8.884   7.471  73.059  1.00  0.00     0.000 HD 
ENDROOT
BRANCH   2   4
HETATM    4  C   UNL     1      -9.290   7.262  69.838  1.00  0.00    -0.154 A  
HETATM    5  C   UNL     1     -10.319   6.312  69.769  1.00  0.00    -0.260 A  
HETATM    6  C   UNL     1     -11.066   6.155  68.599  1.00  0.00    -0.378 A  
HETATM    7  C   UNL     1     -10.801   6.954  67.488  1.00  0.00    -0.363 A  
HETATM    8  C   UNL     1      -9.795   7.915  67.549  1.00  0.00    -0.221 A  
HETATM    9  C   UNL     1      -9.049   8.073  68.718  1.00  0.00    -0.144 A  
ENDBRANCH   2   4
TORSDOF 1
ENDMDL
MODEL      157
REMARK 921   NORMALIZED FREE ENERGY PREDICTED BY IDOCK:   -1.62 KCAL/MOL
REMARK 922        TOTAL FREE ENERGY PREDICTED BY IDOCK:   -1.73 KCAL/MOL
REMARK 923 INTER-LIGAND FREE ENERGY PREDICTED BY IDOCK:   -1.72 KCAL/MOL
REMARK 924 INTRA-LIGAND FREE ENERGY PREDICTED BY IDOCK:   -0.01 KCAL/MOL
REMARK 927      BINDING AFFINITY PREDICTED BY RF-SCORE:    0.00 PKD
ROOT
HETATM    1  O   UNL     1      -6.981   7.468  69.859  1.00  0.00    -0.056 OA 
HETATM    2  C   UNL     1      -8.244   6.986  70.303  1.00  0.00    -0.128 C  
HETATM    3  H   UNL     1      -6.355   7.498  70.572  1.00  0.00     0.000 HD 
ENDROOT
BRANCH   2   4
HETATM    4  C   UNL     1      -9.238   6.938  69.173  1.00  0.00    -0.141 A  
HETATM    5  C   UNL     1      -9.421   8.065  68.357  1.00  0.00    -0.148 A  
HETATM    6  C   UNL     1     -10.319   8.031  67.287  1.00  0.00    -0.371 A  
HETATM    7  C   UNL     1     -11.035   6.867  67.012  1.00  0.00    -0.404 A  
HETATM    8  C   UNL     1     -10.848   5.735  67.802  1.00  0.00    -0.259 A  
HETATM    9  C   UNL     1      -9.950   5.768  68.870  1.00  0.00    -0.211 A  
ENDBRANCH   2   4
TORSDOF 1
ENDMDL
MODEL      158
REMARK 921   NORMALIZED FREE ENERGY PREDICTED BY IDOCK:   -1.61 KCAL/MOL
REMARK 922        TOTAL FREE ENERGY PREDICTED BY IDOCK:   -1.72 KCAL/MOL
REMARK 923 INTER-LIGAND FREE ENERGY PREDICTED BY IDOCK:   -1.71 KCAL/MOL
REMARK 924 INTRA-LIGAND FREE ENERGY PREDICTED BY IDOCK:   -0.01 KCAL/MOL
REMARK 927      BINDING AFFINITY PREDICTED BY RF-SCORE:    0.00 PKD
ROOT
HETATM    1  O   UNL     1      -6.358  13.991  68.501  1.00  0.00    -0.081 OA 
HETATM    2  C   UNL     1      -7.668  14.487  68.749  1.00  0.00    -0.140 C  
HETATM    3  H   UNL     1      -6.230  13.140  68.904  1.00  0.00     0.000 HD 
ENDROOT
BRANCH   2   4
HETATM    4  C   UNL     1      -7.870  15.836  68.110  1.00  0.00    -0.133 A  
HETATM    5  C   UNL     1      -8.202  16.942  68.906  1.00  0.00    -0.218 A  
HETATM    6  C   UNL     1      -8.367  18.206  68.336  1.00  0.00    -0.311 A  
HETATM    7  C   UNL     1      -8.191  18.382  66.964  1.00  0.00    -0.253 A  
HETATM    8  C   UNL     1      -7.842  17.297  66.165  1.00  0.00    -0.305 A  
HETATM    9  C   UNL     1      -7.675  16.033  66.734  1.00  0.00    -0.270 A  
ENDBRANCH   2   4
TORSDOF 1
ENDMDL
MODEL      159
REMARK 921   NORMALIZED FREE ENERGY PREDICTED BY IDOCK:   -1.61 KCAL/MOL
REMARK 922        TOTAL FREE ENERGY PREDICTED BY IDOCK:   -1.72 KCAL/MOL
REMARK 923 INTER-LIGAND FREE ENERGY PREDICTED BY IDOCK:   -1.70 KCAL/MOL
REMARK 924 INTRA-LIGAND FREE ENERGY PREDICTED BY IDOCK:   -0.02 KCAL/MOL
REMARK 927      BINDING AFFINITY PREDICTED BY RF-SCORE:    0.00 PKD
ROOT
HETATM    1  O   UNL     1      -9.730   6.168  73.467  1.00  0.00    -0.153 OA 
HETATM    2  C   UNL     1      -9.177   5.000  72.873  1.00  0.00    -0.134 C  
HETATM    3  H   UNL     1      -9.549   6.198  74.399  1.00  0.00     0.000 HD 
ENDROOT
BRANCH   2   4
HETATM    4  C   UNL     1      -9.464   4.952  71.395  1.00  0.00    -0.212 A  
HETATM    5  C   UNL     1     -10.448   5.788  70.848  1.00  0.00    -0.317 A  
HETATM    6  C   UNL     1     -10.711   5.778  69.476  1.00  0.00    -0.408 A  
HETATM    7  C   UNL     1      -9.983   4.939  68.633  1.00  0.00    -0.195 A  
HETATM    8  C   UNL     1      -8.990   4.117  69.160  1.00  0.00    -0.164 A  
HETATM    9  C   UNL     1      -8.727   4.128  70.531  1.00  0.00    -0.121 A  
ENDBRANCH   2   4
TORSDOF 1
ENDMDL
MODEL      160
REMARK 921   NORMALIZED FREE ENERGY PREDICTED BY IDOCK:   -1.61 KCAL/MOL
REMARK 922        TOTAL FREE ENERGY PREDICTED BY IDOCK:   -1.72 KCAL/MOL
REMARK 923 INTER-LIGAND FREE ENERGY PREDICTED BY IDOCK:   -1.70 KCAL/MOL
REMARK 924 INTRA-LIGAND FREE ENERGY PREDICTED BY IDOCK:   -0.01 KCAL/MOL
REMARK 927      BINDING AFFINITY PREDICTED BY RF-SCORE:    0.00 PKD
ROOT
HETATM    1  O   UNL     1      -6.261   7.828  74.138  1.00  0.00    -0.081 OA 
HETATM    2  C   UNL     1      -6.818   7.906  72.832  1.00  0.00    -0.082 C  
HETATM    3  H   UNL     1      -5.334   8.032  74.130  1.00  0.00     0.000 HD 
ENDROOT
BRANCH   2   4
HETATM    4  C   UNL     1      -8.288   7.581  72.845  1.00  0.00    -0.154 A  
HETATM    5  C   UNL     1      -8.725   6.343  73.338  1.00  0.00    -0.129 A  
HETATM    6  C   UNL     1     -10.087   6.034  73.384  1.00  0.00    -0.205 A  
HETATM    7  C   UNL     1     -11.029   6.965  72.948  1.00  0.00    -0.315 A  
HETATM    8  C   UNL     1     -10.611   8.206  72.474  1.00  0.00    -0.411 A  
HETATM    9  C   UNL     1      -9.250   8.515  72.429  1.00  0.00    -0.328 A  
ENDBRANCH   2   4
TORSDOF 1
ENDMDL
MODEL      161
REMARK 921   NORMALIZED FREE ENERGY PREDICTED BY IDOCK:   -1.61 KCAL/MOL
REMARK 922        TOTAL FREE ENERGY PREDICTED BY IDOCK:   -1.71 KCAL/MOL
REMARK 923 INTER-LIGAND FREE ENERGY PREDICTED BY IDOCK:   -1.70 KCAL/MOL
REMARK 924 INTRA-LIGAND FREE ENERGY PREDICTED BY IDOCK:   -0.01 KCAL/MOL
REMARK 927      BINDING AFFINITY PREDICTED BY RF-SCORE:    0.00 PKD
ROOT
HETATM    1  O   UNL     1      -5.346  14.775  68.446  1.00  0.00    -0.097 OA 
HETATM    2  C   UNL     1      -6.437  15.292  69.198  1.00  0.00    -0.122 C  
HETATM    3  H   UNL     1      -5.178  13.866  68.664  1.00  0.00     0.000 HD 
ENDROOT
BRANCH   2   4
HETATM    4  C   UNL     1      -6.704  16.733  68.853  1.00  0.00    -0.195 A  
HETATM    5  C   UNL     1      -5.630  17.619  68.678  1.00  0.00    -0.156 A  
HETATM    6  C   UNL     1      -5.856  18.953  68.331  1.00  0.00    -0.217 A  
HETATM    7  C   UNL     1      -7.158  19.415  68.142  1.00  0.00    -0.310 A  
HETATM    8  C   UNL     1      -8.232  18.542  68.293  1.00  0.00    -0.336 A  
HETATM    9  C   UNL     1      -8.007  17.208  68.639  1.00  0.00    -0.265 A  
ENDBRANCH   2   4
TORSDOF 1
ENDMDL
MODEL      162
REMARK 921   NORMALIZED FREE ENERGY PREDICTED BY IDOCK:   -1.59 KCAL/MOL
REMARK 922        TOTAL FREE ENERGY PREDICTED BY IDOCK:   -1.70 KCAL/MOL
REMARK 923 INTER-LIGAND FREE ENERGY PREDICTED BY IDOCK:   -1.69 KCAL/MOL
REMARK 924 INTRA-LIGAND FREE ENERGY PREDICTED BY IDOCK:   -0.01 KCAL/MOL
REMARK 927      BINDING AFFINITY PREDICTED BY RF-SCORE:    0.00 PKD
ROOT
HETATM    1  O   UNL     1     -11.580   6.911  69.001  1.00  0.00    -0.548 OA 
HETATM    2  C   UNL     1     -10.775   5.884  69.567  1.00  0.00    -0.343 C  
HETATM    3  H   UNL     1     -12.270   7.175  69.598  1.00  0.00     0.000 HD 
ENDROOT
BRANCH   2   4
HETATM    4  C   UNL     1      -9.680   5.466  68.621  1.00  0.00    -0.187 A  
HETATM    5  C   UNL     1      -9.642   4.151  68.136  1.00  0.00    -0.195 A  
HETATM    6  C   UNL     1      -8.650   3.750  67.237  1.00  0.00    -0.110 A  
HETATM    7  C   UNL     1      -7.691   4.665  66.804  1.00  0.00    -0.095 A  
HETATM    8  C   UNL     1      -7.728   5.979  67.262  1.00  0.00    -0.097 A  
HETATM    9  C   UNL     1      -8.720   6.379  68.159  1.00  0.00    -0.116 A  
ENDBRANCH   2   4
TORSDOF 1
ENDMDL
MODEL      163
REMARK 921   NORMALIZED FREE ENERGY PREDICTED BY IDOCK:   -1.59 KCAL/MOL
REMARK 922        TOTAL FREE ENERGY PREDICTED BY IDOCK:   -1.70 KCAL/MOL
REMARK 923 INTER-LIGAND FREE ENERGY PREDICTED BY IDOCK:   -1.68 KCAL/MOL
REMARK 924 INTRA-LIGAND FREE ENERGY PREDICTED BY IDOCK:   -0.01 KCAL/MOL
REMARK 927      BINDING AFFINITY PREDICTED BY RF-SCORE:    0.00 PKD
ROOT
HETATM    1  O   UNL     1      -7.983   8.707  73.013  1.00  0.00    -0.387 OA 
HETATM    2  C   UNL     1      -7.889   7.542  72.202  1.00  0.00    -0.093 C  
HETATM    3  H   UNL     1      -7.241   9.284  72.873  1.00  0.00     0.000 HD 
ENDROOT
BRANCH   2   4
HETATM    4  C   UNL     1      -9.065   6.628  72.423  1.00  0.00    -0.139 A  
HETATM    5  C   UNL     1     -10.360   7.161  72.497  1.00  0.00    -0.237 A  
HETATM    6  C   UNL     1     -11.466   6.327  72.675  1.00  0.00    -0.255 A  
HETATM    7  C   UNL     1     -11.291   4.947  72.769  1.00  0.00    -0.229 A  
HETATM    8  C   UNL     1     -10.013   4.401  72.678  1.00  0.00    -0.217 A  
HETATM    9  C   UNL     1      -8.907   5.235  72.500  1.00  0.00    -0.127 A  
ENDBRANCH   2   4
TORSDOF 1
ENDMDL
MODEL      164
REMARK 921   NORMALIZED FREE ENERGY PREDICTED BY IDOCK:   -1.56 KCAL/MOL
REMARK 922        TOTAL FREE ENERGY PREDICTED BY IDOCK:   -1.67 KCAL/MOL
REMARK 923 INTER-LIGAND FREE ENERGY PREDICTED BY IDOCK:   -1.66 KCAL/MOL
REMARK 924 INTRA-LIGAND FREE ENERGY PREDICTED BY IDOCK:   -0.01 KCAL/MOL
REMARK 927      BINDING AFFINITY PREDICTED BY RF-SCORE:    0.00 PKD
ROOT
HETATM    1  O   UNL     1     -10.777  16.656  67.088  1.00  0.00    -0.294 OA 
HETATM    2  C   UNL     1     -10.980  15.582  67.999  1.00  0.00    -0.311 C  
HETATM    3  H   UNL     1     -11.576  17.154  66.960  1.00  0.00     0.000 HD 
ENDROOT
BRANCH   2   4
HETATM    4  C   UNL     1      -9.714  14.793  68.202  1.00  0.00    -0.217 A  
HETATM    5  C   UNL     1      -8.621  15.383  68.852  1.00  0.00    -0.207 A  
HETATM    6  C   UNL     1      -7.447  14.659  69.074  1.00  0.00    -0.136 A  
HETATM    7  C   UNL     1      -7.357  13.331  68.658  1.00  0.00    -0.101 A  
HETATM    8  C   UNL     1      -8.441  12.726  68.028  1.00  0.00    -0.177 A  
HETATM    9  C   UNL     1      -9.615  13.450  67.808  1.00  0.00    -0.213 A  
ENDBRANCH   2   4
TORSDOF 1
ENDMDL
MODEL      165
REMARK 921   NORMALIZED FREE ENERGY PREDICTED BY IDOCK:   -1.55 KCAL/MOL
REMARK 922        TOTAL FREE ENERGY PREDICTED BY IDOCK:   -1.65 KCAL/MOL
REMARK 923 INTER-LIGAND FREE ENERGY PREDICTED BY IDOCK:   -1.63 KCAL/MOL
REMARK 924 INTRA-LIGAND FREE ENERGY PREDICTED BY IDOCK:   -0.02 KCAL/MOL
REMARK 927      BINDING AFFINITY PREDICTED BY RF-SCORE:    0.00 PKD
ROOT
HETATM    1  O   UNL     1     -11.193   3.413  64.145  1.00  0.00    -0.598 OA 
HETATM    2  C   UNL     1      -9.817   3.144  64.382  1.00  0.00    -0.146 C  
HETATM    3  H   UNL     1     -11.501   2.967  63.364  1.00  0.00     0.000 HD 
ENDROOT
BRANCH   2   4
HETATM    4  C   UNL     1      -9.328   3.850  65.619  1.00  0.00    -0.161 A  
HETATM    5  C   UNL     1     -10.187   4.716  66.313  1.00  0.00    -0.306 A  
HETATM    6  C   UNL     1      -9.762   5.359  67.478  1.00  0.00    -0.153 A  
HETATM    7  C   UNL     1      -8.476   5.135  67.969  1.00  0.00    -0.100 A  
HETATM    8  C   UNL     1      -7.620   4.263  67.302  1.00  0.00    -0.077 A  
HETATM    9  C   UNL     1      -8.045   3.620  66.138  1.00  0.00    -0.093 A  
ENDBRANCH   2   4
TORSDOF 1
ENDMDL
MODEL      166
REMARK 921   NORMALIZED FREE ENERGY PREDICTED BY IDOCK:   -1.52 KCAL/MOL
REMARK 922        TOTAL FREE ENERGY PREDICTED BY IDOCK:   -1.63 KCAL/MOL
REMARK 923 INTER-LIGAND FREE ENERGY PREDICTED BY IDOCK:   -1.61 KCAL/MOL
REMARK 924 INTRA-LIGAND FREE ENERGY PREDICTED BY IDOCK:   -0.01 KCAL/MOL
REMARK 927      BINDING AFFINITY PREDICTED BY RF-SCORE:    0.00 PKD
ROOT
HETATM    1  O   UNL     1      -7.894   7.098  65.105  1.00  0.00    -0.109 OA 
HETATM    2  C   UNL     1      -7.571   6.971  66.485  1.00  0.00    -0.089 C  
HETATM    3  H   UNL     1      -7.122   7.293  64.587  1.00  0.00     0.000 HD 
ENDROOT
BRANCH   2   4
HETATM    4  C   UNL     1      -8.794   6.661  67.306  1.00  0.00    -0.116 A  
HETATM    5  C   UNL     1      -8.688   5.830  68.430  1.00  0.00    -0.111 A  
HETATM    6  C   UNL     1      -9.806   5.552  69.220  1.00  0.00    -0.233 A  
HETATM    7  C   UNL     1     -11.042   6.112  68.901  1.00  0.00    -0.417 A  
HETATM    8  C   UNL     1     -11.159   6.955  67.799  1.00  0.00    -0.223 A  
HETATM    9  C   UNL     1     -10.041   7.233  67.010  1.00  0.00    -0.316 A  
ENDBRANCH   2   4
TORSDOF 1
ENDMDL
MODEL      167
REMARK 921   NORMALIZED FREE ENERGY PREDICTED BY IDOCK:   -1.52 KCAL/MOL
REMARK 922        TOTAL FREE ENERGY PREDICTED BY IDOCK:   -1.62 KCAL/MOL
REMARK 923 INTER-LIGAND FREE ENERGY PREDICTED BY IDOCK:   -1.61 KCAL/MOL
REMARK 924 INTRA-LIGAND FREE ENERGY PREDICTED BY IDOCK:   -0.01 KCAL/MOL
REMARK 927      BINDING AFFINITY PREDICTED BY RF-SCORE:    0.00 PKD
ROOT
HETATM    1  O   UNL     1      -7.157   9.278  72.085  1.00  0.00    -0.309 OA 
HETATM    2  C   UNL     1      -7.771   8.193  71.400  1.00  0.00    -0.092 C  
HETATM    3  H   UNL     1      -6.463   8.975  72.658  1.00  0.00     0.000 HD 
ENDROOT
BRANCH   2   4
HETATM    4  C   UNL     1      -8.871   8.674  70.491  1.00  0.00    -0.182 A  
HETATM    5  C   UNL     1      -9.755   9.669  70.932  1.00  0.00    -0.125 A  
HETATM    6  C   UNL     1     -10.766  10.148  70.095  1.00  0.00    -0.355 A  
HETATM    7  C   UNL     1     -10.897   9.644  68.801  1.00  0.00    -0.199 A  
HETATM    8  C   UNL     1     -10.015   8.669  68.343  1.00  0.00    -0.204 A  
HETATM    9  C   UNL     1      -9.004   8.192  69.180  1.00  0.00    -0.144 A  
ENDBRANCH   2   4
TORSDOF 1
ENDMDL
MODEL      168
REMARK 921   NORMALIZED FREE ENERGY PREDICTED BY IDOCK:   -1.47 KCAL/MOL
REMARK 922        TOTAL FREE ENERGY PREDICTED BY IDOCK:   -1.57 KCAL/MOL
REMARK 923 INTER-LIGAND FREE ENERGY PREDICTED BY IDOCK:   -1.55 KCAL/MOL
REMARK 924 INTRA-LIGAND FREE ENERGY PREDICTED BY IDOCK:   -0.02 KCAL/MOL
REMARK 927      BINDING AFFINITY PREDICTED BY RF-SCORE:    0.00 PKD
ROOT
HETATM    1  O   UNL     1      -8.532   8.906  67.190  1.00  0.00    -0.107 OA 
HETATM    2  C   UNL     1      -9.471   9.621  67.983  1.00  0.00    -0.132 C  
HETATM    3  H   UNL     1      -8.320   9.381  66.395  1.00  0.00     0.000 HD 
ENDROOT
BRANCH   2   4
HETATM    4  C   UNL     1      -9.807   8.868  69.243  1.00  0.00    -0.176 A  
HETATM    5  C   UNL     1      -9.058   7.738  69.600  1.00  0.00    -0.146 A  
HETATM    6  C   UNL     1      -9.337   7.041  70.779  1.00  0.00    -0.161 A  
HETATM    7  C   UNL     1     -10.360   7.475  71.620  1.00  0.00    -0.217 A  
HETATM    8  C   UNL     1     -11.099   8.608  71.288  1.00  0.00    -0.336 A  
HETATM    9  C   UNL     1     -10.820   9.304  70.111  1.00  0.00    -0.275 A  
ENDBRANCH   2   4
TORSDOF 1
ENDMDL
MODEL      169
REMARK 921   NORMALIZED FREE ENERGY PREDICTED BY IDOCK:   -1.43 KCAL/MOL
REMARK 922        TOTAL FREE ENERGY PREDICTED BY IDOCK:   -1.52 KCAL/MOL
REMARK 923 INTER-LIGAND FREE ENERGY PREDICTED BY IDOCK:   -1.51 KCAL/MOL
REMARK 924 INTRA-LIGAND FREE ENERGY PREDICTED BY IDOCK:   -0.01 KCAL/MOL
REMARK 927      BINDING AFFINITY PREDICTED BY RF-SCORE:    0.00 PKD
ROOT
HETATM    1  O   UNL     1      -9.489   4.522  68.406  1.00  0.00    -0.134 OA 
HETATM    2  C   UNL     1      -9.647   3.663  69.529  1.00  0.00    -0.137 C  
HETATM    3  H   UNL     1      -9.413   4.025  67.600  1.00  0.00     0.000 HD 
ENDROOT
BRANCH   2   4
HETATM    4  C   UNL     1      -9.767   4.451  70.806  1.00  0.00    -0.271 A  
HETATM    5  C   UNL     1      -8.852   4.235  71.847  1.00  0.00    -0.137 A  
HETATM    6  C   UNL     1      -8.930   4.975  73.030  1.00  0.00    -0.115 A  
HETATM    7  C   UNL     1      -9.917   5.948  73.180  1.00  0.00    -0.188 A  
HETATM    8  C   UNL     1     -10.820   6.186  72.148  1.00  0.00    -0.289 A  
HETATM    9  C   UNL     1     -10.741   5.448  70.966  1.00  0.00    -0.239 A  
ENDBRANCH   2   4
TORSDOF 1
ENDMDL
MODEL      170
REMARK 921   NORMALIZED FREE ENERGY PREDICTED BY IDOCK:   -1.37 KCAL/MOL
REMARK 922        TOTAL FREE ENERGY PREDICTED BY IDOCK:   -1.46 KCAL/MOL
REMARK 923 INTER-LIGAND FREE ENERGY PREDICTED BY IDOCK:   -1.45 KCAL/MOL
REMARK 924 INTRA-LIGAND FREE ENERGY PREDICTED BY IDOCK:   -0.02 KCAL/MOL
REMARK 927      BINDING AFFINITY PREDICTED BY RF-SCORE:    0.00 PKD
ROOT
HETATM    1  O   UNL     1      -9.563   6.274  68.389  1.00  0.00    -0.121 OA 
HETATM    2  C   UNL     1      -8.369   6.944  68.004  1.00  0.00    -0.121 C  
HETATM    3  H   UNL     1      -9.389   5.611  69.047  1.00  0.00     0.000 HD 
ENDROOT
BRANCH   2   4
HETATM    4  C   UNL     1      -8.646   7.994  66.961  1.00  0.00    -0.127 A  
HETATM    5  C   UNL     1      -7.641   8.358  66.053  1.00  0.00    -0.085 A  
HETATM    6  C   UNL     1      -7.886   9.311  65.061  1.00  0.00    -0.111 A  
HETATM    7  C   UNL     1      -9.145   9.903  64.958  1.00  0.00    -0.264 A  
HETATM    8  C   UNL     1     -10.158   9.537  65.840  1.00  0.00    -0.284 A  
HETATM    9  C   UNL     1      -9.913   8.584  66.831  1.00  0.00    -0.335 A  
ENDBRANCH   2   4
TORSDOF 1
ENDMDL
MODEL      171
REMARK 921   NORMALIZED FREE ENERGY PREDICTED BY IDOCK:   -1.31 KCAL/MOL
REMARK 922        TOTAL FREE ENERGY PREDICTED BY IDOCK:   -1.40 KCAL/MOL
REMARK 923 INTER-LIGAND FREE ENERGY PREDICTED BY IDOCK:   -1.39 KCAL/MOL
REMARK 924 INTRA-LIGAND FREE ENERGY PREDICTED BY IDOCK:   -0.01 KCAL/MOL
REMARK 927      BINDING AFFINITY PREDICTED BY RF-SCORE:    0.00 PKD
ROOT
HETATM    1  O   UNL     1     -10.307  11.753  64.891  1.00  0.00    -0.264 OA 
HETATM    2  C   UNL     1      -9.533  11.501  66.058  1.00  0.00    -0.229 C  
HETATM    3  H   UNL     1     -10.839  12.534  64.993  1.00  0.00     0.000 HD 
ENDROOT
BRANCH   2   4
HETATM    4  C   UNL     1      -8.690  10.263  65.897  1.00  0.00    -0.169 A  
HETATM    5  C   UNL     1      -9.308   9.009  65.792  1.00  0.00    -0.302 A  
HETATM    6  C   UNL     1      -8.545   7.851  65.615  1.00  0.00    -0.159 A  
HETATM    7  C   UNL     1      -7.156   7.937  65.528  1.00  0.00    -0.060 A  
HETATM    8  C   UNL     1      -6.531   9.179  65.611  1.00  0.00    -0.068 A  
HETATM    9  C   UNL     1      -7.293  10.335  65.787  1.00  0.00    -0.140 A  
ENDBRANCH   2   4
TORSDOF 1
ENDMDL
MODEL      172
REMARK 921   NORMALIZED FREE ENERGY PREDICTED BY IDOCK:   -1.28 KCAL/MOL
REMARK 922        TOTAL FREE ENERGY PREDICTED BY IDOCK:   -1.37 KCAL/MOL
REMARK 923 INTER-LIGAND FREE ENERGY PREDICTED BY IDOCK:   -1.36 KCAL/MOL
REMARK 924 INTRA-LIGAND FREE ENERGY PREDICTED BY IDOCK:   -0.01 KCAL/MOL
REMARK 927      BINDING AFFINITY PREDICTED BY RF-SCORE:    0.00 PKD
ROOT
HETATM    1  O   UNL     1      -9.651  10.954  69.070  1.00  0.00    -0.247 OA 
HETATM    2  C   UNL     1      -9.551  11.565  67.789  1.00  0.00    -0.175 C  
HETATM    3  H   UNL     1     -10.307  10.267  69.072  1.00  0.00     0.000 HD 
ENDROOT
BRANCH   2   4
HETATM    4  C   UNL     1      -8.511  12.654  67.784  1.00  0.00    -0.172 A  
HETATM    5  C   UNL     1      -8.897  13.988  67.980  1.00  0.00    -0.181 A  
HETATM    6  C   UNL     1      -7.944  15.010  68.005  1.00  0.00    -0.134 A  
HETATM    7  C   UNL     1      -6.592  14.707  67.848  1.00  0.00    -0.177 A  
HETATM    8  C   UNL     1      -6.192  13.385  67.673  1.00  0.00    -0.145 A  
HETATM    9  C   UNL     1      -7.144  12.364  67.648  1.00  0.00    -0.133 A  
ENDBRANCH   2   4
TORSDOF 1
ENDMDL
MODEL      173
REMARK 921   NORMALIZED FREE ENERGY PREDICTED BY IDOCK:   -1.23 KCAL/MOL
REMARK 922        TOTAL FREE ENERGY PREDICTED BY IDOCK:   -1.31 KCAL/MOL
REMARK 923 INTER-LIGAND FREE ENERGY PREDICTED BY IDOCK:   -1.30 KCAL/MOL
REMARK 924 INTRA-LIGAND FREE ENERGY PREDICTED BY IDOCK:   -0.01 KCAL/MOL
REMARK 927      BINDING AFFINITY PREDICTED BY RF-SCORE:    0.00 PKD
ROOT
HETATM    1  O   UNL     1      -6.296   5.405  68.114  1.00  0.00    -0.036 OA 
HETATM    2  C   UNL     1      -7.649   4.967  68.154  1.00  0.00    -0.079 C  
HETATM    3  H   UNL     1      -5.696   4.668  68.118  1.00  0.00     0.000 HD 
ENDROOT
BRANCH   2   4
HETATM    4  C   UNL     1      -8.600   6.135  68.147  1.00  0.00    -0.115 A  
HETATM    5  C   UNL     1      -8.736   6.931  69.293  1.00  0.00    -0.135 A  
HETATM    6  C   UNL     1      -9.592   8.035  69.298  1.00  0.00    -0.157 A  
HETATM    7  C   UNL     1     -10.315   8.362  68.151  1.00  0.00    -0.255 A  
HETATM    8  C   UNL     1     -10.176   7.592  67.000  1.00  0.00    -0.371 A  
HETATM    9  C   UNL     1      -9.319   6.490  66.995  1.00  0.00    -0.155 A  
ENDBRANCH   2   4
TORSDOF 1
ENDMDL
MODEL      174
REMARK 921   NORMALIZED FREE ENERGY PREDICTED BY IDOCK:   -1.19 KCAL/MOL
REMARK 922        TOTAL FREE ENERGY PREDICTED BY IDOCK:   -1.28 KCAL/MOL
REMARK 923 INTER-LIGAND FREE ENERGY PREDICTED BY IDOCK:   -1.26 KCAL/MOL
REMARK 924 INTRA-LIGAND FREE ENERGY PREDICTED BY IDOCK:   -0.01 KCAL/MOL
REMARK 927      BINDING AFFINITY PREDICTED BY RF-SCORE:    0.00 PKD
ROOT
HETATM    1  O   UNL     1      -7.013   7.717  64.011  1.00  0.00    -0.058 OA 
HETATM    2  C   UNL     1      -7.008   7.054  65.269  1.00  0.00    -0.056 C  
HETATM    3  H   UNL     1      -6.265   8.295  63.924  1.00  0.00     0.000 HD 
ENDROOT
BRANCH   2   4
HETATM    4  C   UNL     1      -8.194   6.137  65.408  1.00  0.00    -0.145 A  
HETATM    5  C   UNL     1      -9.141   6.369  66.416  1.00  0.00    -0.168 A  
HETATM    6  C   UNL     1     -10.263   5.545  66.544  1.00  0.00    -0.273 A  
HETATM    7  C   UNL     1     -10.456   4.487  65.657  1.00  0.00    -0.261 A  
HETATM    8  C   UNL     1      -9.534   4.257  64.639  1.00  0.00    -0.163 A  
HETATM    9  C   UNL     1      -8.414   5.080  64.511  1.00  0.00    -0.142 A  
ENDBRANCH   2   4
TORSDOF 1
ENDMDL
MODEL      175
REMARK 921   NORMALIZED FREE ENERGY PREDICTED BY IDOCK:   -1.15 KCAL/MOL
REMARK 922        TOTAL FREE ENERGY PREDICTED BY IDOCK:   -1.23 KCAL/MOL
REMARK 923 INTER-LIGAND FREE ENERGY PREDICTED BY IDOCK:   -1.22 KCAL/MOL
REMARK 924 INTRA-LIGAND FREE ENERGY PREDICTED BY IDOCK:   -0.01 KCAL/MOL
REMARK 927      BINDING AFFINITY PREDICTED BY RF-SCORE:    0.00 PKD
ROOT
HETATM    1  O   UNL     1      -8.991   3.381  69.769  1.00  0.00    -0.086 OA 
HETATM    2  C   UNL     1      -8.213   4.152  68.861  1.00  0.00    -0.071 C  
HETATM    3  H   UNL     1      -8.601   3.372  70.635  1.00  0.00     0.000 HD 
ENDROOT
BRANCH   2   4
HETATM    4  C   UNL     1      -8.831   4.165  67.488  1.00  0.00    -0.126 A  
HETATM    5  C   UNL     1     -10.005   4.899  67.259  1.00  0.00    -0.220 A  
HETATM    6  C   UNL     1     -10.579   4.946  65.986  1.00  0.00    -0.312 A  
HETATM    7  C   UNL     1      -9.979   4.270  64.925  1.00  0.00    -0.180 A  
HETATM    8  C   UNL     1      -8.803   3.554  65.133  1.00  0.00    -0.122 A  
HETATM    9  C   UNL     1      -8.229   3.508  66.405  1.00  0.00    -0.100 A  
ENDBRANCH   2   4
TORSDOF 1
ENDMDL
MODEL      176
REMARK 921   NORMALIZED FREE ENERGY PREDICTED BY IDOCK:   -1.11 KCAL/MOL
REMARK 922        TOTAL FREE ENERGY PREDICTED BY IDOCK:   -1.19 KCAL/MOL
REMARK 923 INTER-LIGAND FREE ENERGY PREDICTED BY IDOCK:   -1.18 KCAL/MOL
REMARK 924 INTRA-LIGAND FREE ENERGY PREDICTED BY IDOCK:   -0.01 KCAL/MOL
REMARK 927      BINDING AFFINITY PREDICTED BY RF-SCORE:    0.00 PKD
ROOT
HETATM    1  O   UNL     1     -10.529   6.919  67.335  1.00  0.00    -0.204 OA 
HETATM    2  C   UNL     1     -10.015   5.774  68.004  1.00  0.00    -0.144 C  
HETATM    3  H   UNL     1     -10.981   6.676  66.535  1.00  0.00     0.000 HD 
ENDROOT
BRANCH   2   4
HETATM    4  C   UNL     1      -9.299   6.159  69.272  1.00  0.00    -0.142 A  
HETATM    5  C   UNL     1      -8.339   7.181  69.247  1.00  0.00    -0.133 A  
HETATM    6  C   UNL     1      -7.683   7.571  70.418  1.00  0.00    -0.091 A  
HETATM    7  C   UNL     1      -7.988   6.951  71.629  1.00  0.00    -0.101 A  
HETATM    8  C   UNL     1      -8.954   5.949  71.671  1.00  0.00    -0.142 A  
HETATM    9  C   UNL     1      -9.610   5.559  70.502  1.00  0.00    -0.225 A  
ENDBRANCH   2   4
TORSDOF 1
ENDMDL
MODEL      177
REMARK 921   NORMALIZED FREE ENERGY PREDICTED BY IDOCK:   -1.10 KCAL/MOL
REMARK 922        TOTAL FREE ENERGY PREDICTED BY IDOCK:   -1.18 KCAL/MOL
REMARK 923 INTER-LIGAND FREE ENERGY PREDICTED BY IDOCK:   -1.17 KCAL/MOL
REMARK 924 INTRA-LIGAND FREE ENERGY PREDICTED BY IDOCK:   -0.02 KCAL/MOL
REMARK 927      BINDING AFFINITY PREDICTED BY RF-SCORE:    0.00 PKD
ROOT
HETATM    1  O   UNL     1      -8.518   6.731  63.047  1.00  0.00    -0.338 OA 
HETATM    2  C   UNL     1      -8.013   5.854  64.047  1.00  0.00    -0.121 C  
HETATM    3  H   UNL     1      -8.071   7.568  63.066  1.00  0.00     0.000 HD 
ENDROOT
BRANCH   2   4
HETATM    4  C   UNL     1      -8.722   4.526  64.017  1.00  0.00    -0.139 A  
HETATM    5  C   UNL     1      -8.534   3.612  65.064  1.00  0.00    -0.104 A  
HETATM    6  C   UNL     1      -9.204   2.385  65.068  1.00  0.00    -0.123 A  
HETATM    7  C   UNL     1     -10.079   2.064  64.031  1.00  0.00    -0.042 A  
HETATM    8  C   UNL     1     -10.290   2.971  62.996  1.00  0.00    -0.163 A  
HETATM    9  C   UNL     1      -9.621   4.197  62.992  1.00  0.00    -0.136 A  
ENDBRANCH   2   4
TORSDOF 1
ENDMDL
MODEL      178
REMARK 921   NORMALIZED FREE ENERGY PREDICTED BY IDOCK:   -1.10 KCAL/MOL
REMARK 922        TOTAL FREE ENERGY PREDICTED BY IDOCK:   -1.18 KCAL/MOL
REMARK 923 INTER-LIGAND FREE ENERGY PREDICTED BY IDOCK:   -1.16 KCAL/MOL
REMARK 924 INTRA-LIGAND FREE ENERGY PREDICTED BY IDOCK:   -0.02 KCAL/MOL
REMARK 927      BINDING AFFINITY PREDICTED BY RF-SCORE:    0.00 PKD
ROOT
HETATM    1  O   UNL     1      -9.419   4.272  69.806  1.00  0.00    -0.153 OA 
HETATM    2  C   UNL     1      -8.912   4.615  71.089  1.00  0.00    -0.123 C  
HETATM    3  H   UNL     1      -9.559   3.335  69.730  1.00  0.00     0.000 HD 
ENDROOT
BRANCH   2   4
HETATM    4  C   UNL     1      -8.692   6.100  71.209  1.00  0.00    -0.132 A  
HETATM    5  C   UNL     1      -9.375   6.978  70.354  1.00  0.00    -0.159 A  
HETATM    6  C   UNL     1      -9.204   8.360  70.467  1.00  0.00    -0.165 A  
HETATM    7  C   UNL     1      -8.358   8.881  71.444  1.00  0.00    -0.195 A  
HETATM    8  C   UNL     1      -7.689   8.023  72.313  1.00  0.00    -0.140 A  
HETATM    9  C   UNL     1      -7.860   6.642  72.201  1.00  0.00    -0.097 A  
ENDBRANCH   2   4
TORSDOF 1
ENDMDL
MODEL      179
REMARK 921   NORMALIZED FREE ENERGY PREDICTED BY IDOCK:   -1.06 KCAL/MOL
REMARK 922        TOTAL FREE ENERGY PREDICTED BY IDOCK:   -1.14 KCAL/MOL
REMARK 923 INTER-LIGAND FREE ENERGY PREDICTED BY IDOCK:   -1.12 KCAL/MOL
REMARK 924 INTRA-LIGAND FREE ENERGY PREDICTED BY IDOCK:   -0.02 KCAL/MOL
REMARK 927      BINDING AFFINITY PREDICTED BY RF-SCORE:    0.00 PKD
ROOT
HETATM    1  O   UNL     1     -11.472  10.825  66.708  1.00  0.00    -0.235 OA 
HETATM    2  C   UNL     1     -10.578  11.605  67.493  1.00  0.00    -0.209 C  
HETATM    3  H   UNL     1     -12.232  11.331  66.447  1.00  0.00     0.000 HD 
ENDROOT
BRANCH   2   4
HETATM    4  C   UNL     1      -9.373  10.803  67.907  1.00  0.00    -0.154 A  
HETATM    5  C   UNL     1      -8.429  11.362  68.780  1.00  0.00    -0.089 A  
HETATM    6  C   UNL     1      -7.318  10.625  69.197  1.00  0.00    -0.111 A  
HETATM    7  C   UNL     1      -7.146   9.313  68.756  1.00  0.00    -0.073 A  
HETATM    8  C   UNL     1      -8.086   8.738  67.905  1.00  0.00    -0.107 A  
HETATM    9  C   UNL     1      -9.196   9.475  67.489  1.00  0.00    -0.142 A  
ENDBRANCH   2   4
TORSDOF 1
ENDMDL
MODEL      180
REMARK 921   NORMALIZED FREE ENERGY PREDICTED BY IDOCK:   -1.06 KCAL/MOL
REMARK 922        TOTAL FREE ENERGY PREDICTED BY IDOCK:   -1.13 KCAL/MOL
REMARK 923 INTER-LIGAND FREE ENERGY PREDICTED BY IDOCK:   -1.12 KCAL/MOL
REMARK 924 INTRA-LIGAND FREE ENERGY PREDICTED BY IDOCK:   -0.01 KCAL/MOL
REMARK 927      BINDING AFFINITY PREDICTED BY RF-SCORE:    0.00 PKD
ROOT
HETATM    1  O   UNL     1     -10.484  10.321  67.726  1.00  0.00    -0.193 OA 
HETATM    2  C   UNL     1      -9.675   9.764  68.754  1.00  0.00    -0.161 C  
HETATM    3  H   UNL     1     -10.914  11.115  68.019  1.00  0.00     0.000 HD 
ENDROOT
BRANCH   2   4
HETATM    4  C   UNL     1      -8.992   8.504  68.290  1.00  0.00    -0.139 A  
HETATM    5  C   UNL     1      -7.795   8.095  68.896  1.00  0.00    -0.112 A  
HETATM    6  C   UNL     1      -7.161   6.915  68.497  1.00  0.00    -0.084 A  
HETATM    7  C   UNL     1      -7.724   6.124  67.496  1.00  0.00    -0.097 A  
HETATM    8  C   UNL     1      -8.922   6.508  66.900  1.00  0.00    -0.128 A  
HETATM    9  C   UNL     1      -9.556   7.686  67.299  1.00  0.00    -0.201 A  
ENDBRANCH   2   4
TORSDOF 1
ENDMDL
MODEL      181
REMARK 921   NORMALIZED FREE ENERGY PREDICTED BY IDOCK:   -1.00 KCAL/MOL
REMARK 922        TOTAL FREE ENERGY PREDICTED BY IDOCK:   -1.08 KCAL/MOL
REMARK 923 INTER-LIGAND FREE ENERGY PREDICTED BY IDOCK:   -1.07 KCAL/MOL
REMARK 924 INTRA-LIGAND FREE ENERGY PREDICTED BY IDOCK:   -0.01 KCAL/MOL
REMARK 927      BINDING AFFINITY PREDICTED BY RF-SCORE:    0.00 PKD
ROOT
HETATM    1  O   UNL     1      -9.570   5.263  69.623  1.00  0.00    -0.140 OA 
HETATM    2  C   UNL     1     -10.102   5.216  70.941  1.00  0.00    -0.232 C  
HETATM    3  H   UNL     1     -10.178   4.895  68.993  1.00  0.00     0.000 HD 
ENDROOT
BRANCH   2   4
HETATM    4  C   UNL     1      -9.138   5.799  71.940  1.00  0.00    -0.145 A  
HETATM    5  C   UNL     1      -8.504   4.962  72.869  1.00  0.00    -0.108 A  
HETATM    6  C   UNL     1      -7.586   5.479  73.787  1.00  0.00    -0.094 A  
HETATM    7  C   UNL     1      -7.282   6.840  73.777  1.00  0.00    -0.082 A  
HETATM    8  C   UNL     1      -7.888   7.680  72.846  1.00  0.00    -0.135 A  
HETATM    9  C   UNL     1      -8.805   7.163  71.930  1.00  0.00    -0.131 A  
ENDBRANCH   2   4
TORSDOF 1
ENDMDL
MODEL      182
REMARK 921   NORMALIZED FREE ENERGY PREDICTED BY IDOCK:   -1.00 KCAL/MOL
REMARK 922        TOTAL FREE ENERGY PREDICTED BY IDOCK:   -1.07 KCAL/MOL
REMARK 923 INTER-LIGAND FREE ENERGY PREDICTED BY IDOCK:   -1.05 KCAL/MOL
REMARK 924 INTRA-LIGAND FREE ENERGY PREDICTED BY IDOCK:   -0.02 KCAL/MOL
REMARK 927      BINDING AFFINITY PREDICTED BY RF-SCORE:    0.00 PKD
ROOT
HETATM    1  O   UNL     1     -11.010   4.142  63.419  1.00  0.00    -0.375 OA 
HETATM    2  C   UNL     1     -10.220   3.001  63.108  1.00  0.00    -0.154 C  
HETATM    3  H   UNL     1     -11.693   4.275  62.772  1.00  0.00     0.000 HD 
ENDROOT
BRANCH   2   4
HETATM    4  C   UNL     1      -9.138   2.792  64.134  1.00  0.00    -0.111 A  
HETATM    5  C   UNL     1      -9.308   3.282  65.437  1.00  0.00    -0.140 A  
HETATM    6  C   UNL     1      -8.327   3.074  66.411  1.00  0.00    -0.098 A  
HETATM    7  C   UNL     1      -7.170   2.363  66.095  1.00  0.00    -0.065 A  
HETATM    8  C   UNL     1      -6.997   1.854  64.811  1.00  0.00    -0.043 A  
HETATM    9  C   UNL     1      -7.977   2.060  63.839  1.00  0.00    -0.069 A  
ENDBRANCH   2   4
TORSDOF 1
ENDMDL
MODEL      183
REMARK 921   NORMALIZED FREE ENERGY PREDICTED BY IDOCK:   -0.92 KCAL/MOL
REMARK 922        TOTAL FREE ENERGY PREDICTED BY IDOCK:   -0.99 KCAL/MOL
REMARK 923 INTER-LIGAND FREE ENERGY PREDICTED BY IDOCK:   -0.97 KCAL/MOL
REMARK 924 INTRA-LIGAND FREE ENERGY PREDICTED BY IDOCK:   -0.02 KCAL/MOL
REMARK 927      BINDING AFFINITY PREDICTED BY RF-SCORE:    0.00 PKD
ROOT
HETATM    1  O   UNL     1      -8.618   2.582  64.388  1.00  0.00    -0.089 OA 
HETATM    2  C   UNL     1      -7.675   2.421  65.441  1.00  0.00    -0.077 C  
HETATM    3  H   UNL     1      -8.293   2.213  63.576  1.00  0.00     0.000 HD 
ENDROOT
BRANCH   2   4
HETATM    4  C   UNL     1      -8.190   3.006  66.729  1.00  0.00    -0.089 A  
HETATM    5  C   UNL     1      -9.177   4.001  66.698  1.00  0.00    -0.173 A  
HETATM    6  C   UNL     1      -9.687   4.538  67.883  1.00  0.00    -0.195 A  
HETATM    7  C   UNL     1      -9.224   4.075  69.114  1.00  0.00    -0.217 A  
HETATM    8  C   UNL     1      -8.259   3.073  69.160  1.00  0.00    -0.077 A  
HETATM    9  C   UNL     1      -7.750   2.536  67.976  1.00  0.00    -0.055 A  
ENDBRANCH   2   4
TORSDOF 1
ENDMDL
MODEL      184
REMARK 921   NORMALIZED FREE ENERGY PREDICTED BY IDOCK:   -0.91 KCAL/MOL
REMARK 922        TOTAL FREE ENERGY PREDICTED BY IDOCK:   -0.98 KCAL/MOL
REMARK 923 INTER-LIGAND FREE ENERGY PREDICTED BY IDOCK:   -0.97 KCAL/MOL
REMARK 924 INTRA-LIGAND FREE ENERGY PREDICTED BY IDOCK:   -0.01 KCAL/MOL
REMARK 927      BINDING AFFINITY PREDICTED BY RF-SCORE:    0.00 PKD
ROOT
HETATM    1  O   UNL     1      -6.383   7.381  66.631  1.00  0.00    -0.042 OA 
HETATM    2  C   UNL     1      -6.680   7.372  68.022  1.00  0.00    -0.055 C  
HETATM    3  H   UNL     1      -5.591   7.874  66.451  1.00  0.00     0.000 HD 
ENDROOT
BRANCH   2   4
HETATM    4  C   UNL     1      -7.936   6.591  68.306  1.00  0.00    -0.110 A  
HETATM    5  C   UNL     1      -9.160   7.263  68.439  1.00  0.00    -0.135 A  
HETATM    6  C   UNL     1     -10.340   6.554  68.676  1.00  0.00    -0.216 A  
HETATM    7  C   UNL     1     -10.312   5.163  68.770  1.00  0.00    -0.162 A  
HETATM    8  C   UNL     1      -9.107   4.482  68.621  1.00  0.00    -0.164 A  
HETATM    9  C   UNL     1      -7.928   5.190  68.383  1.00  0.00    -0.087 A  
ENDBRANCH   2   4
TORSDOF 1
ENDMDL
MODEL      185
REMARK 921   NORMALIZED FREE ENERGY PREDICTED BY IDOCK:   -0.91 KCAL/MOL
REMARK 922        TOTAL FREE ENERGY PREDICTED BY IDOCK:   -0.98 KCAL/MOL
REMARK 923 INTER-LIGAND FREE ENERGY PREDICTED BY IDOCK:   -0.97 KCAL/MOL
REMARK 924 INTRA-LIGAND FREE ENERGY PREDICTED BY IDOCK:   -0.01 KCAL/MOL
REMARK 927      BINDING AFFINITY PREDICTED BY RF-SCORE:    0.00 PKD
ROOT
HETATM    1  O   UNL     1      -7.410  10.926  65.970  1.00  0.00    -0.223 OA 
HETATM    2  C   UNL     1      -6.698   9.877  66.616  1.00  0.00    -0.080 C  
HETATM    3  H   UNL     1      -6.915  11.278  65.239  1.00  0.00     0.000 HD 
ENDROOT
BRANCH   2   4
HETATM    4  C   UNL     1      -7.482   9.319  67.774  1.00  0.00    -0.088 A  
HETATM    5  C   UNL     1      -8.604   8.512  67.533  1.00  0.00    -0.128 A  
HETATM    6  C   UNL     1      -9.328   7.963  68.594  1.00  0.00    -0.145 A  
HETATM    7  C   UNL     1      -8.931   8.204  69.909  1.00  0.00    -0.143 A  
HETATM    8  C   UNL     1      -7.808   8.987  70.163  1.00  0.00    -0.100 A  
HETATM    9  C   UNL     1      -7.083   9.535  69.102  1.00  0.00    -0.062 A  
ENDBRANCH   2   4
TORSDOF 1
ENDMDL
MODEL      186
REMARK 921   NORMALIZED FREE ENERGY PREDICTED BY IDOCK:   -0.80 KCAL/MOL
REMARK 922        TOTAL FREE ENERGY PREDICTED BY IDOCK:   -0.86 KCAL/MOL
REMARK 923 INTER-LIGAND FREE ENERGY PREDICTED BY IDOCK:   -0.86 KCAL/MOL
REMARK 924 INTRA-LIGAND FREE ENERGY PREDICTED BY IDOCK:   -0.01 KCAL/MOL
REMARK 927      BINDING AFFINITY PREDICTED BY RF-SCORE:    0.00 PKD
ROOT
HETATM    1  O   UNL     1      -7.125   6.479  66.794  1.00  0.00    -0.066 OA 
HETATM    2  C   UNL     1      -7.543   5.156  66.480  1.00  0.00    -0.088 C  
HETATM    3  H   UNL     1      -6.892   6.961  66.010  1.00  0.00     0.000 HD 
ENDROOT
BRANCH   2   4
HETATM    4  C   UNL     1      -7.913   4.391  67.724  1.00  0.00    -0.088 A  
HETATM    5  C   UNL     1      -9.185   4.554  68.290  1.00  0.00    -0.174 A  
HETATM    6  C   UNL     1      -9.557   3.833  69.429  1.00  0.00    -0.219 A  
HETATM    7  C   UNL     1      -8.663   2.933  70.007  1.00  0.00    -0.126 A  
HETATM    8  C   UNL     1      -7.403   2.747  69.443  1.00  0.00    -0.044 A  
HETATM    9  C   UNL     1      -7.033   3.466  68.306  1.00  0.00    -0.050 A  
ENDBRANCH   2   4
TORSDOF 1
ENDMDL
MODEL      187
REMARK 921   NORMALIZED FREE ENERGY PREDICTED BY IDOCK:   -0.78 KCAL/MOL
REMARK 922        TOTAL FREE ENERGY PREDICTED BY IDOCK:   -0.83 KCAL/MOL
REMARK 923 INTER-LIGAND FREE ENERGY PREDICTED BY IDOCK:   -0.82 KCAL/MOL
REMARK 924 INTRA-LIGAND FREE ENERGY PREDICTED BY IDOCK:   -0.02 KCAL/MOL
REMARK 927      BINDING AFFINITY PREDICTED BY RF-SCORE:    0.00 PKD
ROOT
HETATM    1  O   UNL     1     -10.015   4.741  68.153  1.00  0.00    -0.145 OA 
HETATM    2  C   UNL     1      -8.640   5.047  68.350  1.00  0.00    -0.097 C  
HETATM    3  H   UNL     1     -10.328   4.126  68.805  1.00  0.00     0.000 HD 
ENDROOT
BRANCH   2   4
HETATM    4  C   UNL     1      -8.144   6.023  67.316  1.00  0.00    -0.106 A  
HETATM    5  C   UNL     1      -6.775   6.093  67.023  1.00  0.00    -0.061 A  
HETATM    6  C   UNL     1      -6.298   6.972  66.047  1.00  0.00    -0.046 A  
HETATM    7  C   UNL     1      -7.188   7.784  65.345  1.00  0.00    -0.068 A  
HETATM    8  C   UNL     1      -8.553   7.711  65.612  1.00  0.00    -0.142 A  
HETATM    9  C   UNL     1      -9.029   6.832  66.586  1.00  0.00    -0.154 A  
ENDBRANCH   2   4
TORSDOF 1
ENDMDL
MODEL      188
REMARK 921   NORMALIZED FREE ENERGY PREDICTED BY IDOCK:   -0.76 KCAL/MOL
REMARK 922        TOTAL FREE ENERGY PREDICTED BY IDOCK:   -0.82 KCAL/MOL
REMARK 923 INTER-LIGAND FREE ENERGY PREDICTED BY IDOCK:   -0.81 KCAL/MOL
REMARK 924 INTRA-LIGAND FREE ENERGY PREDICTED BY IDOCK:   -0.01 KCAL/MOL
REMARK 927      BINDING AFFINITY PREDICTED BY RF-SCORE:    0.00 PKD
ROOT
HETATM    1  O   UNL     1      -9.656   4.101  69.713  1.00  0.00    -0.183 OA 
HETATM    2  C   UNL     1      -9.942   3.852  71.083  1.00  0.00    -0.099 C  
HETATM    3  H   UNL     1     -10.402   3.895  69.162  1.00  0.00     0.000 HD 
ENDROOT
BRANCH   2   4
HETATM    4  C   UNL     1      -8.759   4.178  71.956  1.00  0.00    -0.123 A  
HETATM    5  C   UNL     1      -8.136   5.430  71.846  1.00  0.00    -0.114 A  
HETATM    6  C   UNL     1      -7.054   5.762  72.665  1.00  0.00    -0.085 A  
HETATM    7  C   UNL     1      -6.591   4.850  73.613  1.00  0.00    -0.067 A  
HETATM    8  C   UNL     1      -7.213   3.612  73.747  1.00  0.00    -0.056 A  
HETATM    9  C   UNL     1      -8.294   3.280  72.929  1.00  0.00    -0.081 A  
ENDBRANCH   2   4
TORSDOF 1
ENDMDL
MODEL      189
REMARK 921   NORMALIZED FREE ENERGY PREDICTED BY IDOCK:   -0.72 KCAL/MOL
REMARK 922        TOTAL FREE ENERGY PREDICTED BY IDOCK:   -0.77 KCAL/MOL
REMARK 923 INTER-LIGAND FREE ENERGY PREDICTED BY IDOCK:   -0.76 KCAL/MOL
REMARK 924 INTRA-LIGAND FREE ENERGY PREDICTED BY IDOCK:   -0.01 KCAL/MOL
REMARK 927      BINDING AFFINITY PREDICTED BY RF-SCORE:    0.00 PKD
ROOT
HETATM    1  O   UNL     1      -7.983   6.584  67.908  1.00  0.00    -0.107 OA 
HETATM    2  C   UNL     1      -8.230   5.291  68.447  1.00  0.00    -0.090 C  
HETATM    3  H   UNL     1      -8.144   6.603  66.972  1.00  0.00     0.000 HD 
ENDROOT
BRANCH   2   4
HETATM    4  C   UNL     1      -7.975   5.261  69.931  1.00  0.00    -0.083 A  
HETATM    5  C   UNL     1      -6.694   5.549  70.424  1.00  0.00    -0.047 A  
HETATM    6  C   UNL     1      -6.444   5.552  71.799  1.00  0.00    -0.044 A  
HETATM    7  C   UNL     1      -7.475   5.280  72.697  1.00  0.00    -0.096 A  
HETATM    8  C   UNL     1      -8.756   5.011  72.221  1.00  0.00    -0.128 A  
HETATM    9  C   UNL     1      -9.007   5.009  70.848  1.00  0.00    -0.165 A  
ENDBRANCH   2   4
TORSDOF 1
ENDMDL
MODEL      190
REMARK 921   NORMALIZED FREE ENERGY PREDICTED BY IDOCK:    4.30 KCAL/MOL
REMARK 922        TOTAL FREE ENERGY PREDICTED BY IDOCK:    4.54 KCAL/MOL
REMARK 923 INTER-LIGAND FREE ENERGY PREDICTED BY IDOCK:    4.56 KCAL/MOL
REMARK 924 INTRA-LIGAND FREE ENERGY PREDICTED BY IDOCK:   -0.02 KCAL/MOL
REMARK 927      BINDING AFFINITY PREDICTED BY RF-SCORE:    0.00 PKD
ROOT
HETATM    1  O   UNL     1     -14.359  15.110  73.044  1.00  0.00    -0.260 OA 
HETATM    2  C   UNL     1     -13.002  15.535  73.041  1.00  0.00    -0.499 C  
HETATM    3  H   UNL     1     -14.617  14.788  73.899  1.00  0.00     0.000 HD 
ENDROOT
BRANCH   2   4
HETATM    4  C   UNL     1     -12.593  16.044  71.684  1.00  0.00    -0.360 A  
HETATM    5  C   UNL     1     -13.482  15.944  70.604  1.00  0.00     0.732 A  
HETATM    6  C   UNL     1     -13.131  16.435  69.344  1.00  0.00     2.860 A  
HETATM    7  C   UNL     1     -11.892  17.043  69.152  1.00  0.00     1.305 A  
HETATM    8  C   UNL     1     -11.007  17.167  70.220  1.00  0.00     0.624 A  
HETATM    9  C   UNL     1     -11.357  16.677  71.479  1.00  0.00     0.153 A  
ENDBRANCH   2   4
TORSDOF 1
ENDMDL
