MODEL        1
REMARK 921   NORMALIZED FREE ENERGY PREDICTED BY IDOCK:   -6.67 KCAL/MOL
REMARK 922        TOTAL FREE ENERGY PREDICTED BY IDOCK:  -10.86 KCAL/MOL
REMARK 923 INTER-LIGAND FREE ENERGY PREDICTED BY IDOCK:   -9.41 KCAL/MOL
REMARK 924 INTRA-LIGAND FREE ENERGY PREDICTED BY IDOCK:   -1.46 KCAL/MOL
REMARK 927      BINDING AFFINITY PREDICTED BY RF-SCORE:    0.00 PKD
ROOT
HETATM    1  O   UNL     1      -9.820  20.830  67.344  1.00  0.00    -0.464 OA 
HETATM    2  C   UNL     1      -9.100  19.710  67.586  1.00  0.00    -0.329 C  
HETATM    3  O   UNL     1      -8.749  19.387  68.709  1.00  0.00    -0.364 OA 
HETATM    4  C   UNL     1      -8.811  18.941  66.321  1.00  0.00    -0.260 C  
ENDROOT
BRANCH   4   5
HETATM    5  C   UNL     1      -8.015  17.661  66.580  1.00  0.00    -0.302 C  
BRANCH   5   6
HETATM    6  C   UNL     1      -8.894  16.440  66.288  1.00  0.00    -0.332 C  
BRANCH   6   7
HETATM    7  N   UNL     1      -8.821  15.360  67.279  1.00  0.00    -0.185 NA 
HETATM    8  C   UNL     1      -9.036  15.776  68.673  1.00  0.00    -0.204 C  
HETATM    9  C   UNL     1     -10.478  16.183  68.979  1.00  0.00    -0.261 C  
HETATM   10  C   UNL     1     -11.466  15.073  68.606  1.00  0.00    -0.311 C  
HETATM   11  C   UNL     1     -11.228  14.642  67.156  1.00  0.00    -0.349 C  
HETATM   12  C   UNL     1      -9.757  14.270  66.938  1.00  0.00    -0.264 C  
BRANCH  10  13
HETATM   13  O   UNL     1     -11.336  13.880  69.391  1.00  0.00    -0.256 OA 
BRANCH  13  14
HETATM   14  C   UNL     1     -12.486  13.454  70.142  1.00  0.00    -0.174 C  
BRANCH  14  15
HETATM   15  C   UNL     1     -12.346  11.999  70.571  1.00  0.00    -0.369 A  
HETATM   16  C   UNL     1     -11.374  11.186  69.962  1.00  0.00    -0.326 A  
HETATM   17  C   UNL     1     -11.105   9.909  70.457  1.00  0.00    -0.398 A  
HETATM   18  C   UNL     1     -13.087  11.478  71.644  1.00  0.00    -0.478 A  
HETATM   19  C   UNL     1     -12.821  10.198  72.137  1.00  0.00    -0.381 A  
HETATM   20 CL   UNL     1     -11.423   7.892  72.220  1.00  0.00    -0.371 Cl 
HETATM   21  C   UNL     1     -11.817   9.429  71.555  1.00  0.00    -0.385 A  
ENDBRANCH  14  15
BRANCH  14  22
HETATM   22  C   UNL     1     -12.708  14.419  71.306  1.00  0.00    -0.344 A  
HETATM   23  C   UNL     1     -11.821  15.550  73.127  1.00  0.00    -0.431 A  
HETATM   24  C   UNL     1     -14.141  15.797  72.666  1.00  0.00    -0.482 A  
HETATM   25  C   UNL     1     -13.975  14.944  71.579  1.00  0.00    -0.571 A  
HETATM   26  N   UNL     1     -11.627  14.724  72.076  1.00  0.00    -0.221 NA 
HETATM   27  C   UNL     1     -13.044  16.107  73.459  1.00  0.00    -0.594 A  
ENDBRANCH  14  22
ENDBRANCH  13  14
ENDBRANCH  10  13
ENDBRANCH   6   7
ENDBRANCH   5   6
ENDBRANCH   4   5
TORSDOF 7
ENDMDL
MODEL        2
REMARK 921   NORMALIZED FREE ENERGY PREDICTED BY IDOCK:   -6.67 KCAL/MOL
REMARK 922        TOTAL FREE ENERGY PREDICTED BY IDOCK:  -10.85 KCAL/MOL
REMARK 923 INTER-LIGAND FREE ENERGY PREDICTED BY IDOCK:  -10.03 KCAL/MOL
REMARK 924 INTRA-LIGAND FREE ENERGY PREDICTED BY IDOCK:   -0.83 KCAL/MOL
REMARK 927      BINDING AFFINITY PREDICTED BY RF-SCORE:    0.00 PKD
ROOT
HETATM    1  O   UNL     1      -5.925  20.363  71.741  1.00  0.00    -0.617 OA 
HETATM    2  C   UNL     1      -5.840  20.477  70.395  1.00  0.00    -0.245 C  
HETATM    3  O   UNL     1      -5.161  21.332  69.852  1.00  0.00    -0.483 OA 
HETATM    4  C   UNL     1      -6.663  19.430  69.687  1.00  0.00    -0.275 C  
ENDROOT
BRANCH   4   5
HETATM    5  C   UNL     1      -6.561  19.533  68.164  1.00  0.00    -0.289 C  
BRANCH   5   6
HETATM    6  C   UNL     1      -7.943  19.835  67.575  1.00  0.00    -0.289 C  
BRANCH   6   7
HETATM    7  N   UNL     1      -9.062  19.111  68.190  1.00  0.00    -0.312 NA 
HETATM    8  C   UNL     1     -10.374  19.347  67.571  1.00  0.00    -0.443 C  
HETATM    9  C   UNL     1     -10.521  18.726  66.181  1.00  0.00    -0.499 C  
HETATM   10  C   UNL     1     -10.215  17.225  66.202  1.00  0.00    -0.331 C  
HETATM   11  C   UNL     1      -8.850  16.990  66.855  1.00  0.00    -0.251 C  
HETATM   12  C   UNL     1      -8.788  17.660  68.233  1.00  0.00    -0.276 C  
BRANCH  10  13
HETATM   13  O   UNL     1     -11.148  16.444  66.961  1.00  0.00    -0.119 OA 
BRANCH  13  14
HETATM   14  C   UNL     1     -10.770  15.095  67.287  1.00  0.00    -0.305 C  
BRANCH  14  15
HETATM   15  C   UNL     1     -11.347  14.679  68.634  1.00  0.00    -0.305 A  
HETATM   16  C   UNL     1     -11.967  15.641  69.450  1.00  0.00    -0.349 A  
HETATM   17  C   UNL     1     -12.658  15.257  70.601  1.00  0.00    -0.471 A  
HETATM   18  C   UNL     1     -11.379  13.333  69.032  1.00  0.00    -0.334 A  
HETATM   19  C   UNL     1     -12.067  12.949  70.185  1.00  0.00    -0.373 A  
HETATM   20 CL   UNL     1     -13.648  13.428  72.319  1.00  0.00    -0.656 Cl 
HETATM   21  C   UNL     1     -12.721  13.910  70.952  1.00  0.00    -0.340 A  
ENDBRANCH  14  15
BRANCH  14  22
HETATM   22  C   UNL     1     -11.171  14.173  66.135  1.00  0.00    -0.326 A  
HETATM   23  C   UNL     1     -10.527  12.948  64.274  1.00  0.00    -0.407 A  
HETATM   24  C   UNL     1     -12.835  13.001  64.848  1.00  0.00    -0.368 A  
HETATM   25  C   UNL     1     -12.507  13.819  65.925  1.00  0.00    -0.512 A  
HETATM   26  N   UNL     1     -10.177  13.736  65.313  1.00  0.00    -0.341 NA 
HETATM   27  C   UNL     1     -11.827  12.556  64.002  1.00  0.00    -0.510 A  
ENDBRANCH  14  22
ENDBRANCH  13  14
ENDBRANCH  10  13
ENDBRANCH   6   7
ENDBRANCH   5   6
ENDBRANCH   4   5
TORSDOF 7
ENDMDL
MODEL        3
REMARK 921   NORMALIZED FREE ENERGY PREDICTED BY IDOCK:   -6.63 KCAL/MOL
REMARK 922        TOTAL FREE ENERGY PREDICTED BY IDOCK:  -10.80 KCAL/MOL
REMARK 923 INTER-LIGAND FREE ENERGY PREDICTED BY IDOCK:   -9.35 KCAL/MOL
REMARK 924 INTRA-LIGAND FREE ENERGY PREDICTED BY IDOCK:   -1.44 KCAL/MOL
REMARK 927      BINDING AFFINITY PREDICTED BY RF-SCORE:    0.00 PKD
ROOT
HETATM    1  O   UNL     1      -5.277  20.214  66.014  1.00  0.00    -0.161 OA 
HETATM    2  C   UNL     1      -6.604  19.946  65.998  1.00  0.00    -0.231 C  
HETATM    3  O   UNL     1      -7.114  19.215  65.164  1.00  0.00    -0.449 OA 
HETATM    4  C   UNL     1      -7.334  20.644  67.117  1.00  0.00    -0.389 C  
ENDROOT
BRANCH   4   5
HETATM    5  C   UNL     1      -8.833  20.335  67.124  1.00  0.00    -0.446 C  
BRANCH   5   6
HETATM    6  C   UNL     1      -9.142  19.310  68.220  1.00  0.00    -0.345 C  
BRANCH   6   7
HETATM    7  N   UNL     1     -10.278  18.422  67.949  1.00  0.00    -0.363 NA 
HETATM    8  C   UNL     1     -10.277  17.793  66.620  1.00  0.00    -0.361 C  
HETATM    9  C   UNL     1      -9.191  16.730  66.442  1.00  0.00    -0.309 C  
HETATM   10  C   UNL     1      -9.276  15.654  67.529  1.00  0.00    -0.201 C  
HETATM   11  C   UNL     1      -9.284  16.320  68.909  1.00  0.00    -0.249 C  
HETATM   12  C   UNL     1     -10.390  17.379  68.990  1.00  0.00    -0.319 C  
BRANCH  10  13
HETATM   13  O   UNL     1     -10.466  14.855  67.476  1.00  0.00    -0.249 OA 
BRANCH  13  14
HETATM   14  C   UNL     1     -10.301  13.428  67.400  1.00  0.00    -0.240 C  
BRANCH  14  15
HETATM   15  C   UNL     1     -10.876  12.749  68.636  1.00  0.00    -0.284 A  
HETATM   16  C   UNL     1     -11.666  13.489  69.532  1.00  0.00    -0.382 A  
HETATM   17  C   UNL     1     -12.348  12.853  70.571  1.00  0.00    -0.362 A  
HETATM   18  C   UNL     1     -10.732  11.367  68.844  1.00  0.00    -0.248 A  
HETATM   19  C   UNL     1     -11.412  10.731  69.886  1.00  0.00    -0.398 A  
HETATM   20 CL   UNL     1     -13.145  10.678  71.954  1.00  0.00    -0.592 Cl 
HETATM   21  C   UNL     1     -12.233  11.474  70.730  1.00  0.00    -0.363 A  
ENDBRANCH  14  15
BRANCH  14  22
HETATM   22  C   UNL     1     -10.902  12.927  66.087  1.00  0.00    -0.279 A  
HETATM   23  C   UNL     1     -12.747  12.790  64.687  1.00  0.00    -0.362 A  
HETATM   24  C   UNL     1     -10.748  11.679  64.033  1.00  0.00    -0.442 A  
HETATM   25  C   UNL     1     -10.156  12.140  65.204  1.00  0.00    -0.288 A  
HETATM   26  N   UNL     1     -12.198  13.257  65.829  1.00  0.00    -0.442 NA 
HETATM   27  C   UNL     1     -12.071  12.007  63.767  1.00  0.00    -0.599 A  
ENDBRANCH  14  22
ENDBRANCH  13  14
ENDBRANCH  10  13
ENDBRANCH   6   7
ENDBRANCH   5   6
ENDBRANCH   4   5
TORSDOF 7
ENDMDL
MODEL        4
REMARK 921   NORMALIZED FREE ENERGY PREDICTED BY IDOCK:   -6.60 KCAL/MOL
REMARK 922        TOTAL FREE ENERGY PREDICTED BY IDOCK:  -10.77 KCAL/MOL
REMARK 923 INTER-LIGAND FREE ENERGY PREDICTED BY IDOCK:   -9.62 KCAL/MOL
REMARK 924 INTRA-LIGAND FREE ENERGY PREDICTED BY IDOCK:   -1.15 KCAL/MOL
REMARK 927      BINDING AFFINITY PREDICTED BY RF-SCORE:    0.00 PKD
ROOT
HETATM    1  O   UNL     1      -6.113  21.187  63.110  1.00  0.00    -0.281 OA 
HETATM    2  C   UNL     1      -6.033  20.133  63.957  1.00  0.00    -0.265 C  
HETATM    3  O   UNL     1      -5.546  19.065  63.627  1.00  0.00    -0.303 OA 
HETATM    4  C   UNL     1      -6.601  20.457  65.315  1.00  0.00    -0.312 C  
ENDROOT
BRANCH   4   5
HETATM    5  C   UNL     1      -6.500  19.282  66.290  1.00  0.00    -0.208 C  
BRANCH   5   6
HETATM    6  C   UNL     1      -7.830  18.521  66.318  1.00  0.00    -0.254 C  
BRANCH   6   7
HETATM    7  N   UNL     1      -7.910  17.429  67.296  1.00  0.00    -0.194 NA 
HETATM    8  C   UNL     1      -8.327  17.830  68.648  1.00  0.00    -0.273 C  
HETATM    9  C   UNL     1      -9.797  18.243  68.742  1.00  0.00    -0.377 C  
HETATM   10  C   UNL     1     -10.724  17.144  68.213  1.00  0.00    -0.363 C  
HETATM   11  C   UNL     1     -10.276  16.728  66.808  1.00  0.00    -0.304 C  
HETATM   12  C   UNL     1      -8.790  16.349  66.806  1.00  0.00    -0.225 C  
BRANCH  10  13
HETATM   13  O   UNL     1     -10.717  15.941  68.994  1.00  0.00    -0.222 OA 
BRANCH  13  14
HETATM   14  C   UNL     1     -11.971  15.258  69.169  1.00  0.00    -0.280 C  
BRANCH  14  15
HETATM   15  C   UNL     1     -11.851  13.792  68.773  1.00  0.00    -0.398 A  
HETATM   16  C   UNL     1     -11.764  13.444  67.414  1.00  0.00    -0.415 A  
HETATM   17  C   UNL     1     -11.476  12.133  67.033  1.00  0.00    -0.415 A  
HETATM   18  C   UNL     1     -11.708  12.783  69.740  1.00  0.00    -0.352 A  
HETATM   19  C   UNL     1     -11.422  11.470  69.359  1.00  0.00    -0.376 A  
HETATM   20 CL   UNL     1     -10.842   9.560  67.543  1.00  0.00    -0.308 Cl 
HETATM   21  C   UNL     1     -11.287  11.156  68.009  1.00  0.00    -0.312 A  
ENDBRANCH  14  15
BRANCH  14  22
HETATM   22  C   UNL     1     -12.459  15.471  70.601  1.00  0.00    -0.435 A  
HETATM   23  C   UNL     1     -14.208  15.381  72.123  1.00  0.00    -0.565 A  
HETATM   24  C   UNL     1     -12.100  16.190  72.872  1.00  0.00    -0.643 A  
HETATM   25  C   UNL     1     -11.609  15.984  71.586  1.00  0.00    -0.538 A  
HETATM   26  N   UNL     1     -13.759  15.164  70.867  1.00  0.00    -0.347 NA 
HETATM   27  C   UNL     1     -13.426  15.885  73.149  1.00  0.00    -0.650 A  
ENDBRANCH  14  22
ENDBRANCH  13  14
ENDBRANCH  10  13
ENDBRANCH   6   7
ENDBRANCH   5   6
ENDBRANCH   4   5
TORSDOF 7
ENDMDL
MODEL        5
REMARK 921   NORMALIZED FREE ENERGY PREDICTED BY IDOCK:   -6.57 KCAL/MOL
REMARK 922        TOTAL FREE ENERGY PREDICTED BY IDOCK:  -10.72 KCAL/MOL
REMARK 923 INTER-LIGAND FREE ENERGY PREDICTED BY IDOCK:   -9.29 KCAL/MOL
REMARK 924 INTRA-LIGAND FREE ENERGY PREDICTED BY IDOCK:   -1.42 KCAL/MOL
REMARK 927      BINDING AFFINITY PREDICTED BY RF-SCORE:    0.00 PKD
ROOT
HETATM    1  O   UNL     1     -12.615  13.915  63.090  1.00  0.00    -0.775 OA 
HETATM    2  C   UNL     1     -12.282  12.747  63.688  1.00  0.00    -0.512 C  
HETATM    3  O   UNL     1     -13.064  12.122  64.386  1.00  0.00    -0.740 OA 
HETATM    4  C   UNL     1     -10.866  12.336  63.373  1.00  0.00    -0.457 C  
ENDROOT
BRANCH   4   5
HETATM    5  C   UNL     1     -10.481  11.006  64.025  1.00  0.00    -0.433 C  
BRANCH   5   6
HETATM    6  C   UNL     1      -9.517  11.264  65.189  1.00  0.00    -0.215 C  
BRANCH   6   7
HETATM    7  N   UNL     1     -10.148  11.678  66.448  1.00  0.00    -0.209 NA 
HETATM    8  C   UNL     1     -11.185  10.768  66.957  1.00  0.00    -0.089 C  
HETATM    9  C   UNL     1     -10.636   9.438  67.477  1.00  0.00    -0.333 C  
HETATM   10  C   UNL     1      -9.560   9.654  68.546  1.00  0.00    -0.145 C  
HETATM   11  C   UNL     1      -8.490  10.609  68.008  1.00  0.00    -0.119 C  
HETATM   12  C   UNL     1      -9.131  11.904  67.495  1.00  0.00    -0.178 C  
BRANCH  10  13
HETATM   13  O   UNL     1     -10.043  10.254  69.755  1.00  0.00    -0.236 OA 
BRANCH  13  14
HETATM   14  C   UNL     1     -11.362   9.886  70.195  1.00  0.00    -0.275 C  
BRANCH  14  15
HETATM   15  C   UNL     1     -11.299   8.759  71.218  1.00  0.00    -0.357 A  
HETATM   16  C   UNL     1     -12.105   7.620  71.048  1.00  0.00    -0.282 A  
HETATM   17  C   UNL     1     -11.937   6.502  71.868  1.00  0.00    -0.389 A  
HETATM   18  C   UNL     1     -10.368   8.778  72.270  1.00  0.00    -0.320 A  
HETATM   19  C   UNL     1     -10.203   7.661  73.092  1.00  0.00    -0.401 A  
HETATM   20 CL   UNL     1     -10.705   5.113  73.825  1.00  0.00    -0.330 Cl 
HETATM   21  C   UNL     1     -10.973   6.522  72.874  1.00  0.00    -0.250 A  
ENDBRANCH  14  15
BRANCH  14  22
HETATM   22  C   UNL     1     -12.087  11.134  70.697  1.00  0.00    -0.379 A  
HETATM   23  C   UNL     1     -12.476  13.410  70.481  1.00  0.00    -0.279 A  
HETATM   24  C   UNL     1     -13.541  12.247  72.261  1.00  0.00    -0.299 A  
HETATM   25  C   UNL     1     -12.922  11.082  71.818  1.00  0.00    -0.544 A  
HETATM   26  N   UNL     1     -11.865  12.296  70.023  1.00  0.00    -0.325 NA 
HETATM   27  C   UNL     1     -13.315  13.437  71.583  1.00  0.00    -0.420 A  
ENDBRANCH  14  22
ENDBRANCH  13  14
ENDBRANCH  10  13
ENDBRANCH   6   7
ENDBRANCH   5   6
ENDBRANCH   4   5
TORSDOF 7
ENDMDL
MODEL        6
REMARK 921   NORMALIZED FREE ENERGY PREDICTED BY IDOCK:   -6.50 KCAL/MOL
REMARK 922        TOTAL FREE ENERGY PREDICTED BY IDOCK:  -10.62 KCAL/MOL
REMARK 923 INTER-LIGAND FREE ENERGY PREDICTED BY IDOCK:   -9.67 KCAL/MOL
REMARK 924 INTRA-LIGAND FREE ENERGY PREDICTED BY IDOCK:   -0.94 KCAL/MOL
REMARK 927      BINDING AFFINITY PREDICTED BY RF-SCORE:    0.00 PKD
ROOT
HETATM    1  O   UNL     1      -8.373  10.125  63.670  1.00  0.00    -0.155 OA 
HETATM    2  C   UNL     1      -9.636  10.422  64.058  1.00  0.00    -0.317 C  
HETATM    3  O   UNL     1     -10.157   9.913  65.036  1.00  0.00    -0.286 OA 
HETATM    4  C   UNL     1     -10.280  11.439  63.151  1.00  0.00    -0.380 C  
ENDROOT
BRANCH   4   5
HETATM    5  C   UNL     1     -11.702  11.800  63.587  1.00  0.00    -0.517 C  
BRANCH   5   6
HETATM    6  C   UNL     1     -11.999  13.257  63.218  1.00  0.00    -0.310 C  
BRANCH   6   7
HETATM    7  N   UNL     1     -12.582  14.072  64.291  1.00  0.00    -0.685 NA 
HETATM    8  C   UNL     1     -12.756  13.380  65.577  1.00  0.00    -0.410 C  
HETATM    9  C   UNL     1     -11.441  13.077  66.297  1.00  0.00    -0.379 C  
HETATM   10  C   UNL     1     -10.605  14.345  66.495  1.00  0.00    -0.296 C  
HETATM   11  C   UNL     1     -10.436  15.062  65.152  1.00  0.00    -0.438 C  
HETATM   12  C   UNL     1     -11.800  15.308  64.496  1.00  0.00    -0.295 C  
BRANCH  10  13
HETATM   13  O   UNL     1     -11.196  15.309  67.377  1.00  0.00    -0.327 OA 
BRANCH  13  14
HETATM   14  C   UNL     1     -10.448  15.679  68.549  1.00  0.00    -0.236 C  
BRANCH  14  15
HETATM   15  C   UNL     1      -9.818  17.056  68.378  1.00  0.00    -0.283 A  
HETATM   16  C   UNL     1      -8.431  17.211  68.550  1.00  0.00    -0.262 A  
HETATM   17  C   UNL     1      -7.807  18.417  68.227  1.00  0.00    -0.314 A  
HETATM   18  C   UNL     1     -10.573  18.156  67.938  1.00  0.00    -0.389 A  
HETATM   19  C   UNL     1      -9.947  19.363  67.618  1.00  0.00    -0.476 A  
HETATM   20 CL   UNL     1      -7.784  20.936  67.260  1.00  0.00    -0.351 Cl 
HETATM   21  C   UNL     1      -8.566  19.481  67.743  1.00  0.00    -0.315 A  
ENDBRANCH  14  15
BRANCH  14  22
HETATM   22  C   UNL     1     -11.352  15.564  69.775  1.00  0.00    -0.319 A  
HETATM   23  C   UNL     1     -11.910  16.330  71.893  1.00  0.00    -0.462 A  
HETATM   24  C   UNL     1     -13.122  14.487  71.003  1.00  0.00    -0.429 A  
HETATM   25  C   UNL     1     -12.339  14.577  69.856  1.00  0.00    -0.347 A  
HETATM   26  N   UNL     1     -11.138  16.446  70.791  1.00  0.00    -0.228 NA 
HETATM   27  C   UNL     1     -12.905  15.379  72.044  1.00  0.00    -0.468 A  
ENDBRANCH  14  22
ENDBRANCH  13  14
ENDBRANCH  10  13
ENDBRANCH   6   7
ENDBRANCH   5   6
ENDBRANCH   4   5
TORSDOF 7
ENDMDL
MODEL        7
REMARK 921   NORMALIZED FREE ENERGY PREDICTED BY IDOCK:   -6.42 KCAL/MOL
REMARK 922        TOTAL FREE ENERGY PREDICTED BY IDOCK:  -10.51 KCAL/MOL
REMARK 923 INTER-LIGAND FREE ENERGY PREDICTED BY IDOCK:   -9.23 KCAL/MOL
REMARK 924 INTRA-LIGAND FREE ENERGY PREDICTED BY IDOCK:   -1.28 KCAL/MOL
REMARK 927      BINDING AFFINITY PREDICTED BY RF-SCORE:    0.00 PKD
ROOT
HETATM    1  O   UNL     1     -11.115  19.910  64.968  1.00  0.00    -0.251 OA 
HETATM    2  C   UNL     1     -10.208  19.773  65.964  1.00  0.00    -0.501 C  
HETATM    3  O   UNL     1      -9.007  19.753  65.757  1.00  0.00    -0.371 OA 
HETATM    4  C   UNL     1     -10.868  19.661  67.315  1.00  0.00    -0.519 C  
ENDROOT
BRANCH   4   5
HETATM    5  C   UNL     1      -9.855  19.525  68.454  1.00  0.00    -0.521 C  
BRANCH   5   6
HETATM    6  C   UNL     1      -9.554  18.043  68.701  1.00  0.00    -0.328 C  
BRANCH   6   7
HETATM    7  N   UNL     1     -10.542  17.101  68.161  1.00  0.00    -0.367 NA 
HETATM    8  C   UNL     1     -10.056  16.243  67.071  1.00  0.00    -0.270 C  
HETATM    9  C   UNL     1      -9.049  15.184  67.523  1.00  0.00    -0.187 C  
HETATM   10  C   UNL     1      -9.612  14.321  68.656  1.00  0.00    -0.192 C  
HETATM   11  C   UNL     1     -10.122  15.225  69.783  1.00  0.00    -0.230 C  
HETATM   12  C   UNL     1     -11.110  16.262  69.236  1.00  0.00    -0.325 C  
BRANCH  10  13
HETATM   13  O   UNL     1     -10.729  13.506  68.277  1.00  0.00    -0.243 OA 
BRANCH  13  14
HETATM   14  C   UNL     1     -10.446  12.186  67.780  1.00  0.00    -0.205 C  
BRANCH  14  15
HETATM   15  C   UNL     1     -11.020  11.122  68.706  1.00  0.00    -0.268 A  
HETATM   16  C   UNL     1     -10.490   9.820  68.681  1.00  0.00    -0.233 A  
HETATM   17  C   UNL     1     -10.873   8.878  69.638  1.00  0.00    -0.186 A  
HETATM   18  C   UNL     1     -11.990  11.438  69.671  1.00  0.00    -0.416 A  
HETATM   19  C   UNL     1     -12.375  10.495  70.627  1.00  0.00    -0.449 A  
HETATM   20 CL   UNL     1     -12.203   8.096  71.851  1.00  0.00    -0.346 Cl 
HETATM   21  C   UNL     1     -11.799   9.227  70.618  1.00  0.00    -0.192 A  
ENDBRANCH  14  15
BRANCH  14  22
HETATM   22  C   UNL     1     -10.943  12.079  66.338  1.00  0.00    -0.296 A  
HETATM   23  C   UNL     1     -12.572  12.597  64.770  1.00  0.00    -0.454 A  
HETATM   24  C   UNL     1     -10.741  11.240  64.090  1.00  0.00    -0.436 A  
HETATM   25  C   UNL     1     -10.240  11.337  65.384  1.00  0.00    -0.323 A  
HETATM   26  N   UNL     1     -12.108  12.714  66.033  1.00  0.00    -0.574 NA 
HETATM   27  C   UNL     1     -11.932  11.881  63.773  1.00  0.00    -0.547 A  
ENDBRANCH  14  22
ENDBRANCH  13  14
ENDBRANCH  10  13
ENDBRANCH   6   7
ENDBRANCH   5   6
ENDBRANCH   4   5
TORSDOF 7
ENDMDL
MODEL        8
REMARK 921   NORMALIZED FREE ENERGY PREDICTED BY IDOCK:   -6.38 KCAL/MOL
REMARK 922        TOTAL FREE ENERGY PREDICTED BY IDOCK:  -10.46 KCAL/MOL
REMARK 923 INTER-LIGAND FREE ENERGY PREDICTED BY IDOCK:   -9.19 KCAL/MOL
REMARK 924 INTRA-LIGAND FREE ENERGY PREDICTED BY IDOCK:   -1.26 KCAL/MOL
REMARK 927      BINDING AFFINITY PREDICTED BY RF-SCORE:    0.00 PKD
ROOT
HETATM    1  O   UNL     1      -6.126  20.351  65.566  1.00  0.00    -0.197 OA 
HETATM    2  C   UNL     1      -7.064  20.531  66.525  1.00  0.00    -0.240 C  
HETATM    3  O   UNL     1      -6.943  21.359  67.413  1.00  0.00    -0.572 OA 
HETATM    4  C   UNL     1      -8.241  19.606  66.343  1.00  0.00    -0.356 C  
ENDROOT
BRANCH   4   5
HETATM    5  C   UNL     1      -9.320  19.811  67.408  1.00  0.00    -0.444 C  
BRANCH   5   6
HETATM    6  C   UNL     1      -9.333  18.614  68.365  1.00  0.00    -0.337 C  
BRANCH   6   7
HETATM    7  N   UNL     1     -10.421  17.651  68.155  1.00  0.00    -0.382 NA 
HETATM    8  C   UNL     1     -10.321  16.856  66.922  1.00  0.00    -0.304 C  
HETATM    9  C   UNL     1      -9.191  15.825  66.943  1.00  0.00    -0.250 C  
HETATM   10  C   UNL     1      -9.300  14.897  68.157  1.00  0.00    -0.193 C  
HETATM   11  C   UNL     1      -9.410  15.736  69.434  1.00  0.00    -0.269 C  
HETATM   12  C   UNL     1     -10.555  16.749  69.317  1.00  0.00    -0.336 C  
BRANCH  10  13
HETATM   13  O   UNL     1     -10.456  14.049  68.149  1.00  0.00    -0.232 OA 
BRANCH  13  14
HETATM   14  C   UNL     1     -10.283  12.699  67.684  1.00  0.00    -0.217 C  
BRANCH  14  15
HETATM   15  C   UNL     1     -10.782  11.700  68.720  1.00  0.00    -0.254 A  
HETATM   16  C   UNL     1     -10.073  10.504  68.929  1.00  0.00    -0.215 A  
HETATM   17  C   UNL     1     -10.405   9.658  69.990  1.00  0.00    -0.298 A  
HETATM   18  C   UNL     1     -11.871  11.996  69.556  1.00  0.00    -0.390 A  
HETATM   19  C   UNL     1     -12.204  11.148  70.615  1.00  0.00    -0.492 A  
HETATM   20 CL   UNL     1     -11.806   9.000  72.199  1.00  0.00    -0.416 Cl 
HETATM   21  C   UNL     1     -11.456   9.995  70.839  1.00  0.00    -0.371 A  
ENDBRANCH  14  15
BRANCH  14  22
HETATM   22  C   UNL     1     -10.949  12.552  66.317  1.00  0.00    -0.277 A  
HETATM   23  C   UNL     1     -12.632  13.211  64.862  1.00  0.00    -0.407 A  
HETATM   24  C   UNL     1     -11.147  11.489  64.165  1.00  0.00    -0.417 A  
HETATM   25  C   UNL     1     -10.494  11.611  65.388  1.00  0.00    -0.324 A  
HETATM   26  N   UNL     1     -12.016  13.357  66.055  1.00  0.00    -0.392 NA 
HETATM   27  C   UNL     1     -12.239  12.302  63.894  1.00  0.00    -0.608 A  
ENDBRANCH  14  22
ENDBRANCH  13  14
ENDBRANCH  10  13
ENDBRANCH   6   7
ENDBRANCH   5   6
ENDBRANCH   4   5
TORSDOF 7
ENDMDL
MODEL        9
REMARK 921   NORMALIZED FREE ENERGY PREDICTED BY IDOCK:   -6.38 KCAL/MOL
REMARK 922        TOTAL FREE ENERGY PREDICTED BY IDOCK:  -10.45 KCAL/MOL
REMARK 923 INTER-LIGAND FREE ENERGY PREDICTED BY IDOCK:   -9.45 KCAL/MOL
REMARK 924 INTRA-LIGAND FREE ENERGY PREDICTED BY IDOCK:   -1.00 KCAL/MOL
REMARK 927      BINDING AFFINITY PREDICTED BY RF-SCORE:    0.00 PKD
ROOT
HETATM    1  O   UNL     1     -11.612   8.502  71.195  1.00  0.00    -0.271 OA 
HETATM    2  C   UNL     1     -12.576   9.287  71.732  1.00  0.00    -0.382 C  
HETATM    3  O   UNL     1     -13.465   8.843  72.438  1.00  0.00    -0.425 OA 
HETATM    4  C   UNL     1     -12.396  10.736  71.355  1.00  0.00    -0.433 C  
ENDROOT
BRANCH   4   5
HETATM    5  C   UNL     1     -13.466  11.641  71.970  1.00  0.00    -0.304 C  
BRANCH   5   6
HETATM    6  C   UNL     1     -12.929  13.072  72.078  1.00  0.00    -0.291 C  
BRANCH   6   7
HETATM    7  N   UNL     1     -13.282  13.962  70.966  1.00  0.00    -0.244 NA 
HETATM    8  C   UNL     1     -13.114  15.398  71.238  1.00  0.00    -0.493 C  
HETATM    9  C   UNL     1     -11.653  15.838  71.344  1.00  0.00    -0.511 C  
HETATM   10  C   UNL     1     -10.855  15.446  70.097  1.00  0.00    -0.309 C  
HETATM   11  C   UNL     1     -11.043  13.951  69.819  1.00  0.00    -0.063 C  
HETATM   12  C   UNL     1     -12.534  13.599  69.745  1.00  0.00    -0.137 C  
BRANCH  10  13
HETATM   13  O   UNL     1     -11.267  16.118  68.899  1.00  0.00    -0.319 OA 
BRANCH  13  14
HETATM   14  C   UNL     1     -10.323  16.175  67.815  1.00  0.00    -0.283 C  
BRANCH  14  15
HETATM   15  C   UNL     1     -10.816  15.366  66.622  1.00  0.00    -0.302 A  
HETATM   16  C   UNL     1      -9.898  14.938  65.647  1.00  0.00    -0.372 A  
HETATM   17  C   UNL     1     -10.290  14.050  64.644  1.00  0.00    -0.337 A  
HETATM   18  C   UNL     1     -12.149  14.935  66.531  1.00  0.00     0.005 A  
HETATM   19  C   UNL     1     -12.542  14.048  65.526  1.00  0.00    -0.543 A  
HETATM   20 CL   UNL     1     -12.067  12.429  63.420  1.00  0.00    -0.616 Cl 
HETATM   21  C   UNL     1     -11.606  13.593  64.601  1.00  0.00    -0.371 A  
ENDBRANCH  14  15
BRANCH  14  22
HETATM   22  C   UNL     1     -10.030  17.639  67.486  1.00  0.00    -0.322 A  
HETATM   23  C   UNL     1      -8.990  19.624  68.084  1.00  0.00    -0.324 A  
HETATM   24  C   UNL     1     -10.317  19.594  66.111  1.00  0.00    -0.627 A  
HETATM   25  C   UNL     1     -10.586  18.252  66.360  1.00  0.00    -0.318 A  
HETATM   26  N   UNL     1      -9.227  18.321  68.349  1.00  0.00    -0.310 NA 
HETATM   27  C   UNL     1      -9.505  20.298  66.989  1.00  0.00    -0.546 A  
ENDBRANCH  14  22
ENDBRANCH  13  14
ENDBRANCH  10  13
ENDBRANCH   6   7
ENDBRANCH   5   6
ENDBRANCH   4   5
TORSDOF 7
ENDMDL
MODEL       10
REMARK 921   NORMALIZED FREE ENERGY PREDICTED BY IDOCK:   -6.36 KCAL/MOL
REMARK 922        TOTAL FREE ENERGY PREDICTED BY IDOCK:  -10.42 KCAL/MOL
REMARK 923 INTER-LIGAND FREE ENERGY PREDICTED BY IDOCK:   -9.34 KCAL/MOL
REMARK 924 INTRA-LIGAND FREE ENERGY PREDICTED BY IDOCK:   -1.08 KCAL/MOL
REMARK 927      BINDING AFFINITY PREDICTED BY RF-SCORE:    0.00 PKD
ROOT
HETATM    1  O   UNL     1      -5.808  20.048  71.083  1.00  0.00    -0.301 OA 
HETATM    2  C   UNL     1      -6.014  20.332  69.775  1.00  0.00    -0.359 C  
HETATM    3  O   UNL     1      -5.354  21.163  69.174  1.00  0.00    -0.351 OA 
HETATM    4  C   UNL     1      -7.125  19.500  69.186  1.00  0.00    -0.392 C  
ENDROOT
BRANCH   4   5
HETATM    5  C   UNL     1      -7.357  19.794  67.703  1.00  0.00    -0.306 C  
BRANCH   5   6
HETATM    6  C   UNL     1      -7.944  18.555  67.018  1.00  0.00    -0.236 C  
BRANCH   6   7
HETATM    7  N   UNL     1      -8.982  17.849  67.778  1.00  0.00    -0.251 NA 
HETATM    8  C   UNL     1     -10.315  17.839  67.156  1.00  0.00    -0.353 C  
HETATM    9  C   UNL     1     -10.403  16.965  65.904  1.00  0.00    -0.327 C  
HETATM   10  C   UNL     1      -9.949  15.530  66.187  1.00  0.00    -0.309 C  
HETATM   11  C   UNL     1      -8.564  15.552  66.842  1.00  0.00    -0.289 C  
HETATM   12  C   UNL     1      -8.565  16.464  68.075  1.00  0.00    -0.185 C  
BRANCH  10  13
HETATM   13  O   UNL     1     -10.796  14.812  67.095  1.00  0.00    -0.296 OA 
BRANCH  13  14
HETATM   14  C   UNL     1     -10.713  13.377  67.081  1.00  0.00    -0.264 C  
BRANCH  14  15
HETATM   15  C   UNL     1     -11.453  12.779  68.271  1.00  0.00    -0.354 A  
HETATM   16  C   UNL     1     -11.629  11.386  68.351  1.00  0.00    -0.385 A  
HETATM   17  C   UNL     1     -12.142  10.800  69.510  1.00  0.00    -0.344 A  
HETATM   18  C   UNL     1     -11.866  13.575  69.352  1.00  0.00    -0.389 A  
HETATM   19  C   UNL     1     -12.382  12.989  70.509  1.00  0.00    -0.365 A  
HETATM   20 CL   UNL     1     -13.045  10.876  72.051  1.00  0.00    -0.567 Cl 
HETATM   21  C   UNL     1     -12.498  11.604  70.591  1.00  0.00    -0.295 A  
ENDBRANCH  14  15
BRANCH  14  22
HETATM   22  C   UNL     1     -11.205  12.861  65.729  1.00  0.00    -0.294 A  
HETATM   23  C   UNL     1     -12.988  12.471  64.297  1.00  0.00    -0.156 A  
HETATM   24  C   UNL     1     -10.812  11.812  63.597  1.00  0.00    -0.508 A  
HETATM   25  C   UNL     1     -10.321  12.296  64.806  1.00  0.00    -0.320 A  
HETATM   26  N   UNL     1     -12.540  12.954  65.476  1.00  0.00    -0.583 NA 
HETATM   27  C   UNL     1     -12.173  11.898  63.335  1.00  0.00    -0.561 A  
ENDBRANCH  14  22
ENDBRANCH  13  14
ENDBRANCH  10  13
ENDBRANCH   6   7
ENDBRANCH   5   6
ENDBRANCH   4   5
TORSDOF 7
ENDMDL
MODEL       11
REMARK 921   NORMALIZED FREE ENERGY PREDICTED BY IDOCK:   -6.21 KCAL/MOL
REMARK 922        TOTAL FREE ENERGY PREDICTED BY IDOCK:  -10.21 KCAL/MOL
REMARK 923 INTER-LIGAND FREE ENERGY PREDICTED BY IDOCK:   -8.77 KCAL/MOL
REMARK 924 INTRA-LIGAND FREE ENERGY PREDICTED BY IDOCK:   -1.44 KCAL/MOL
REMARK 927      BINDING AFFINITY PREDICTED BY RF-SCORE:    0.00 PKD
ROOT
HETATM    1  O   UNL     1      -8.739   8.537  65.521  1.00  0.00    -0.171 OA 
HETATM    2  C   UNL     1      -8.611   9.794  65.035  1.00  0.00    -0.162 C  
HETATM    3  O   UNL     1      -7.735  10.555  65.411  1.00  0.00    -0.149 OA 
HETATM    4  C   UNL     1      -9.659  10.107  63.997  1.00  0.00    -0.320 C  
ENDROOT
BRANCH   4   5
HETATM    5  C   UNL     1      -9.516  11.518  63.424  1.00  0.00    -0.270 C  
BRANCH   5   6
HETATM    6  C   UNL     1     -10.809  12.304  63.665  1.00  0.00    -0.469 C  
BRANCH   6   7
HETATM    7  N   UNL     1     -10.648  13.580  64.372  1.00  0.00    -0.419 NA 
HETATM    8  C   UNL     1     -11.874  14.381  64.505  1.00  0.00    -0.449 C  
HETATM    9  C   UNL     1     -12.897  13.784  65.473  1.00  0.00    -0.464 C  
HETATM   10  C   UNL     1     -12.284  13.534  66.854  1.00  0.00    -0.327 C  
HETATM   11  C   UNL     1     -11.004  12.707  66.704  1.00  0.00    -0.292 C  
HETATM   12  C   UNL     1     -10.047  13.369  65.705  1.00  0.00    -0.274 C  
BRANCH  10  13
HETATM   13  O   UNL     1     -11.896  14.726  67.551  1.00  0.00    -0.375 OA 
BRANCH  13  14
HETATM   14  C   UNL     1     -11.094  14.568  68.734  1.00  0.00    -0.251 C  
BRANCH  14  15
HETATM   15  C   UNL     1     -10.066  15.687  68.847  1.00  0.00    -0.217 A  
HETATM   16  C   UNL     1      -8.784  15.405  69.351  1.00  0.00    -0.252 A  
HETATM   17  C   UNL     1      -7.773  16.366  69.299  1.00  0.00    -0.171 A  
HETATM   18  C   UNL     1     -10.329  16.974  68.350  1.00  0.00    -0.351 A  
HETATM   19  C   UNL     1      -9.317  17.937  68.300  1.00  0.00    -0.287 A  
HETATM   20 CL   UNL     1      -6.771  18.774  68.607  1.00  0.00    -0.274 Cl 
HETATM   21  C   UNL     1      -8.040  17.621  68.755  1.00  0.00    -0.233 A  
ENDBRANCH  14  15
BRANCH  14  22
HETATM   22  C   UNL     1     -12.014  14.454  69.950  1.00  0.00    -0.335 A  
HETATM   23  C   UNL     1     -12.925  13.121  71.615  1.00  0.00    -0.335 A  
HETATM   24  C   UNL     1     -13.612  15.394  71.486  1.00  0.00    -0.604 A  
HETATM   25  C   UNL     1     -12.764  15.547  70.394  1.00  0.00    -0.382 A  
HETATM   26  N   UNL     1     -12.089  13.239  70.561  1.00  0.00    -0.345 NA 
HETATM   27  C   UNL     1     -13.698  14.157  72.111  1.00  0.00    -0.587 A  
ENDBRANCH  14  22
ENDBRANCH  13  14
ENDBRANCH  10  13
ENDBRANCH   6   7
ENDBRANCH   5   6
ENDBRANCH   4   5
TORSDOF 7
ENDMDL
MODEL       12
REMARK 921   NORMALIZED FREE ENERGY PREDICTED BY IDOCK:   -6.19 KCAL/MOL
REMARK 922        TOTAL FREE ENERGY PREDICTED BY IDOCK:  -10.19 KCAL/MOL
REMARK 923 INTER-LIGAND FREE ENERGY PREDICTED BY IDOCK:   -8.99 KCAL/MOL
REMARK 924 INTRA-LIGAND FREE ENERGY PREDICTED BY IDOCK:   -1.20 KCAL/MOL
REMARK 927      BINDING AFFINITY PREDICTED BY RF-SCORE:    0.00 PKD
ROOT
HETATM    1  O   UNL     1      -9.877   4.308  68.736  1.00  0.00    -0.140 OA 
HETATM    2  C   UNL     1     -10.044   4.714  70.017  1.00  0.00    -0.197 C  
HETATM    3  O   UNL     1      -9.501   4.157  70.956  1.00  0.00    -0.136 OA 
HETATM    4  C   UNL     1     -10.953   5.913  70.114  1.00  0.00    -0.412 C  
ENDROOT
BRANCH   4   5
HETATM    5  C   UNL     1     -11.137   6.396  71.554  1.00  0.00    -0.322 C  
BRANCH   5   6
HETATM    6  C   UNL     1     -12.108   7.581  71.579  1.00  0.00    -0.316 C  
BRANCH   6   7
HETATM    7  N   UNL     1     -11.503   8.886  71.871  1.00  0.00    -0.355 NA 
HETATM    8  C   UNL     1     -10.333   9.230  71.049  1.00  0.00    -0.318 C  
HETATM    9  C   UNL     1     -10.673   9.531  69.589  1.00  0.00    -0.257 C  
HETATM   10  C   UNL     1     -11.735  10.629  69.474  1.00  0.00    -0.284 C  
HETATM   11  C   UNL     1     -12.945  10.265  70.339  1.00  0.00    -0.153 C  
HETATM   12  C   UNL     1     -12.507   9.964  71.778  1.00  0.00    -0.397 C  
BRANCH  10  13
HETATM   13  O   UNL     1     -11.302  11.917  69.935  1.00  0.00    -0.215 OA 
BRANCH  13  14
HETATM   14  C   UNL     1     -12.058  13.062  69.504  1.00  0.00    -0.230 C  
BRANCH  14  15
HETATM   15  C   UNL     1     -12.283  14.030  70.659  1.00  0.00    -0.442 A  
HETATM   16  C   UNL     1     -13.124  13.659  71.723  1.00  0.00    -0.468 A  
HETATM   17  C   UNL     1     -13.205  14.447  72.872  1.00  0.00    -0.613 A  
HETATM   18  C   UNL     1     -11.578  15.241  70.745  1.00  0.00    -0.371 A  
HETATM   19  C   UNL     1     -11.662  16.032  71.894  1.00  0.00    -0.594 A  
HETATM   20 CL   UNL     1     -12.490  16.545  74.410  1.00  0.00    -0.525 Cl 
HETATM   21  C   UNL     1     -12.459  15.620  72.959  1.00  0.00    -0.457 A  
ENDBRANCH  14  15
BRANCH  14  22
HETATM   22  C   UNL     1     -11.364  13.693  68.298  1.00  0.00    -0.289 A  
HETATM   23  C   UNL     1     -11.556  14.791  66.263  1.00  0.00    -0.298 A  
HETATM   24  C   UNL     1      -9.380  14.226  67.041  1.00  0.00    -0.249 A  
HETATM   25  C   UNL     1      -9.972  13.665  68.168  1.00  0.00    -0.246 A  
HETATM   26  N   UNL     1     -12.160  14.260  67.349  1.00  0.00    -0.386 NA 
HETATM   27  C   UNL     1     -10.186  14.800  66.066  1.00  0.00    -0.320 A  
ENDBRANCH  14  22
ENDBRANCH  13  14
ENDBRANCH  10  13
ENDBRANCH   6   7
ENDBRANCH   5   6
ENDBRANCH   4   5
TORSDOF 7
ENDMDL
MODEL       13
REMARK 921   NORMALIZED FREE ENERGY PREDICTED BY IDOCK:   -6.12 KCAL/MOL
REMARK 922        TOTAL FREE ENERGY PREDICTED BY IDOCK:  -10.09 KCAL/MOL
REMARK 923 INTER-LIGAND FREE ENERGY PREDICTED BY IDOCK:   -8.85 KCAL/MOL
REMARK 924 INTRA-LIGAND FREE ENERGY PREDICTED BY IDOCK:   -1.24 KCAL/MOL
REMARK 927      BINDING AFFINITY PREDICTED BY RF-SCORE:    0.00 PKD
ROOT
HETATM    1  O   UNL     1     -14.258   7.018  71.610  1.00  0.00    -0.369 OA 
HETATM    2  C   UNL     1     -12.950   7.367  71.622  1.00  0.00    -0.366 C  
HETATM    3  O   UNL     1     -12.491   8.156  72.431  1.00  0.00    -0.322 OA 
HETATM    4  C   UNL     1     -12.169   6.665  70.541  1.00  0.00    -0.209 C  
ENDROOT
BRANCH   4   5
HETATM    5  C   UNL     1     -10.684   7.035  70.554  1.00  0.00    -0.262 C  
BRANCH   5   6
HETATM    6  C   UNL     1     -10.315   7.725  69.237  1.00  0.00    -0.219 C  
BRANCH   6   7
HETATM    7  N   UNL     1      -9.684   9.044  69.372  1.00  0.00    -0.166 NA 
HETATM    8  C   UNL     1      -9.556   9.807  68.122  1.00  0.00    -0.143 C  
HETATM    9  C   UNL     1     -10.889  10.318  67.572  1.00  0.00    -0.355 C  
HETATM   10  C   UNL     1     -11.646  11.146  68.615  1.00  0.00    -0.315 C  
HETATM   11  C   UNL     1     -11.767  10.346  69.915  1.00  0.00    -0.341 C  
HETATM   12  C   UNL     1     -10.389   9.861  70.381  1.00  0.00    -0.260 C  
BRANCH  10  13
HETATM   13  O   UNL     1     -10.998  12.374  68.975  1.00  0.00    -0.236 OA 
BRANCH  13  14
HETATM   14  C   UNL     1     -11.700  13.598  68.695  1.00  0.00    -0.354 C  
BRANCH  14  15
HETATM   15  C   UNL     1     -12.041  14.335  69.984  1.00  0.00    -0.400 A  
HETATM   16  C   UNL     1     -12.771  13.677  70.989  1.00  0.00    -0.408 A  
HETATM   17  C   UNL     1     -12.942  14.263  72.244  1.00  0.00    -0.460 A  
HETATM   18  C   UNL     1     -11.542  15.623  70.245  1.00  0.00    -0.370 A  
HETATM   19  C   UNL     1     -11.716  16.211  71.499  1.00  0.00    -0.533 A  
HETATM   20 CL   UNL     1     -12.529  16.204  74.072  1.00  0.00    -0.678 Cl 
HETATM   21  C   UNL     1     -12.396  15.520  72.499  1.00  0.00    -0.411 A  
ENDBRANCH  14  15
BRANCH  14  22
HETATM   22  C   UNL     1     -10.879  14.430  67.710  1.00  0.00    -0.258 A  
HETATM   23  C   UNL     1     -10.836  15.766  65.814  1.00  0.00    -0.280 A  
HETATM   24  C   UNL     1      -8.775  15.264  66.888  1.00  0.00    -0.288 A  
HETATM   25  C   UNL     1      -9.489  14.519  67.822  1.00  0.00    -0.210 A  
HETATM   26  N   UNL     1     -11.558  15.056  66.709  1.00  0.00    -0.267 NA 
HETATM   27  C   UNL     1      -9.459  15.899  65.861  1.00  0.00    -0.372 A  
ENDBRANCH  14  22
ENDBRANCH  13  14
ENDBRANCH  10  13
ENDBRANCH   6   7
ENDBRANCH   5   6
ENDBRANCH   4   5
TORSDOF 7
ENDMDL
MODEL       14
REMARK 921   NORMALIZED FREE ENERGY PREDICTED BY IDOCK:   -6.10 KCAL/MOL
REMARK 922        TOTAL FREE ENERGY PREDICTED BY IDOCK:  -10.05 KCAL/MOL
REMARK 923 INTER-LIGAND FREE ENERGY PREDICTED BY IDOCK:   -9.33 KCAL/MOL
REMARK 924 INTRA-LIGAND FREE ENERGY PREDICTED BY IDOCK:   -0.72 KCAL/MOL
REMARK 927      BINDING AFFINITY PREDICTED BY RF-SCORE:    0.00 PKD
ROOT
HETATM    1  O   UNL     1     -12.651  13.493  62.714  1.00  0.00    -0.445 OA 
HETATM    2  C   UNL     1     -12.363  12.672  63.751  1.00  0.00    -0.478 C  
HETATM    3  O   UNL     1     -13.146  12.472  64.665  1.00  0.00    -0.845 OA 
HETATM    4  C   UNL     1     -10.994  12.055  63.618  1.00  0.00    -0.517 C  
ENDROOT
BRANCH   4   5
HETATM    5  C   UNL     1     -10.660  11.108  64.773  1.00  0.00    -0.371 C  
BRANCH   5   6
HETATM    6  C   UNL     1      -9.434  11.631  65.529  1.00  0.00    -0.195 C  
BRANCH   6   7
HETATM    7  N   UNL     1      -9.707  12.199  66.854  1.00  0.00    -0.202 NA 
HETATM    8  C   UNL     1      -8.518  12.470  67.675  1.00  0.00    -0.171 C  
HETATM    9  C   UNL     1      -7.671  13.638  67.166  1.00  0.00     0.012 C  
HETATM   10  C   UNL     1      -8.505  14.914  67.018  1.00  0.00    -0.231 C  
HETATM   11  C   UNL     1      -9.745  14.619  66.169  1.00  0.00    -0.344 C  
HETATM   12  C   UNL     1     -10.521  13.427  66.742  1.00  0.00    -0.275 C  
BRANCH  10  13
HETATM   13  O   UNL     1      -9.001  15.441  68.257  1.00  0.00    -0.178 OA 
BRANCH  13  14
HETATM   14  C   UNL     1     -10.254  16.146  68.222  1.00  0.00    -0.248 C  
BRANCH  14  15
HETATM   15  C   UNL     1     -11.112  15.790  69.429  1.00  0.00    -0.314 A  
HETATM   16  C   UNL     1     -12.017  14.717  69.345  1.00  0.00    -0.351 A  
HETATM   17  C   UNL     1     -12.681  14.258  70.484  1.00  0.00    -0.391 A  
HETATM   18  C   UNL     1     -10.938  16.433  70.665  1.00  0.00    -0.099 A  
HETATM   19  C   UNL     1     -11.606  15.976  71.804  1.00  0.00    -0.534 A  
HETATM   20 CL   UNL     1     -13.206  14.255  73.130  1.00  0.00    -0.516 Cl 
HETATM   21  C   UNL     1     -12.457  14.878  71.712  1.00  0.00    -0.339 A  
ENDBRANCH  14  15
BRANCH  14  22
HETATM   22  C   UNL     1      -9.980  17.643  68.083  1.00  0.00    -0.330 A  
HETATM   23  C   UNL     1     -10.612  19.689  67.190  1.00  0.00    -0.487 A  
HETATM   24  C   UNL     1      -8.625  19.591  68.493  1.00  0.00    -0.379 A  
HETATM   25  C   UNL     1      -8.853  18.230  68.667  1.00  0.00    -0.294 A  
HETATM   26  N   UNL     1     -10.865  18.371  67.346  1.00  0.00    -0.355 NA 
HETATM   27  C   UNL     1      -9.519  20.339  67.738  1.00  0.00    -0.453 A  
ENDBRANCH  14  22
ENDBRANCH  13  14
ENDBRANCH  10  13
ENDBRANCH   6   7
ENDBRANCH   5   6
ENDBRANCH   4   5
TORSDOF 7
ENDMDL
MODEL       15
REMARK 921   NORMALIZED FREE ENERGY PREDICTED BY IDOCK:   -6.10 KCAL/MOL
REMARK 922        TOTAL FREE ENERGY PREDICTED BY IDOCK:  -10.05 KCAL/MOL
REMARK 923 INTER-LIGAND FREE ENERGY PREDICTED BY IDOCK:   -9.03 KCAL/MOL
REMARK 924 INTRA-LIGAND FREE ENERGY PREDICTED BY IDOCK:   -1.03 KCAL/MOL
REMARK 927      BINDING AFFINITY PREDICTED BY RF-SCORE:    0.00 PKD
ROOT
HETATM    1  O   UNL     1     -10.354   4.241  73.958  1.00  0.00    -0.171 OA 
HETATM    2  C   UNL     1     -10.708   5.504  73.623  1.00  0.00    -0.282 C  
HETATM    3  O   UNL     1     -10.380   6.473  74.287  1.00  0.00    -0.349 OA 
HETATM    4  C   UNL     1     -11.524   5.544  72.356  1.00  0.00    -0.266 C  
ENDROOT
BRANCH   4   5
HETATM    5  C   UNL     1     -11.914   6.967  71.952  1.00  0.00    -0.355 C  
BRANCH   5   6
HETATM    6  C   UNL     1     -11.031   7.434  70.790  1.00  0.00    -0.255 C  
BRANCH   6   7
HETATM    7  N   UNL     1     -10.407   8.751  70.962  1.00  0.00    -0.216 NA 
HETATM    8  C   UNL     1      -9.815   9.325  69.745  1.00  0.00    -0.188 C  
HETATM    9  C   UNL     1     -10.847   9.767  68.707  1.00  0.00    -0.219 C  
HETATM   10  C   UNL     1     -11.863  10.745  69.305  1.00  0.00    -0.288 C  
HETATM   11  C   UNL     1     -12.468  10.140  70.576  1.00  0.00    -0.304 C  
HETATM   12  C   UNL     1     -11.363   9.712  71.549  1.00  0.00    -0.350 C  
BRANCH  10  13
HETATM   13  O   UNL     1     -11.305  12.005  69.703  1.00  0.00    -0.247 OA 
BRANCH  13  14
HETATM   14  C   UNL     1     -12.017  13.194  69.320  1.00  0.00    -0.292 C  
BRANCH  14  15
HETATM   15  C   UNL     1     -12.238  14.105  70.520  1.00  0.00    -0.431 A  
HETATM   16  C   UNL     1     -13.014  13.652  71.602  1.00  0.00    -0.448 A  
HETATM   17  C   UNL     1     -13.084  14.392  72.784  1.00  0.00    -0.595 A  
HETATM   18  C   UNL     1     -11.589  15.346  70.626  1.00  0.00    -0.363 A  
HETATM   19  C   UNL     1     -11.663  16.088  71.808  1.00  0.00    -0.593 A  
HETATM   20 CL   UNL     1     -12.406  16.463  74.375  1.00  0.00    -0.603 Cl 
HETATM   21  C   UNL     1     -12.392  15.597  72.888  1.00  0.00    -0.447 A  
ENDBRANCH  14  15
BRANCH  14  22
HETATM   22  C   UNL     1     -11.277  13.868  68.165  1.00  0.00    -0.268 A  
HETATM   23  C   UNL     1      -9.265  14.602  67.272  1.00  0.00    -0.205 A  
HETATM   24  C   UNL     1     -11.260  15.004  66.041  1.00  0.00    -0.310 A  
HETATM   25  C   UNL     1     -11.968  14.371  67.059  1.00  0.00    -0.424 A  
HETATM   26  N   UNL     1      -9.924  13.978  68.273  1.00  0.00    -0.231 NA 
HETATM   27  C   UNL     1      -9.881  15.125  66.148  1.00  0.00    -0.325 A  
ENDBRANCH  14  22
ENDBRANCH  13  14
ENDBRANCH  10  13
ENDBRANCH   6   7
ENDBRANCH   5   6
ENDBRANCH   4   5
TORSDOF 7
ENDMDL
MODEL       16
REMARK 921   NORMALIZED FREE ENERGY PREDICTED BY IDOCK:   -5.94 KCAL/MOL
REMARK 922        TOTAL FREE ENERGY PREDICTED BY IDOCK:   -9.83 KCAL/MOL
REMARK 923 INTER-LIGAND FREE ENERGY PREDICTED BY IDOCK:   -9.48 KCAL/MOL
REMARK 924 INTRA-LIGAND FREE ENERGY PREDICTED BY IDOCK:   -0.35 KCAL/MOL
REMARK 927      BINDING AFFINITY PREDICTED BY RF-SCORE:    0.00 PKD
ROOT
HETATM    1  O   UNL     1     -11.137  19.889  65.266  1.00  0.00    -0.360 OA 
HETATM    2  C   UNL     1     -10.528  18.994  66.079  1.00  0.00    -0.458 C  
HETATM    3  O   UNL     1     -10.210  17.878  65.703  1.00  0.00    -0.589 OA 
HETATM    4  C   UNL     1     -10.298  19.553  67.460  1.00  0.00    -0.567 C  
ENDROOT
BRANCH   4   5
HETATM    5  C   UNL     1      -9.592  18.560  68.386  1.00  0.00    -0.383 C  
BRANCH   5   6
HETATM    6  C   UNL     1     -10.598  17.518  68.886  1.00  0.00    -0.193 C  
BRANCH   6   7
HETATM    7  N   UNL     1     -10.020  16.236  69.307  1.00  0.00    -0.257 NA 
HETATM    8  C   UNL     1     -10.717  15.572  70.418  1.00  0.00    -0.320 C  
HETATM    9  C   UNL     1     -12.090  15.016  70.040  1.00  0.00    -0.382 C  
HETATM   10  C   UNL     1     -12.002  14.070  68.838  1.00  0.00    -0.352 C  
HETATM   11  C   UNL     1     -11.268  14.769  67.690  1.00  0.00    -0.332 C  
HETATM   12  C   UNL     1      -9.912  15.307  68.164  1.00  0.00    -0.221 C  
BRANCH  10  13
HETATM   13  O   UNL     1     -11.268  12.864  69.091  1.00  0.00    -0.256 OA 
BRANCH  13  14
HETATM   14  C   UNL     1     -11.899  11.620  68.740  1.00  0.00    -0.325 C  
BRANCH  14  15
HETATM   15  C   UNL     1     -11.257  11.016  67.498  1.00  0.00    -0.372 A  
HETATM   16  C   UNL     1     -11.095  11.806  66.346  1.00  0.00    -0.360 A  
HETATM   17  C   UNL     1     -10.353  11.336  65.261  1.00  0.00    -0.337 A  
HETATM   18  C   UNL     1     -10.715   9.720  67.511  1.00  0.00    -0.327 A  
HETATM   19  C   UNL     1      -9.976   9.249  66.423  1.00  0.00    -0.356 A  
HETATM   20 CL   UNL     1      -8.791   9.523  64.014  1.00  0.00    -0.248 Cl 
HETATM   21  C   UNL     1      -9.780  10.067  65.313  1.00  0.00    -0.306 A  
ENDBRANCH  14  15
BRANCH  14  22
HETATM   22  C   UNL     1     -11.881  10.692  69.955  1.00  0.00    -0.315 A  
HETATM   23  C   UNL     1     -13.050   9.695  71.693  1.00  0.00    -0.412 A  
HETATM   24  C   UNL     1     -10.714   9.286  71.523  1.00  0.00    -0.425 A  
HETATM   25  C   UNL     1     -10.693  10.102  70.396  1.00  0.00    -0.329 A  
HETATM   26  N   UNL     1     -13.063  10.488  70.599  1.00  0.00    -0.305 NA 
HETATM   27  C   UNL     1     -11.914   9.078  72.188  1.00  0.00    -0.395 A  
ENDBRANCH  14  22
ENDBRANCH  13  14
ENDBRANCH  10  13
ENDBRANCH   6   7
ENDBRANCH   5   6
ENDBRANCH   4   5
TORSDOF 7
ENDMDL
MODEL       17
REMARK 921   NORMALIZED FREE ENERGY PREDICTED BY IDOCK:   -5.87 KCAL/MOL
REMARK 922        TOTAL FREE ENERGY PREDICTED BY IDOCK:   -9.73 KCAL/MOL
REMARK 923 INTER-LIGAND FREE ENERGY PREDICTED BY IDOCK:   -9.06 KCAL/MOL
REMARK 924 INTRA-LIGAND FREE ENERGY PREDICTED BY IDOCK:   -0.67 KCAL/MOL
REMARK 927      BINDING AFFINITY PREDICTED BY RF-SCORE:    0.00 PKD
ROOT
HETATM    1  O   UNL     1      -8.595   8.730  63.105  1.00  0.00    -0.170 OA 
HETATM    2  C   UNL     1      -8.905   9.886  63.738  1.00  0.00    -0.232 C  
HETATM    3  O   UNL     1      -8.413  10.199  64.809  1.00  0.00    -0.158 OA 
HETATM    4  C   UNL     1      -9.900  10.707  62.957  1.00  0.00    -0.318 C  
ENDROOT
BRANCH   4   5
HETATM    5  C   UNL     1     -10.246  12.027  63.649  1.00  0.00    -0.470 C  
BRANCH   5   6
HETATM    6  C   UNL     1     -11.766  12.146  63.800  1.00  0.00    -0.485 C  
BRANCH   6   7
HETATM    7  N   UNL     1     -12.257  12.229  65.180  1.00  0.00    -0.500 NA 
HETATM    8  C   UNL     1     -11.249  11.966  66.219  1.00  0.00    -0.337 C  
HETATM    9  C   UNL     1     -10.199  13.070  66.351  1.00  0.00    -0.283 C  
HETATM   10  C   UNL     1     -10.848  14.437  66.587  1.00  0.00    -0.304 C  
HETATM   11  C   UNL     1     -11.901  14.697  65.505  1.00  0.00    -0.292 C  
HETATM   12  C   UNL     1     -12.898  13.535  65.433  1.00  0.00    -0.363 C  
BRANCH  10  13
HETATM   13  O   UNL     1     -11.540  14.553  67.838  1.00  0.00    -0.311 OA 
BRANCH  13  14
HETATM   14  C   UNL     1     -10.764  14.918  68.992  1.00  0.00    -0.247 C  
BRANCH  14  15
HETATM   15  C   UNL     1      -9.907  16.144  68.704  1.00  0.00    -0.226 A  
HETATM   16  C   UNL     1     -10.527  17.368  68.397  1.00  0.00    -0.384 A  
HETATM   17  C   UNL     1      -9.776  18.541  68.305  1.00  0.00    -0.385 A  
HETATM   18  C   UNL     1      -8.510  16.112  68.853  1.00  0.00    -0.241 A  
HETATM   19  C   UNL     1      -7.759  17.285  68.758  1.00  0.00    -0.261 A  
HETATM   20 CL   UNL     1      -7.485  19.956  68.483  1.00  0.00    -0.334 Cl 
HETATM   21  C   UNL     1      -8.398  18.497  68.506  1.00  0.00    -0.334 A  
ENDBRANCH  14  15
BRANCH  14  22
HETATM   22  C   UNL     1     -11.699  15.088  70.189  1.00  0.00    -0.299 A  
HETATM   23  C   UNL     1     -13.744  14.616  71.177  1.00  0.00    -0.314 A  
HETATM   24  C   UNL     1     -12.234  16.044  72.333  1.00  0.00    -0.603 A  
HETATM   25  C   UNL     1     -11.343  15.892  71.275  1.00  0.00    -0.425 A  
HETATM   26  N   UNL     1     -12.898  14.445  70.138  1.00  0.00    -0.214 NA 
HETATM   27  C   UNL     1     -13.461  15.396  72.285  1.00  0.00    -0.573 A  
ENDBRANCH  14  22
ENDBRANCH  13  14
ENDBRANCH  10  13
ENDBRANCH   6   7
ENDBRANCH   5   6
ENDBRANCH   4   5
TORSDOF 7
ENDMDL
MODEL       18
REMARK 921   NORMALIZED FREE ENERGY PREDICTED BY IDOCK:   -5.84 KCAL/MOL
REMARK 922        TOTAL FREE ENERGY PREDICTED BY IDOCK:   -9.69 KCAL/MOL
REMARK 923 INTER-LIGAND FREE ENERGY PREDICTED BY IDOCK:   -8.40 KCAL/MOL
REMARK 924 INTRA-LIGAND FREE ENERGY PREDICTED BY IDOCK:   -1.30 KCAL/MOL
REMARK 927      BINDING AFFINITY PREDICTED BY RF-SCORE:    0.00 PKD
ROOT
HETATM    1  O   UNL     1      -8.538   6.551  66.906  1.00  0.00    -0.112 OA 
HETATM    2  C   UNL     1      -8.533   7.568  66.013  1.00  0.00    -0.148 C  
HETATM    3  O   UNL     1      -7.683   7.672  65.144  1.00  0.00    -0.095 OA 
HETATM    4  C   UNL     1      -9.687   8.514  66.228  1.00  0.00    -0.300 C  
ENDROOT
BRANCH   4   5
HETATM    5  C   UNL     1      -9.706   9.659  65.213  1.00  0.00    -0.330 C  
BRANCH   5   6
HETATM    6  C   UNL     1      -9.067  10.906  65.833  1.00  0.00    -0.193 C  
BRANCH   6   7
HETATM    7  N   UNL     1      -9.903  12.113  65.823  1.00  0.00    -0.246 NA 
HETATM    8  C   UNL     1     -11.290  11.916  66.271  1.00  0.00    -0.334 C  
HETATM    9  C   UNL     1     -11.420  11.637  67.769  1.00  0.00    -0.373 C  
HETATM   10  C   UNL     1     -10.752  12.734  68.605  1.00  0.00    -0.246 C  
HETATM   11  C   UNL     1      -9.311  12.936  68.125  1.00  0.00    -0.214 C  
HETATM   12  C   UNL     1      -9.276  13.192  66.614  1.00  0.00    -0.215 C  
BRANCH  10  13
HETATM   13  O   UNL     1     -11.380  14.019  68.499  1.00  0.00    -0.247 OA 
BRANCH  13  14
HETATM   14  C   UNL     1     -10.856  15.080  69.318  1.00  0.00    -0.261 C  
BRANCH  14  15
HETATM   15  C   UNL     1     -10.666  16.352  68.501  1.00  0.00    -0.320 A  
HETATM   16  C   UNL     1     -10.283  17.541  69.147  1.00  0.00    -0.256 A  
HETATM   17  C   UNL     1      -9.930  18.670  68.405  1.00  0.00    -0.428 A  
HETATM   18  C   UNL     1     -10.751  16.341  67.099  1.00  0.00    -0.247 A  
HETATM   19  C   UNL     1     -10.401  17.472  66.358  1.00  0.00    -0.334 A  
HETATM   20 CL   UNL     1      -9.451  19.984  66.099  1.00  0.00    -0.477 Cl 
HETATM   21  C   UNL     1      -9.972  18.623  67.014  1.00  0.00    -0.340 A  
ENDBRANCH  14  15
BRANCH  14  22
HETATM   22  C   UNL     1     -11.758  15.261  70.538  1.00  0.00    -0.318 A  
HETATM   23  C   UNL     1     -13.907  15.359  71.404  1.00  0.00    -0.486 A  
HETATM   24  C   UNL     1     -12.078  15.724  72.879  1.00  0.00    -0.596 A  
HETATM   25  C   UNL     1     -11.221  15.538  71.799  1.00  0.00    -0.376 A  
HETATM   26  N   UNL     1     -13.101  15.167  70.337  1.00  0.00    -0.254 NA 
HETATM   27  C   UNL     1     -13.449  15.636  72.681  1.00  0.00    -0.655 A  
ENDBRANCH  14  22
ENDBRANCH  13  14
ENDBRANCH  10  13
ENDBRANCH   6   7
ENDBRANCH   5   6
ENDBRANCH   4   5
TORSDOF 7
ENDMDL
MODEL       19
REMARK 921   NORMALIZED FREE ENERGY PREDICTED BY IDOCK:   -5.80 KCAL/MOL
REMARK 922        TOTAL FREE ENERGY PREDICTED BY IDOCK:   -9.63 KCAL/MOL
REMARK 923 INTER-LIGAND FREE ENERGY PREDICTED BY IDOCK:   -8.54 KCAL/MOL
REMARK 924 INTRA-LIGAND FREE ENERGY PREDICTED BY IDOCK:   -1.09 KCAL/MOL
REMARK 927      BINDING AFFINITY PREDICTED BY RF-SCORE:    0.00 PKD
ROOT
HETATM    1  O   UNL     1      -9.577   6.100  74.256  1.00  0.00    -0.164 OA 
HETATM    2  C   UNL     1     -10.595   6.301  73.386  1.00  0.00    -0.273 C  
HETATM    3  O   UNL     1     -11.241   5.382  72.911  1.00  0.00    -0.280 OA 
HETATM    4  C   UNL     1     -10.816   7.765  73.104  1.00  0.00    -0.401 C  
ENDROOT
BRANCH   4   5
HETATM    5  C   UNL     1     -11.976   8.010  72.138  1.00  0.00    -0.399 C  
BRANCH   5   6
HETATM    6  C   UNL     1     -11.426   8.320  70.741  1.00  0.00    -0.252 C  
BRANCH   6   7
HETATM    7  N   UNL     1     -10.729   9.606  70.610  1.00  0.00    -0.299 NA 
HETATM    8  C   UNL     1      -9.985   9.788  69.355  1.00  0.00    -0.205 C  
HETATM    9  C   UNL     1     -10.881   9.960  68.127  1.00  0.00    -0.282 C  
HETATM   10  C   UNL     1     -11.877  11.108  68.315  1.00  0.00    -0.190 C  
HETATM   11  C   UNL     1     -12.641  10.913  69.628  1.00  0.00    -0.075 C  
HETATM   12  C   UNL     1     -11.666  10.732  70.798  1.00  0.00    -0.298 C  
BRANCH  10  13
HETATM   13  O   UNL     1     -11.271  12.405  68.408  1.00  0.00    -0.233 OA 
BRANCH  13  14
HETATM   14  C   UNL     1     -11.791  13.440  67.556  1.00  0.00    -0.366 C  
BRANCH  14  15
HETATM   15  C   UNL     1     -11.191  14.793  67.917  1.00  0.00    -0.318 A  
HETATM   16  C   UNL     1     -10.916  15.724  66.900  1.00  0.00    -0.207 A  
HETATM   17  C   UNL     1     -10.536  17.030  67.217  1.00  0.00    -0.301 A  
HETATM   18  C   UNL     1     -11.011  15.180  69.255  1.00  0.00    -0.260 A  
HETATM   19  C   UNL     1     -10.627  16.485  69.571  1.00  0.00    -0.321 A  
HETATM   20 CL   UNL     1     -10.032  19.041  68.943  1.00  0.00    -0.480 Cl 
HETATM   21  C   UNL     1     -10.412  17.409  68.552  1.00  0.00    -0.370 A  
ENDBRANCH  14  15
BRANCH  14  22
HETATM   22  C   UNL     1     -11.575  13.041  66.097  1.00  0.00    -0.366 A  
HETATM   23  C   UNL     1     -12.495  12.628  64.008  1.00  0.00    -0.399 A  
HETATM   24  C   UNL     1     -10.156  12.311  64.293  1.00  0.00    -0.311 A  
HETATM   25  C   UNL     1     -10.306  12.696  65.622  1.00  0.00    -0.293 A  
HETATM   26  N   UNL     1     -12.672  13.012  65.291  1.00  0.00    -0.665 NA 
HETATM   27  C   UNL     1     -11.271  12.273  63.467  1.00  0.00    -0.535 A  
ENDBRANCH  14  22
ENDBRANCH  13  14
ENDBRANCH  10  13
ENDBRANCH   6   7
ENDBRANCH   5   6
ENDBRANCH   4   5
TORSDOF 7
ENDMDL
MODEL       20
REMARK 921   NORMALIZED FREE ENERGY PREDICTED BY IDOCK:   -5.73 KCAL/MOL
REMARK 922        TOTAL FREE ENERGY PREDICTED BY IDOCK:   -9.53 KCAL/MOL
REMARK 923 INTER-LIGAND FREE ENERGY PREDICTED BY IDOCK:   -8.27 KCAL/MOL
REMARK 924 INTRA-LIGAND FREE ENERGY PREDICTED BY IDOCK:   -1.27 KCAL/MOL
REMARK 927      BINDING AFFINITY PREDICTED BY RF-SCORE:    0.00 PKD
ROOT
HETATM    1  O   UNL     1     -14.306   7.096  71.486  1.00  0.00    -0.406 OA 
HETATM    2  C   UNL     1     -13.057   7.614  71.542  1.00  0.00    -0.338 C  
HETATM    3  O   UNL     1     -12.808   8.663  72.113  1.00  0.00    -0.349 OA 
HETATM    4  C   UNL     1     -12.052   6.742  70.833  1.00  0.00    -0.421 C  
ENDROOT
BRANCH   4   5
HETATM    5  C   UNL     1     -10.631   7.304  70.904  1.00  0.00    -0.234 C  
BRANCH   5   6
HETATM    6  C   UNL     1     -10.126   7.610  69.490  1.00  0.00    -0.192 C  
BRANCH   6   7
HETATM    7  N   UNL     1      -9.460   8.907  69.325  1.00  0.00    -0.159 NA 
HETATM    8  C   UNL     1      -9.356   9.384  67.938  1.00  0.00    -0.129 C  
HETATM    9  C   UNL     1     -10.694   9.809  67.331  1.00  0.00    -0.314 C  
HETATM   10  C   UNL     1     -11.395  10.862  68.195  1.00  0.00    -0.315 C  
HETATM   11  C   UNL     1     -11.491  10.358  69.639  1.00  0.00    -0.326 C  
HETATM   12  C   UNL     1     -10.109   9.940  70.157  1.00  0.00    -0.255 C  
BRANCH  10  13
HETATM   13  O   UNL     1     -10.706  12.117  68.268  1.00  0.00    -0.206 OA 
BRANCH  13  14
HETATM   14  C   UNL     1     -11.320  13.247  67.624  1.00  0.00    -0.296 C  
BRANCH  14  15
HETATM   15  C   UNL     1     -10.604  14.539  67.994  1.00  0.00    -0.237 A  
HETATM   16  C   UNL     1      -9.351  14.481  68.629  1.00  0.00    -0.199 A  
HETATM   17  C   UNL     1      -8.595  15.640  68.817  1.00  0.00    -0.193 A  
HETATM   18  C   UNL     1     -11.110  15.792  67.612  1.00  0.00    -0.283 A  
HETATM   19  C   UNL     1     -10.356  16.952  67.803  1.00  0.00    -0.327 A  
HETATM   20 CL   UNL     1      -8.124  18.282  68.535  1.00  0.00    -0.325 Cl 
HETATM   21  C   UNL     1      -9.093  16.868  68.385  1.00  0.00    -0.243 A  
ENDBRANCH  14  15
BRANCH  14  22
HETATM   22  C   UNL     1     -11.385  12.989  66.119  1.00  0.00    -0.314 A  
HETATM   23  C   UNL     1     -12.678  12.500  64.256  1.00  0.00    -0.341 A  
HETATM   24  C   UNL     1     -10.324  12.697  63.977  1.00  0.00    -0.414 A  
HETATM   25  C   UNL     1     -10.225  12.964  65.339  1.00  0.00    -0.301 A  
HETATM   26  N   UNL     1     -12.615  12.761  65.580  1.00  0.00    -0.610 NA 
HETATM   27  C   UNL     1     -11.574  12.458  63.421  1.00  0.00    -0.541 A  
ENDBRANCH  14  22
ENDBRANCH  13  14
ENDBRANCH  10  13
ENDBRANCH   6   7
ENDBRANCH   5   6
ENDBRANCH   4   5
TORSDOF 7
ENDMDL
MODEL       21
REMARK 921   NORMALIZED FREE ENERGY PREDICTED BY IDOCK:   -5.70 KCAL/MOL
REMARK 922        TOTAL FREE ENERGY PREDICTED BY IDOCK:   -9.49 KCAL/MOL
REMARK 923 INTER-LIGAND FREE ENERGY PREDICTED BY IDOCK:   -8.14 KCAL/MOL
REMARK 924 INTRA-LIGAND FREE ENERGY PREDICTED BY IDOCK:   -1.35 KCAL/MOL
REMARK 927      BINDING AFFINITY PREDICTED BY RF-SCORE:    0.00 PKD
ROOT
HETATM    1  O   UNL     1     -10.186   4.801  69.479  1.00  0.00    -0.221 OA 
HETATM    2  C   UNL     1     -10.022   5.818  70.357  1.00  0.00    -0.198 C  
HETATM    3  O   UNL     1      -8.925   6.270  70.638  1.00  0.00    -0.142 OA 
HETATM    4  C   UNL     1     -11.338   6.302  70.911  1.00  0.00    -0.389 C  
ENDROOT
BRANCH   4   5
HETATM    5  C   UNL     1     -11.173   7.465  71.890  1.00  0.00    -0.282 C  
BRANCH   5   6
HETATM    6  C   UNL     1     -11.972   8.674  71.393  1.00  0.00    -0.304 C  
BRANCH   6   7
HETATM    7  N   UNL     1     -11.192   9.897  71.172  1.00  0.00    -0.362 NA 
HETATM    8  C   UNL     1     -10.089   9.769  70.208  1.00  0.00    -0.266 C  
HETATM    9  C   UNL     1     -10.553   9.605  68.759  1.00  0.00    -0.242 C  
HETATM   10  C   UNL     1     -11.487  10.743  68.336  1.00  0.00    -0.288 C  
HETATM   11  C   UNL     1     -12.627  10.873  69.351  1.00  0.00     0.125 C  
HETATM   12  C   UNL     1     -12.070  11.016  70.773  1.00  0.00    -0.366 C  
BRANCH  10  13
HETATM   13  O   UNL     1     -10.860  12.032  68.289  1.00  0.00    -0.208 OA 
BRANCH  13  14
HETATM   14  C   UNL     1     -11.514  13.057  67.520  1.00  0.00    -0.328 C  
BRANCH  14  15
HETATM   15  C   UNL     1     -10.941  14.430  67.848  1.00  0.00    -0.272 A  
HETATM   16  C   UNL     1     -10.973  15.446  66.877  1.00  0.00    -0.294 A  
HETATM   17  C   UNL     1     -10.621  16.756  67.207  1.00  0.00    -0.275 A  
HETATM   18  C   UNL     1     -10.486  14.744  69.140  1.00  0.00    -0.243 A  
HETATM   19  C   UNL     1     -10.131  16.054  69.469  1.00  0.00    -0.266 A  
HETATM   20 CL   UNL     1      -9.874  18.687  68.938  1.00  0.00    -0.414 Cl 
HETATM   21  C   UNL     1     -10.221  17.057  68.508  1.00  0.00    -0.324 A  
ENDBRANCH  14  15
BRANCH  14  22
HETATM   22  C   UNL     1     -11.434  12.696  66.037  1.00  0.00    -0.368 A  
HETATM   23  C   UNL     1     -12.549  12.239  64.056  1.00  0.00    -0.420 A  
HETATM   24  C   UNL     1     -10.175  12.105  64.071  1.00  0.00    -0.396 A  
HETATM   25  C   UNL     1     -10.203  12.460  65.417  1.00  0.00    -0.302 A  
HETATM   26  N   UNL     1     -12.609  12.590  65.359  1.00  0.00    -0.615 NA 
HETATM   27  C   UNL     1     -11.370  11.990  63.374  1.00  0.00    -0.484 A  
ENDBRANCH  14  22
ENDBRANCH  13  14
ENDBRANCH  10  13
ENDBRANCH   6   7
ENDBRANCH   5   6
ENDBRANCH   4   5
TORSDOF 7
ENDMDL
MODEL       22
REMARK 921   NORMALIZED FREE ENERGY PREDICTED BY IDOCK:   -5.70 KCAL/MOL
REMARK 922        TOTAL FREE ENERGY PREDICTED BY IDOCK:   -9.49 KCAL/MOL
REMARK 923 INTER-LIGAND FREE ENERGY PREDICTED BY IDOCK:   -8.36 KCAL/MOL
REMARK 924 INTRA-LIGAND FREE ENERGY PREDICTED BY IDOCK:   -1.13 KCAL/MOL
REMARK 927      BINDING AFFINITY PREDICTED BY RF-SCORE:    0.00 PKD
ROOT
HETATM    1  O   UNL     1     -10.562   4.798  65.949  1.00  0.00    -0.303 OA 
HETATM    2  C   UNL     1     -10.318   5.054  67.256  1.00  0.00    -0.134 C  
HETATM    3  O   UNL     1      -9.604   4.341  67.940  1.00  0.00    -0.162 OA 
HETATM    4  C   UNL     1     -11.020   6.302  67.726  1.00  0.00    -0.427 C  
ENDROOT
BRANCH   4   5
HETATM    5  C   UNL     1     -10.739   6.617  69.197  1.00  0.00    -0.304 C  
BRANCH   5   6
HETATM    6  C   UNL     1      -9.538   7.563  69.300  1.00  0.00    -0.158 C  
BRANCH   6   7
HETATM    7  N   UNL     1      -9.785   8.818  70.019  1.00  0.00    -0.170 NA 
HETATM    8  C   UNL     1      -8.677   9.784  69.991  1.00  0.00    -0.209 C  
HETATM    9  C   UNL     1      -8.451  10.422  68.619  1.00  0.00    -0.129 C  
HETATM   10  C   UNL     1      -9.729  11.078  68.087  1.00  0.00    -0.174 C  
HETATM   11  C   UNL     1     -10.878  10.066  68.129  1.00  0.00    -0.303 C  
HETATM   12  C   UNL     1     -11.020   9.467  69.533  1.00  0.00    -0.195 C  
BRANCH  10  13
HETATM   13  O   UNL     1     -10.175  12.204  68.854  1.00  0.00    -0.157 OA 
BRANCH  13  14
HETATM   14  C   UNL     1     -11.422  12.812  68.472  1.00  0.00    -0.309 C  
BRANCH  14  15
HETATM   15  C   UNL     1     -12.022  13.595  69.632  1.00  0.00    -0.402 A  
HETATM   16  C   UNL     1     -12.408  12.917  70.802  1.00  0.00    -0.385 A  
HETATM   17  C   UNL     1     -12.792  13.628  71.940  1.00  0.00    -0.381 A  
HETATM   18  C   UNL     1     -12.095  14.998  69.608  1.00  0.00    -0.337 A  
HETATM   19  C   UNL     1     -12.483  15.708  70.747  1.00  0.00    -0.484 A  
HETATM   20 CL   UNL     1     -13.195  15.898  73.342  1.00  0.00    -0.671 Cl 
HETATM   21  C   UNL     1     -12.809  15.021  71.913  1.00  0.00    -0.337 A  
ENDBRANCH  14  15
BRANCH  14  22
HETATM   22  C   UNL     1     -11.203  13.650  67.212  1.00  0.00    -0.309 A  
HETATM   23  C   UNL     1      -9.884  15.170  66.059  1.00  0.00    -0.320 A  
HETATM   24  C   UNL     1     -11.921  14.458  65.060  1.00  0.00    -0.413 A  
HETATM   25  C   UNL     1     -12.144  13.659  66.178  1.00  0.00    -0.477 A  
HETATM   26  N   UNL     1     -10.069  14.401  67.154  1.00  0.00    -0.251 NA 
HETATM   27  C   UNL     1     -10.770  15.231  64.997  1.00  0.00    -0.461 A  
ENDBRANCH  14  22
ENDBRANCH  13  14
ENDBRANCH  10  13
ENDBRANCH   6   7
ENDBRANCH   5   6
ENDBRANCH   4   5
TORSDOF 7
ENDMDL
MODEL       23
REMARK 921   NORMALIZED FREE ENERGY PREDICTED BY IDOCK:   -5.69 KCAL/MOL
REMARK 922        TOTAL FREE ENERGY PREDICTED BY IDOCK:   -9.48 KCAL/MOL
REMARK 923 INTER-LIGAND FREE ENERGY PREDICTED BY IDOCK:   -8.57 KCAL/MOL
REMARK 924 INTRA-LIGAND FREE ENERGY PREDICTED BY IDOCK:   -0.91 KCAL/MOL
REMARK 927      BINDING AFFINITY PREDICTED BY RF-SCORE:    0.00 PKD
ROOT
HETATM    1  O   UNL     1     -11.539   4.891  73.231  1.00  0.00    -0.336 OA 
HETATM    2  C   UNL     1     -10.970   5.728  72.332  1.00  0.00    -0.259 C  
HETATM    3  O   UNL     1     -11.010   5.522  71.130  1.00  0.00    -0.221 OA 
HETATM    4  C   UNL     1     -10.313   6.910  72.999  1.00  0.00    -0.269 C  
ENDROOT
BRANCH   4   5
HETATM    5  C   UNL     1      -9.682   7.876  71.994  1.00  0.00    -0.244 C  
BRANCH   5   6
HETATM    6  C   UNL     1     -10.604   9.083  71.792  1.00  0.00    -0.356 C  
BRANCH   6   7
HETATM    7  N   UNL     1     -11.441   9.041  70.587  1.00  0.00    -0.263 NA 
HETATM    8  C   UNL     1     -12.574   9.978  70.581  1.00  0.00    -0.220 C  
HETATM    9  C   UNL     1     -12.161  11.444  70.443  1.00  0.00    -0.473 C  
HETATM   10  C   UNL     1     -11.290  11.669  69.202  1.00  0.00    -0.283 C  
HETATM   11  C   UNL     1     -10.118  10.683  69.215  1.00  0.00    -0.227 C  
HETATM   12  C   UNL     1     -10.625   9.244  69.373  1.00  0.00    -0.223 C  
BRANCH  10  13
HETATM   13  O   UNL     1     -11.970  11.448  67.959  1.00  0.00    -0.613 OA 
BRANCH  13  14
HETATM   14  C   UNL     1     -12.002  12.537  67.020  1.00  0.00    -0.225 C  
BRANCH  14  15
HETATM   15  C   UNL     1     -11.418  13.802  67.637  1.00  0.00    -0.354 A  
HETATM   16  C   UNL     1     -10.161  14.266  67.211  1.00  0.00    -0.252 A  
HETATM   17  C   UNL     1      -9.685  15.511  67.627  1.00  0.00    -0.212 A  
HETATM   18  C   UNL     1     -12.157  14.584  68.539  1.00  0.00    -0.257 A  
HETATM   19  C   UNL     1     -11.680  15.829  68.957  1.00  0.00    -0.405 A  
HETATM   20 CL   UNL     1      -9.912  17.867  68.921  1.00  0.00    -0.358 Cl 
HETATM   21  C   UNL     1     -10.457  16.295  68.482  1.00  0.00    -0.278 A  
ENDBRANCH  14  15
BRANCH  14  22
HETATM   22  C   UNL     1     -11.306  12.104  65.730  1.00  0.00    -0.354 A  
HETATM   23  C   UNL     1     -11.101  12.327  63.430  1.00  0.00    -0.418 A  
HETATM   24  C   UNL     1      -9.751  10.709  64.533  1.00  0.00    -0.367 A  
HETATM   25  C   UNL     1     -10.340  11.094  65.733  1.00  0.00    -0.316 A  
HETATM   26  N   UNL     1     -11.686  12.727  64.580  1.00  0.00    -0.346 NA 
HETATM   27  C   UNL     1     -10.138  11.335  63.355  1.00  0.00    -0.445 A  
ENDBRANCH  14  22
ENDBRANCH  13  14
ENDBRANCH  10  13
ENDBRANCH   6   7
ENDBRANCH   5   6
ENDBRANCH   4   5
TORSDOF 7
ENDMDL
MODEL       24
REMARK 921   NORMALIZED FREE ENERGY PREDICTED BY IDOCK:   -5.69 KCAL/MOL
REMARK 922        TOTAL FREE ENERGY PREDICTED BY IDOCK:   -9.47 KCAL/MOL
REMARK 923 INTER-LIGAND FREE ENERGY PREDICTED BY IDOCK:   -7.97 KCAL/MOL
REMARK 924 INTRA-LIGAND FREE ENERGY PREDICTED BY IDOCK:   -1.50 KCAL/MOL
REMARK 927      BINDING AFFINITY PREDICTED BY RF-SCORE:    0.00 PKD
ROOT
HETATM    1  O   UNL     1     -13.234  11.861  63.384  1.00  0.00    -0.649 OA 
HETATM    2  C   UNL     1     -12.509  12.397  64.394  1.00  0.00    -0.433 C  
HETATM    3  O   UNL     1     -13.023  13.010  65.315  1.00  0.00    -0.697 OA 
HETATM    4  C   UNL     1     -11.034  12.132  64.232  1.00  0.00    -0.391 C  
ENDROOT
BRANCH   4   5
HETATM    5  C   UNL     1     -10.202  12.714  65.377  1.00  0.00    -0.301 C  
BRANCH   5   6
HETATM    6  C   UNL     1      -9.485  11.581  66.120  1.00  0.00    -0.220 C  
BRANCH   6   7
HETATM    7  N   UNL     1     -10.005  11.278  67.458  1.00  0.00    -0.180 NA 
HETATM    8  C   UNL     1     -11.027  10.220  67.507  1.00  0.00    -0.280 C  
HETATM    9  C   UNL     1     -10.479   8.821  67.222  1.00  0.00    -0.353 C  
HETATM   10  C   UNL     1      -9.319   8.470  68.159  1.00  0.00    -0.137 C  
HETATM   11  C   UNL     1      -8.265   9.581  68.106  1.00  0.00    -0.114 C  
HETATM   12  C   UNL     1      -8.905  10.946  68.386  1.00  0.00    -0.147 C  
BRANCH  10  13
HETATM   13  O   UNL     1      -9.691   8.354  69.539  1.00  0.00    -0.173 OA 
BRANCH  13  14
HETATM   14  C   UNL     1     -10.688   7.373  69.874  1.00  0.00    -0.243 C  
BRANCH  14  15
HETATM   15  C   UNL     1     -10.051   6.151  70.523  1.00  0.00    -0.237 A  
HETATM   16  C   UNL     1      -9.419   6.278  71.773  1.00  0.00    -0.158 A  
HETATM   17  C   UNL     1      -8.987   5.148  72.469  1.00  0.00    -0.136 A  
HETATM   18  C   UNL     1     -10.179   4.871  69.958  1.00  0.00    -0.313 A  
HETATM   19  C   UNL     1      -9.744   3.741  70.653  1.00  0.00    -0.235 A  
HETATM   20 CL   UNL     1      -8.719   2.485  72.811  1.00  0.00    -0.072 Cl 
HETATM   21  C   UNL     1      -9.169   3.883  71.914  1.00  0.00    -0.123 A  
ENDBRANCH  14  15
BRANCH  14  22
HETATM   22  C   UNL     1     -11.768   8.032  70.731  1.00  0.00    -0.206 A  
HETATM   23  C   UNL     1     -13.812   7.849  71.813  1.00  0.00    -0.375 A  
HETATM   24  C   UNL     1     -12.689   9.944  71.868  1.00  0.00    -0.501 A  
HETATM   25  C   UNL     1     -11.670   9.374  71.111  1.00  0.00    -0.418 A  
HETATM   26  N   UNL     1     -12.836   7.264  71.084  1.00  0.00    -0.331 NA 
HETATM   27  C   UNL     1     -13.784   9.170  72.226  1.00  0.00    -0.548 A  
ENDBRANCH  14  22
ENDBRANCH  13  14
ENDBRANCH  10  13
ENDBRANCH   6   7
ENDBRANCH   5   6
ENDBRANCH   4   5
TORSDOF 7
ENDMDL
MODEL       25
REMARK 921   NORMALIZED FREE ENERGY PREDICTED BY IDOCK:   -5.68 KCAL/MOL
REMARK 922        TOTAL FREE ENERGY PREDICTED BY IDOCK:   -9.46 KCAL/MOL
REMARK 923 INTER-LIGAND FREE ENERGY PREDICTED BY IDOCK:   -7.88 KCAL/MOL
REMARK 924 INTRA-LIGAND FREE ENERGY PREDICTED BY IDOCK:   -1.58 KCAL/MOL
REMARK 927      BINDING AFFINITY PREDICTED BY RF-SCORE:    0.00 PKD
ROOT
HETATM    1  O   UNL     1     -12.491  13.765  63.096  1.00  0.00    -0.786 OA 
HETATM    2  C   UNL     1     -12.272  13.908  64.425  1.00  0.00    -0.413 C  
HETATM    3  O   UNL     1     -13.077  13.538  65.264  1.00  0.00    -0.713 OA 
HETATM    4  C   UNL     1     -10.941  14.555  64.711  1.00  0.00    -0.404 C  
ENDROOT
BRANCH   4   5
HETATM    5  C   UNL     1     -10.670  14.706  66.209  1.00  0.00    -0.316 C  
BRANCH   5   6
HETATM    6  C   UNL     1      -9.570  13.727  66.634  1.00  0.00    -0.288 C  
BRANCH   6   7
HETATM    7  N   UNL     1      -9.806  13.026  67.901  1.00  0.00    -0.218 NA 
HETATM    8  C   UNL     1     -11.078  12.293  67.983  1.00  0.00    -0.239 C  
HETATM    9  C   UNL     1     -11.131  11.049  67.094  1.00  0.00    -0.333 C  
HETATM   10  C   UNL     1      -9.963  10.102  67.385  1.00  0.00    -0.195 C  
HETATM   11  C   UNL     1      -8.644  10.876  67.306  1.00  0.00    -0.128 C  
HETATM   12  C   UNL     1      -8.688  12.112  68.212  1.00  0.00    -0.178 C  
BRANCH  10  13
HETATM   13  O   UNL     1      -9.991   9.517  68.694  1.00  0.00    -0.158 OA 
BRANCH  13  14
HETATM   14  C   UNL     1     -10.781   8.328  68.870  1.00  0.00    -0.062 C  
BRANCH  14  15
HETATM   15  C   UNL     1     -10.203   7.168  68.068  1.00  0.00    -0.223 A  
HETATM   16  C   UNL     1      -8.891   6.733  68.324  1.00  0.00    -0.125 A  
HETATM   17  C   UNL     1      -8.402   5.566  67.733  1.00  0.00    -0.099 A  
HETATM   18  C   UNL     1     -10.990   6.445  67.157  1.00  0.00    -0.476 A  
HETATM   19  C   UNL     1     -10.500   5.280  66.564  1.00  0.00    -0.354 A  
HETATM   20 CL   UNL     1      -8.647   3.350  66.215  1.00  0.00    -0.114 Cl 
HETATM   21  C   UNL     1      -9.217   4.834  66.871  1.00  0.00    -0.126 A  
ENDBRANCH  14  15
BRANCH  14  22
HETATM   22  C   UNL     1     -10.916   8.035  70.364  1.00  0.00    -0.248 A  
HETATM   23  C   UNL     1     -10.320   8.571  72.541  1.00  0.00    -0.244 A  
HETATM   24  C   UNL     1     -11.764   6.714  72.191  1.00  0.00    -0.342 A  
HETATM   25  C   UNL     1     -11.690   6.965  70.824  1.00  0.00    -0.417 A  
HETATM   26  N   UNL     1     -10.232   8.844  71.221  1.00  0.00    -0.262 NA 
HETATM   27  C   UNL     1     -11.065   7.531  73.069  1.00  0.00    -0.413 A  
ENDBRANCH  14  22
ENDBRANCH  13  14
ENDBRANCH  10  13
ENDBRANCH   6   7
ENDBRANCH   5   6
ENDBRANCH   4   5
TORSDOF 7
ENDMDL
MODEL       26
REMARK 921   NORMALIZED FREE ENERGY PREDICTED BY IDOCK:   -5.67 KCAL/MOL
REMARK 922        TOTAL FREE ENERGY PREDICTED BY IDOCK:   -9.45 KCAL/MOL
REMARK 923 INTER-LIGAND FREE ENERGY PREDICTED BY IDOCK:   -8.15 KCAL/MOL
REMARK 924 INTRA-LIGAND FREE ENERGY PREDICTED BY IDOCK:   -1.30 KCAL/MOL
REMARK 927      BINDING AFFINITY PREDICTED BY RF-SCORE:    0.00 PKD
ROOT
HETATM    1  O   UNL     1     -12.998  12.360  63.084  1.00  0.00    -0.602 OA 
HETATM    2  C   UNL     1     -11.895  12.879  63.674  1.00  0.00    -0.532 C  
HETATM    3  O   UNL     1     -10.799  12.351  63.592  1.00  0.00    -0.411 OA 
HETATM    4  C   UNL     1     -12.200  14.159  64.411  1.00  0.00    -0.466 C  
ENDROOT
BRANCH   4   5
HETATM    5  C   UNL     1     -10.959  14.769  65.066  1.00  0.00    -0.426 C  
BRANCH   5   6
HETATM    6  C   UNL     1     -11.162  14.841  66.584  1.00  0.00    -0.346 C  
BRANCH   6   7
HETATM    7  N   UNL     1     -10.236  14.030  67.382  1.00  0.00    -0.247 NA 
HETATM    8  C   UNL     1     -10.428  14.112  68.838  1.00  0.00    -0.222 C  
HETATM    9  C   UNL     1     -11.707  13.433  69.329  1.00  0.00    -0.383 C  
HETATM   10  C   UNL     1     -11.778  11.972  68.875  1.00  0.00    -0.326 C  
HETATM   11  C   UNL     1     -11.569  11.897  67.359  1.00  0.00    -0.367 C  
HETATM   12  C   UNL     1     -10.275  12.616  66.957  1.00  0.00    -0.226 C  
BRANCH  10  13
HETATM   13  O   UNL     1     -10.770  11.127  69.448  1.00  0.00    -0.224 OA 
BRANCH  13  14
HETATM   14  C   UNL     1     -10.884   9.712  69.217  1.00  0.00    -0.205 C  
BRANCH  14  15
HETATM   15  C   UNL     1      -9.829   9.237  68.227  1.00  0.00    -0.179 A  
HETATM   16  C   UNL     1     -10.190   8.342  67.204  1.00  0.00    -0.362 A  
HETATM   17  C   UNL     1      -9.291   8.032  66.182  1.00  0.00    -0.212 A  
HETATM   18  C   UNL     1      -8.526   9.761  68.239  1.00  0.00    -0.114 A  
HETATM   19  C   UNL     1      -7.625   9.447  67.218  1.00  0.00    -0.091 A  
HETATM   20 CL   UNL     1      -6.943   8.290  64.877  1.00  0.00    -0.073 Cl 
HETATM   21  C   UNL     1      -8.019   8.602  66.184  1.00  0.00    -0.106 A  
ENDBRANCH  14  15
BRANCH  14  22
HETATM   22  C   UNL     1     -10.841   8.983  70.560  1.00  0.00    -0.251 A  
HETATM   23  C   UNL     1     -11.967   7.761  72.178  1.00  0.00    -0.317 A  
HETATM   24  C   UNL     1      -9.686   8.312  72.564  1.00  0.00    -0.368 A  
HETATM   25  C   UNL     1      -9.676   8.963  71.334  1.00  0.00    -0.370 A  
HETATM   26  N   UNL     1     -11.987   8.379  70.977  1.00  0.00    -0.268 NA 
HETATM   27  C   UNL     1     -10.853   7.699  72.998  1.00  0.00    -0.457 A  
ENDBRANCH  14  22
ENDBRANCH  13  14
ENDBRANCH  10  13
ENDBRANCH   6   7
ENDBRANCH   5   6
ENDBRANCH   4   5
TORSDOF 7
ENDMDL
MODEL       27
REMARK 921   NORMALIZED FREE ENERGY PREDICTED BY IDOCK:   -5.65 KCAL/MOL
REMARK 922        TOTAL FREE ENERGY PREDICTED BY IDOCK:   -9.42 KCAL/MOL
REMARK 923 INTER-LIGAND FREE ENERGY PREDICTED BY IDOCK:   -8.34 KCAL/MOL
REMARK 924 INTRA-LIGAND FREE ENERGY PREDICTED BY IDOCK:   -1.08 KCAL/MOL
REMARK 927      BINDING AFFINITY PREDICTED BY RF-SCORE:    0.00 PKD
ROOT
HETATM    1  O   UNL     1     -10.204  19.367  69.108  1.00  0.00    -0.355 OA 
HETATM    2  C   UNL     1      -9.581  18.539  68.235  1.00  0.00    -0.343 C  
HETATM    3  O   UNL     1      -8.524  17.989  68.495  1.00  0.00    -0.304 OA 
HETATM    4  C   UNL     1     -10.354  18.390  66.949  1.00  0.00    -0.417 C  
ENDROOT
BRANCH   4   5
HETATM    5  C   UNL     1      -9.674  17.442  65.960  1.00  0.00    -0.172 C  
BRANCH   5   6
HETATM    6  C   UNL     1     -10.699  16.437  65.423  1.00  0.00    -0.296 C  
BRANCH   6   7
HETATM    7  N   UNL     1     -10.295  15.028  65.495  1.00  0.00    -0.343 NA 
HETATM    8  C   UNL     1      -9.875  14.565  66.826  1.00  0.00    -0.265 C  
HETATM    9  C   UNL     1     -11.022  14.460  67.832  1.00  0.00    -0.272 C  
HETATM   10  C   UNL     1     -12.153  13.572  67.304  1.00  0.00    -0.323 C  
HETATM   11  C   UNL     1     -12.578  14.058  65.914  1.00  0.00    -0.484 C  
HETATM   12  C   UNL     1     -11.365  14.149  64.981  1.00  0.00    -0.350 C  
BRANCH  10  13
HETATM   13  O   UNL     1     -11.793  12.194  67.140  1.00  0.00    -0.543 OA 
BRANCH  13  14
HETATM   14  C   UNL     1     -10.693  11.700  67.924  1.00  0.00    -0.202 C  
BRANCH  14  15
HETATM   15  C   UNL     1     -11.188  10.799  69.048  1.00  0.00    -0.322 A  
HETATM   16  C   UNL     1     -10.722   9.476  69.134  1.00  0.00    -0.228 A  
HETATM   17  C   UNL     1     -11.018   8.689  70.248  1.00  0.00    -0.251 A  
HETATM   18  C   UNL     1     -12.014  11.293  70.071  1.00  0.00    -0.447 A  
HETATM   19  C   UNL     1     -12.313  10.504  71.184  1.00  0.00    -0.510 A  
HETATM   20 CL   UNL     1     -12.088   8.276  72.690  1.00  0.00    -0.403 Cl 
HETATM   21  C   UNL     1     -11.797   9.214  71.277  1.00  0.00    -0.327 A  
ENDBRANCH  14  15
BRANCH  14  22
HETATM   22  C   UNL     1      -9.681  11.027  66.997  1.00  0.00    -0.182 A  
HETATM   23  C   UNL     1      -7.460  10.615  66.468  1.00  0.00    -0.134 A  
HETATM   24  C   UNL     1      -9.144   9.737  65.036  1.00  0.00    -0.280 A  
HETATM   25  C   UNL     1     -10.098  10.310  65.871  1.00  0.00    -0.319 A  
HETATM   26  N   UNL     1      -8.362  11.179  67.301  1.00  0.00    -0.131 NA 
HETATM   27  C   UNL     1      -7.797   9.892  65.336  1.00  0.00    -0.132 A  
ENDBRANCH  14  22
ENDBRANCH  13  14
ENDBRANCH  10  13
ENDBRANCH   6   7
ENDBRANCH   5   6
ENDBRANCH   4   5
TORSDOF 7
ENDMDL
MODEL       28
REMARK 921   NORMALIZED FREE ENERGY PREDICTED BY IDOCK:   -5.64 KCAL/MOL
REMARK 922        TOTAL FREE ENERGY PREDICTED BY IDOCK:   -9.41 KCAL/MOL
REMARK 923 INTER-LIGAND FREE ENERGY PREDICTED BY IDOCK:   -8.37 KCAL/MOL
REMARK 924 INTRA-LIGAND FREE ENERGY PREDICTED BY IDOCK:   -1.04 KCAL/MOL
REMARK 927      BINDING AFFINITY PREDICTED BY RF-SCORE:    0.00 PKD
ROOT
HETATM    1  O   UNL     1      -7.765   7.854  63.225  1.00  0.00    -0.126 OA 
HETATM    2  C   UNL     1      -8.058   9.164  63.401  1.00  0.00    -0.162 C  
HETATM    3  O   UNL     1      -7.441   9.874  64.177  1.00  0.00    -0.131 OA 
HETATM    4  C   UNL     1      -9.204   9.607  62.528  1.00  0.00    -0.226 C  
ENDROOT
BRANCH   4   5
HETATM    5  C   UNL     1      -9.535  11.091  62.700  1.00  0.00    -0.322 C  
BRANCH   5   6
HETATM    6  C   UNL     1     -10.341  11.292  63.988  1.00  0.00    -0.371 C  
BRANCH   6   7
HETATM    7  N   UNL     1      -9.800  12.289  64.920  1.00  0.00    -0.175 NA 
HETATM    8  C   UNL     1     -10.609  13.507  65.071  1.00  0.00    -0.372 C  
HETATM    9  C   UNL     1     -11.927  13.284  65.815  1.00  0.00    -0.463 C  
HETATM   10  C   UNL     1     -11.695  12.637  67.185  1.00  0.00    -0.371 C  
HETATM   11  C   UNL     1     -10.845  11.374  67.017  1.00  0.00    -0.331 C  
HETATM   12  C   UNL     1      -9.557  11.689  66.247  1.00  0.00    -0.221 C  
BRANCH  10  13
HETATM   13  O   UNL     1     -10.981  13.465  68.114  1.00  0.00    -0.239 OA 
BRANCH  13  14
HETATM   14  C   UNL     1     -11.493  14.788  68.348  1.00  0.00    -0.314 C  
BRANCH  14  15
HETATM   15  C   UNL     1     -11.891  14.965  69.808  1.00  0.00    -0.356 A  
HETATM   16  C   UNL     1     -12.608  13.947  70.461  1.00  0.00    -0.382 A  
HETATM   17  C   UNL     1     -12.829  14.005  71.838  1.00  0.00    -0.421 A  
HETATM   18  C   UNL     1     -11.458  16.073  70.555  1.00  0.00    -0.409 A  
HETATM   19  C   UNL     1     -11.682  16.132  71.932  1.00  0.00    -0.575 A  
HETATM   20 CL   UNL     1     -12.541  15.116  74.280  1.00  0.00    -0.619 Cl 
HETATM   21  C   UNL     1     -12.347  15.088  72.570  1.00  0.00    -0.357 A  
ENDBRANCH  14  15
BRANCH  14  22
HETATM   22  C   UNL     1     -10.468  15.813  67.862  1.00  0.00    -0.270 A  
HETATM   23  C   UNL     1     -10.035  17.961  67.101  1.00  0.00    -0.327 A  
HETATM   24  C   UNL     1      -8.225  16.424  67.234  1.00  0.00    -0.193 A  
HETATM   25  C   UNL     1      -9.122  15.470  67.707  1.00  0.00    -0.178 A  
HETATM   26  N   UNL     1     -10.929  17.059  67.563  1.00  0.00    -0.197 NA 
HETATM   27  C   UNL     1      -8.689  17.695  66.922  1.00  0.00    -0.262 A  
ENDBRANCH  14  22
ENDBRANCH  13  14
ENDBRANCH  10  13
ENDBRANCH   6   7
ENDBRANCH   5   6
ENDBRANCH   4   5
TORSDOF 7
ENDMDL
MODEL       29
REMARK 921   NORMALIZED FREE ENERGY PREDICTED BY IDOCK:   -5.63 KCAL/MOL
REMARK 922        TOTAL FREE ENERGY PREDICTED BY IDOCK:   -9.39 KCAL/MOL
REMARK 923 INTER-LIGAND FREE ENERGY PREDICTED BY IDOCK:   -8.22 KCAL/MOL
REMARK 924 INTRA-LIGAND FREE ENERGY PREDICTED BY IDOCK:   -1.18 KCAL/MOL
REMARK 927      BINDING AFFINITY PREDICTED BY RF-SCORE:    0.00 PKD
ROOT
HETATM    1  O   UNL     1      -9.492   2.894  69.638  1.00  0.00    -0.149 OA 
HETATM    2  C   UNL     1      -9.082   4.143  69.960  1.00  0.00    -0.114 C  
HETATM    3  O   UNL     1      -7.981   4.570  69.654  1.00  0.00    -0.061 OA 
HETATM    4  C   UNL     1     -10.141   4.908  70.713  1.00  0.00    -0.303 C  
ENDROOT
BRANCH   4   5
HETATM    5  C   UNL     1      -9.700   6.329  71.067  1.00  0.00    -0.196 C  
BRANCH   5   6
HETATM    6  C   UNL     1     -10.063   7.281  69.922  1.00  0.00    -0.194 C  
BRANCH   6   7
HETATM    7  N   UNL     1      -9.560   8.653  70.060  1.00  0.00    -0.167 NA 
HETATM    8  C   UNL     1      -9.520   9.432  68.813  1.00  0.00    -0.150 C  
HETATM    9  C   UNL     1     -10.902   9.816  68.282  1.00  0.00    -0.256 C  
HETATM   10  C   UNL     1     -11.723  10.562  69.339  1.00  0.00    -0.223 C  
HETATM   11  C   UNL     1     -11.751   9.746  70.635  1.00  0.00    -0.377 C  
HETATM   12  C   UNL     1     -10.327   9.393  71.082  1.00  0.00    -0.307 C  
BRANCH  10  13
HETATM   13  O   UNL     1     -11.191  11.845  69.700  1.00  0.00    -0.207 OA 
BRANCH  13  14
HETATM   14  C   UNL     1     -11.924  13.007  69.275  1.00  0.00    -0.278 C  
BRANCH  14  15
HETATM   15  C   UNL     1     -12.195  13.938  70.450  1.00  0.00    -0.438 A  
HETATM   16  C   UNL     1     -13.009  13.500  71.509  1.00  0.00    -0.440 A  
HETATM   17  C   UNL     1     -13.128  14.259  72.675  1.00  0.00    -0.567 A  
HETATM   18  C   UNL     1     -11.556  15.184  70.560  1.00  0.00    -0.340 A  
HETATM   19  C   UNL     1     -11.678  15.944  71.725  1.00  0.00    -0.575 A  
HETATM   20 CL   UNL     1     -12.520  16.360  74.254  1.00  0.00    -0.605 Cl 
HETATM   21  C   UNL     1     -12.446  15.468  72.784  1.00  0.00    -0.418 A  
ENDBRANCH  14  15
BRANCH  14  22
HETATM   22  C   UNL     1     -11.175  13.675  68.122  1.00  0.00    -0.275 A  
HETATM   23  C   UNL     1     -11.273  14.873  66.138  1.00  0.00    -0.325 A  
HETATM   24  C   UNL     1      -9.139  14.209  66.952  1.00  0.00    -0.260 A  
HETATM   25  C   UNL     1      -9.781  13.613  68.033  1.00  0.00    -0.226 A  
HETATM   26  N   UNL     1     -11.925  14.308  67.178  1.00  0.00    -0.420 NA 
HETATM   27  C   UNL     1      -9.897  14.851  65.982  1.00  0.00    -0.345 A  
ENDBRANCH  14  22
ENDBRANCH  13  14
ENDBRANCH  10  13
ENDBRANCH   6   7
ENDBRANCH   5   6
ENDBRANCH   4   5
TORSDOF 7
ENDMDL
MODEL       30
REMARK 921   NORMALIZED FREE ENERGY PREDICTED BY IDOCK:   -5.61 KCAL/MOL
REMARK 922        TOTAL FREE ENERGY PREDICTED BY IDOCK:   -9.37 KCAL/MOL
REMARK 923 INTER-LIGAND FREE ENERGY PREDICTED BY IDOCK:   -8.25 KCAL/MOL
REMARK 924 INTRA-LIGAND FREE ENERGY PREDICTED BY IDOCK:   -1.12 KCAL/MOL
REMARK 927      BINDING AFFINITY PREDICTED BY RF-SCORE:    0.00 PKD
ROOT
HETATM    1  O   UNL     1      -7.768   3.429  72.470  1.00  0.00    -0.060 OA 
HETATM    2  C   UNL     1      -8.323   4.551  72.985  1.00  0.00    -0.099 C  
HETATM    3  O   UNL     1      -7.724   5.612  73.039  1.00  0.00    -0.099 OA 
HETATM    4  C   UNL     1      -9.735   4.316  73.457  1.00  0.00    -0.144 C  
ENDROOT
BRANCH   4   5
HETATM    5  C   UNL     1     -10.384   5.581  74.025  1.00  0.00    -0.297 C  
BRANCH   5   6
HETATM    6  C   UNL     1     -11.017   6.389  72.887  1.00  0.00    -0.250 C  
BRANCH   6   7
HETATM    7  N   UNL     1     -10.927   7.847  73.026  1.00  0.00    -0.384 NA 
HETATM    8  C   UNL     1      -9.697   8.452  72.492  1.00  0.00    -0.289 C  
HETATM    9  C   UNL     1      -9.611   8.426  70.965  1.00  0.00    -0.212 C  
HETATM   10  C   UNL     1     -10.838   9.081  70.322  1.00  0.00    -0.238 C  
HETATM   11  C   UNL     1     -12.112   8.450  70.891  1.00  0.00    -0.152 C  
HETATM   12  C   UNL     1     -12.104   8.506  72.423  1.00  0.00    -0.367 C  
BRANCH  10  13
HETATM   13  O   UNL     1     -10.955  10.488  70.576  1.00  0.00    -0.271 OA 
BRANCH  13  14
HETATM   14  C   UNL     1     -11.887  11.230  69.770  1.00  0.00    -0.364 C  
BRANCH  14  15
HETATM   15  C   UNL     1     -12.438  12.424  70.539  1.00  0.00    -0.270 A  
HETATM   16  C   UNL     1     -13.159  12.213  71.727  1.00  0.00    -0.457 A  
HETATM   17  C   UNL     1     -13.519  13.289  72.541  1.00  0.00    -0.620 A  
HETATM   18  C   UNL     1     -12.146  13.742  70.151  1.00  0.00    -0.429 A  
HETATM   19  C   UNL     1     -12.509  14.819  70.963  1.00  0.00    -0.400 A  
HETATM   20 CL   UNL     1     -13.539  15.902  73.209  1.00  0.00    -0.605 Cl 
HETATM   21  C   UNL     1     -13.175  14.585  72.164  1.00  0.00    -0.369 A  
ENDBRANCH  14  15
BRANCH  14  22
HETATM   22  C   UNL     1     -11.217  11.605  68.449  1.00  0.00    -0.249 A  
HETATM   23  C   UNL     1     -11.448  12.185  66.215  1.00  0.00    -0.374 A  
HETATM   24  C   UNL     1      -9.253  11.951  67.099  1.00  0.00    -0.183 A  
HETATM   25  C   UNL     1      -9.824  11.633  68.327  1.00  0.00    -0.199 A  
HETATM   26  N   UNL     1     -12.033  11.885  67.395  1.00  0.00    -0.601 NA 
HETATM   27  C   UNL     1     -10.078  12.232  66.018  1.00  0.00    -0.269 A  
ENDBRANCH  14  22
ENDBRANCH  13  14
ENDBRANCH  10  13
ENDBRANCH   6   7
ENDBRANCH   5   6
ENDBRANCH   4   5
TORSDOF 7
ENDMDL
MODEL       31
REMARK 921   NORMALIZED FREE ENERGY PREDICTED BY IDOCK:   -5.60 KCAL/MOL
REMARK 922        TOTAL FREE ENERGY PREDICTED BY IDOCK:   -9.35 KCAL/MOL
REMARK 923 INTER-LIGAND FREE ENERGY PREDICTED BY IDOCK:   -7.87 KCAL/MOL
REMARK 924 INTRA-LIGAND FREE ENERGY PREDICTED BY IDOCK:   -1.48 KCAL/MOL
REMARK 927      BINDING AFFINITY PREDICTED BY RF-SCORE:    0.00 PKD
ROOT
HETATM    1  O   UNL     1      -7.828  19.990  68.103  1.00  0.00    -0.295 OA 
HETATM    2  C   UNL     1      -9.066  19.450  68.193  1.00  0.00    -0.333 C  
HETATM    3  O   UNL     1     -10.081  20.112  68.055  1.00  0.00    -0.409 OA 
HETATM    4  C   UNL     1      -9.016  17.968  68.467  1.00  0.00    -0.297 C  
ENDROOT
BRANCH   4   5
HETATM    5  C   UNL     1     -10.407  17.338  68.552  1.00  0.00    -0.371 C  
BRANCH   5   6
HETATM    6  C   UNL     1     -10.597  16.352  67.394  1.00  0.00    -0.306 C  
BRANCH   6   7
HETATM    7  N   UNL     1     -11.380  15.152  67.710  1.00  0.00    -0.324 NA 
HETATM    8  C   UNL     1     -11.653  14.265  66.570  1.00  0.00    -0.378 C  
HETATM    9  C   UNL     1     -10.417  13.525  66.056  1.00  0.00    -0.299 C  
HETATM   10  C   UNL     1      -9.726  12.739  67.175  1.00  0.00    -0.216 C  
HETATM   11  C   UNL     1      -9.454  13.670  68.361  1.00  0.00    -0.190 C  
HETATM   12  C   UNL     1     -10.742  14.380  68.796  1.00  0.00    -0.252 C  
BRANCH  10  13
HETATM   13  O   UNL     1     -10.506  11.657  67.703  1.00  0.00    -0.185 OA 
BRANCH  13  14
HETATM   14  C   UNL     1      -9.869  10.785  68.653  1.00  0.00    -0.184 C  
BRANCH  14  15
HETATM   15  C   UNL     1     -10.810  10.459  69.806  1.00  0.00    -0.342 A  
HETATM   16  C   UNL     1     -12.065  11.090  69.878  1.00  0.00    -0.435 A  
HETATM   17  C   UNL     1     -13.012  10.680  70.818  1.00  0.00    -0.396 A  
HETATM   18  C   UNL     1     -10.504   9.454  70.738  1.00  0.00    -0.372 A  
HETATM   19  C   UNL     1     -11.451   9.047  71.680  1.00  0.00    -0.431 A  
HETATM   20 CL   UNL     1     -13.906   9.081  72.798  1.00  0.00    -0.407 Cl 
HETATM   21  C   UNL     1     -12.708   9.646  71.702  1.00  0.00    -0.407 A  
ENDBRANCH  14  15
BRANCH  14  22
HETATM   22  C   UNL     1      -9.341   9.551  67.922  1.00  0.00    -0.132 A  
HETATM   23  C   UNL     1      -7.529   8.215  67.365  1.00  0.00    -0.093 A  
HETATM   24  C   UNL     1      -9.663   7.651  66.478  1.00  0.00    -0.251 A  
HETATM   25  C   UNL     1     -10.188   8.750  67.152  1.00  0.00    -0.346 A  
HETATM   26  N   UNL     1      -8.010   9.285  68.035  1.00  0.00    -0.099 NA 
HETATM   27  C   UNL     1      -8.306   7.376  66.583  1.00  0.00    -0.124 A  
ENDBRANCH  14  22
ENDBRANCH  13  14
ENDBRANCH  10  13
ENDBRANCH   6   7
ENDBRANCH   5   6
ENDBRANCH   4   5
TORSDOF 7
ENDMDL
MODEL       32
REMARK 921   NORMALIZED FREE ENERGY PREDICTED BY IDOCK:   -5.59 KCAL/MOL
REMARK 922        TOTAL FREE ENERGY PREDICTED BY IDOCK:   -9.34 KCAL/MOL
REMARK 923 INTER-LIGAND FREE ENERGY PREDICTED BY IDOCK:   -8.50 KCAL/MOL
REMARK 924 INTRA-LIGAND FREE ENERGY PREDICTED BY IDOCK:   -0.85 KCAL/MOL
REMARK 927      BINDING AFFINITY PREDICTED BY RF-SCORE:    0.00 PKD
ROOT
HETATM    1  O   UNL     1      -6.721  19.226  65.758  1.00  0.00    -0.228 OA 
HETATM    2  C   UNL     1      -7.766  19.587  66.539  1.00  0.00    -0.281 C  
HETATM    3  O   UNL     1      -7.761  20.606  67.210  1.00  0.00    -0.330 OA 
HETATM    4  C   UNL     1      -8.899  18.594  66.461  1.00  0.00    -0.310 C  
ENDROOT
BRANCH   4   5
HETATM    5  C   UNL     1     -10.096  18.997  67.323  1.00  0.00    -0.436 C  
BRANCH   5   6
HETATM    6  C   UNL     1     -10.427  17.868  68.305  1.00  0.00    -0.354 C  
BRANCH   6   7
HETATM    7  N   UNL     1      -9.788  16.578  68.018  1.00  0.00    -0.236 NA 
HETATM    8  C   UNL     1      -9.247  15.875  69.191  1.00  0.00    -0.253 C  
HETATM    9  C   UNL     1     -10.321  15.322  70.129  1.00  0.00    -0.210 C  
HETATM   10  C   UNL     1     -11.304  14.414  69.383  1.00  0.00    -0.281 C  
HETATM   11  C   UNL     1     -11.856  15.153  68.159  1.00  0.00    -0.252 C  
HETATM   12  C   UNL     1     -10.711  15.685  67.289  1.00  0.00    -0.305 C  
BRANCH  10  13
HETATM   13  O   UNL     1     -10.721  13.206  68.876  1.00  0.00    -0.233 OA 
BRANCH  13  14
HETATM   14  C   UNL     1     -11.617  12.145  68.503  1.00  0.00    -0.315 C  
BRANCH  14  15
HETATM   15  C   UNL     1     -11.244  11.572  67.141  1.00  0.00    -0.365 A  
HETATM   16  C   UNL     1     -11.574  12.283  65.974  1.00  0.00    -0.451 A  
HETATM   17  C   UNL     1     -11.089  11.872  64.731  1.00  0.00    -0.367 A  
HETATM   18  C   UNL     1     -10.472  10.404  67.026  1.00  0.00    -0.309 A  
HETATM   19  C   UNL     1      -9.990   9.991  65.782  1.00  0.00    -0.346 A  
HETATM   20 CL   UNL     1      -9.612  10.284  63.126  1.00  0.00    -0.335 Cl 
HETATM   21  C   UNL     1     -10.283  10.739  64.644  1.00  0.00    -0.350 A  
ENDBRANCH  14  15
BRANCH  14  22
HETATM   22  C   UNL     1     -11.650  11.103  69.620  1.00  0.00    -0.326 A  
HETATM   23  C   UNL     1     -10.488   9.598  70.949  1.00  0.00    -0.289 A  
HETATM   24  C   UNL     1     -12.846   9.752  71.215  1.00  0.00    -0.472 A  
HETATM   25  C   UNL     1     -12.855  10.725  70.221  1.00  0.00    -0.226 A  
HETATM   26  N   UNL     1     -10.463  10.544  69.985  1.00  0.00    -0.189 NA 
HETATM   27  C   UNL     1     -11.640   9.173  71.588  1.00  0.00    -0.449 A  
ENDBRANCH  14  22
ENDBRANCH  13  14
ENDBRANCH  10  13
ENDBRANCH   6   7
ENDBRANCH   5   6
ENDBRANCH   4   5
TORSDOF 7
ENDMDL
MODEL       33
REMARK 921   NORMALIZED FREE ENERGY PREDICTED BY IDOCK:   -5.59 KCAL/MOL
REMARK 922        TOTAL FREE ENERGY PREDICTED BY IDOCK:   -9.34 KCAL/MOL
REMARK 923 INTER-LIGAND FREE ENERGY PREDICTED BY IDOCK:   -8.66 KCAL/MOL
REMARK 924 INTRA-LIGAND FREE ENERGY PREDICTED BY IDOCK:   -0.68 KCAL/MOL
REMARK 927      BINDING AFFINITY PREDICTED BY RF-SCORE:    0.00 PKD
ROOT
HETATM    1  O   UNL     1      -9.611   3.815  67.984  1.00  0.00    -0.173 OA 
HETATM    2  C   UNL     1      -9.347   4.833  68.836  1.00  0.00    -0.135 C  
HETATM    3  O   UNL     1      -8.717   5.821  68.499  1.00  0.00    -0.112 OA 
HETATM    4  C   UNL     1      -9.926   4.586  70.206  1.00  0.00    -0.288 C  
ENDROOT
BRANCH   4   5
HETATM    5  C   UNL     1      -9.653   5.737  71.176  1.00  0.00    -0.201 C  
BRANCH   5   6
HETATM    6  C   UNL     1     -10.978   6.378  71.600  1.00  0.00    -0.257 C  
BRANCH   6   7
HETATM    7  N   UNL     1     -11.643   7.189  70.572  1.00  0.00    -0.303 NA 
HETATM    8  C   UNL     1     -12.889   7.841  71.001  1.00  0.00    -0.057 C  
HETATM    9  C   UNL     1     -12.676   8.982  71.997  1.00  0.00    -0.467 C  
HETATM   10  C   UNL     1     -11.699  10.028  71.453  1.00  0.00    -0.334 C  
HETATM   11  C   UNL     1     -10.408   9.337  71.003  1.00  0.00    -0.388 C  
HETATM   12  C   UNL     1     -10.718   8.200  70.022  1.00  0.00    -0.243 C  
BRANCH  10  13
HETATM   13  O   UNL     1     -12.178  10.741  70.305  1.00  0.00    -0.297 OA 
BRANCH  13  14
HETATM   14  C   UNL     1     -11.565  12.009  70.011  1.00  0.00    -0.195 C  
BRANCH  14  15
HETATM   15  C   UNL     1     -11.468  12.229  68.506  1.00  0.00    -0.349 A  
HETATM   16  C   UNL     1     -10.937  11.215  67.689  1.00  0.00    -0.323 A  
HETATM   17  C   UNL     1     -11.000  11.318  66.298  1.00  0.00    -0.265 A  
HETATM   18  C   UNL     1     -12.003  13.376  67.898  1.00  0.00    -0.360 A  
HETATM   19  C   UNL     1     -12.063  13.480  66.507  1.00  0.00    -0.460 A  
HETATM   20 CL   UNL     1     -11.741  12.527  64.003  1.00  0.00    -0.454 Cl 
HETATM   21  C   UNL     1     -11.581  12.442  65.714  1.00  0.00    -0.398 A  
ENDBRANCH  14  15
BRANCH  14  22
HETATM   22  C   UNL     1     -12.326  13.112  70.745  1.00  0.00    -0.321 A  
HETATM   23  C   UNL     1     -12.553  15.372  71.219  1.00  0.00    -0.412 A  
HETATM   24  C   UNL     1     -14.035  13.842  72.277  1.00  0.00    -0.663 A  
HETATM   25  C   UNL     1     -13.387  12.811  71.604  1.00  0.00    -0.345 A  
HETATM   26  N   UNL     1     -11.908  14.393  70.547  1.00  0.00    -0.298 NA 
HETATM   27  C   UNL     1     -13.611  15.150  72.084  1.00  0.00    -0.558 A  
ENDBRANCH  14  22
ENDBRANCH  13  14
ENDBRANCH  10  13
ENDBRANCH   6   7
ENDBRANCH   5   6
ENDBRANCH   4   5
TORSDOF 7
ENDMDL
MODEL       34
REMARK 921   NORMALIZED FREE ENERGY PREDICTED BY IDOCK:   -5.58 KCAL/MOL
REMARK 922        TOTAL FREE ENERGY PREDICTED BY IDOCK:   -9.33 KCAL/MOL
REMARK 923 INTER-LIGAND FREE ENERGY PREDICTED BY IDOCK:   -8.38 KCAL/MOL
REMARK 924 INTRA-LIGAND FREE ENERGY PREDICTED BY IDOCK:   -0.95 KCAL/MOL
REMARK 927      BINDING AFFINITY PREDICTED BY RF-SCORE:    0.00 PKD
ROOT
HETATM    1  O   UNL     1     -12.390  15.344  74.539  1.00  0.00    -0.646 OA 
HETATM    2  C   UNL     1     -12.819  15.624  73.286  1.00  0.00    -0.527 C  
HETATM    3  O   UNL     1     -13.989  15.852  73.030  1.00  0.00    -0.573 OA 
HETATM    4  C   UNL     1     -11.687  15.622  72.290  1.00  0.00    -0.579 C  
ENDROOT
BRANCH   4   5
HETATM    5  C   UNL     1     -12.152  15.957  70.871  1.00  0.00    -0.414 C  
BRANCH   5   6
HETATM    6  C   UNL     1     -11.014  15.688  69.880  1.00  0.00    -0.318 C  
BRANCH   6   7
HETATM    7  N   UNL     1     -11.384  14.908  68.693  1.00  0.00    -0.277 NA 
HETATM    8  C   UNL     1     -10.255  14.457  67.865  1.00  0.00    -0.232 C  
HETATM    9  C   UNL     1      -9.407  13.366  68.522  1.00  0.00    -0.097 C  
HETATM   10  C   UNL     1     -10.261  12.165  68.940  1.00  0.00    -0.036 C  
HETATM   11  C   UNL     1     -11.437  12.647  69.794  1.00  0.00    -0.200 C  
HETATM   12  C   UNL     1     -12.218  13.748  69.066  1.00  0.00    -0.224 C  
BRANCH  10  13
HETATM   13  O   UNL     1     -10.846  11.448  67.844  1.00  0.00    -0.199 OA 
BRANCH  13  14
HETATM   14  C   UNL     1     -10.037  11.261  66.669  1.00  0.00    -0.214 C  
BRANCH  14  15
HETATM   15  C   UNL     1      -9.589   9.811  66.543  1.00  0.00    -0.249 A  
HETATM   16  C   UNL     1     -10.190   8.826  67.348  1.00  0.00    -0.318 A  
HETATM   17  C   UNL     1      -9.928   7.473  67.128  1.00  0.00    -0.288 A  
HETATM   18  C   UNL     1      -8.670   9.411  65.559  1.00  0.00    -0.190 A  
HETATM   19  C   UNL     1      -8.405   8.057  65.343  1.00  0.00    -0.161 A  
HETATM   20 CL   UNL     1      -8.797   5.424  65.784  1.00  0.00    -0.148 Cl 
HETATM   21  C   UNL     1      -9.051   7.094  66.113  1.00  0.00    -0.119 A  
ENDBRANCH  14  15
BRANCH  14  22
HETATM   22  C   UNL     1     -10.801  11.777  65.450  1.00  0.00    -0.295 A  
HETATM   23  C   UNL     1     -12.752  12.685  64.584  1.00  0.00    -0.377 A  
HETATM   24  C   UNL     1     -10.977  12.183  63.083  1.00  0.00    -0.247 A  
HETATM   25  C   UNL     1     -10.237  11.730  64.171  1.00  0.00    -0.363 A  
HETATM   26  N   UNL     1     -12.057  12.258  65.661  1.00  0.00    -0.578 NA 
HETATM   27  C   UNL     1     -12.261  12.669  63.289  1.00  0.00    -0.512 A  
ENDBRANCH  14  22
ENDBRANCH  13  14
ENDBRANCH  10  13
ENDBRANCH   6   7
ENDBRANCH   5   6
ENDBRANCH   4   5
TORSDOF 7
ENDMDL
MODEL       35
REMARK 921   NORMALIZED FREE ENERGY PREDICTED BY IDOCK:   -5.58 KCAL/MOL
REMARK 922        TOTAL FREE ENERGY PREDICTED BY IDOCK:   -9.32 KCAL/MOL
REMARK 923 INTER-LIGAND FREE ENERGY PREDICTED BY IDOCK:   -7.97 KCAL/MOL
REMARK 924 INTRA-LIGAND FREE ENERGY PREDICTED BY IDOCK:   -1.36 KCAL/MOL
REMARK 927      BINDING AFFINITY PREDICTED BY RF-SCORE:    0.00 PKD
ROOT
HETATM    1  O   UNL     1      -8.534   3.188  66.883  1.00  0.00    -0.095 OA 
HETATM    2  C   UNL     1      -9.380   3.971  67.592  1.00  0.00    -0.181 C  
HETATM    3  O   UNL     1     -10.230   4.666  67.061  1.00  0.00    -0.196 OA 
HETATM    4  C   UNL     1      -9.140   3.860  69.077  1.00  0.00    -0.198 C  
ENDROOT
BRANCH   4   5
HETATM    5  C   UNL     1     -10.102   4.724  69.894  1.00  0.00    -0.299 C  
BRANCH   5   6
HETATM    6  C   UNL     1      -9.310   5.775  70.679  1.00  0.00    -0.159 C  
BRANCH   6   7
HETATM    7  N   UNL     1      -9.199   7.090  70.036  1.00  0.00    -0.148 NA 
HETATM    8  C   UNL     1     -10.426   7.571  69.385  1.00  0.00    -0.222 C  
HETATM    9  C   UNL     1     -11.533   7.960  70.366  1.00  0.00    -0.154 C  
HETATM   10  C   UNL     1     -11.043   8.993  71.385  1.00  0.00    -0.329 C  
HETATM   11  C   UNL     1      -9.761   8.485  72.052  1.00  0.00    -0.377 C  
HETATM   12  C   UNL     1      -8.717   8.104  70.996  1.00  0.00    -0.139 C  
BRANCH  10  13
HETATM   13  O   UNL     1     -10.707  10.267  70.818  1.00  0.00    -0.220 OA 
BRANCH  13  14
HETATM   14  C   UNL     1     -11.675  10.880  69.950  1.00  0.00    -0.339 C  
BRANCH  14  15
HETATM   15  C   UNL     1     -12.326  12.081  70.625  1.00  0.00    -0.394 A  
HETATM   16  C   UNL     1     -13.175  11.882  71.728  1.00  0.00    -0.426 A  
HETATM   17  C   UNL     1     -13.640  12.968  72.471  1.00  0.00    -0.537 A  
HETATM   18  C   UNL     1     -12.008  13.395  70.245  1.00  0.00    -0.378 A  
HETATM   19  C   UNL     1     -12.476  14.482  70.987  1.00  0.00    -0.412 A  
HETATM   20 CL   UNL     1     -13.770  15.593  73.078  1.00  0.00    -0.611 Cl 
HETATM   21  C   UNL     1     -13.272  14.262  72.109  1.00  0.00    -0.402 A  
ENDBRANCH  14  15
BRANCH  14  22
HETATM   22  C   UNL     1     -11.009  11.212  68.615  1.00  0.00    -0.220 A  
HETATM   23  C   UNL     1     -11.247  11.714  66.362  1.00  0.00    -0.287 A  
HETATM   24  C   UNL     1      -9.049  11.517  67.249  1.00  0.00    -0.164 A  
HETATM   25  C   UNL     1      -9.617  11.240  68.489  1.00  0.00    -0.199 A  
HETATM   26  N   UNL     1     -11.828  11.452  67.554  1.00  0.00    -0.627 NA 
HETATM   27  C   UNL     1      -9.878  11.758  66.162  1.00  0.00    -0.254 A  
ENDBRANCH  14  22
ENDBRANCH  13  14
ENDBRANCH  10  13
ENDBRANCH   6   7
ENDBRANCH   5   6
ENDBRANCH   4   5
TORSDOF 7
ENDMDL
MODEL       36
REMARK 921   NORMALIZED FREE ENERGY PREDICTED BY IDOCK:   -5.56 KCAL/MOL
REMARK 922        TOTAL FREE ENERGY PREDICTED BY IDOCK:   -9.29 KCAL/MOL
REMARK 923 INTER-LIGAND FREE ENERGY PREDICTED BY IDOCK:   -7.81 KCAL/MOL
REMARK 924 INTRA-LIGAND FREE ENERGY PREDICTED BY IDOCK:   -1.48 KCAL/MOL
REMARK 927      BINDING AFFINITY PREDICTED BY RF-SCORE:    0.00 PKD
ROOT
HETATM    1  O   UNL     1     -12.655  13.788  63.129  1.00  0.00    -0.793 OA 
HETATM    2  C   UNL     1     -12.368  14.041  64.427  1.00  0.00    -0.367 C  
HETATM    3  O   UNL     1     -13.102  13.698  65.339  1.00  0.00    -0.704 OA 
HETATM    4  C   UNL     1     -11.058  14.771  64.583  1.00  0.00    -0.337 C  
ENDROOT
BRANCH   4   5
HETATM    5  C   UNL     1     -10.708  15.047  66.047  1.00  0.00    -0.329 C  
BRANCH   5   6
HETATM    6  C   UNL     1      -9.586  14.104  66.495  1.00  0.00    -0.296 C  
BRANCH   6   7
HETATM    7  N   UNL     1      -9.670  13.641  67.885  1.00  0.00    -0.226 NA 
HETATM    8  C   UNL     1     -10.963  13.058  68.272  1.00  0.00    -0.260 C  
HETATM    9  C   UNL     1     -11.243  11.698  67.629  1.00  0.00    -0.345 C  
HETATM   10  C   UNL     1     -10.115  10.701  67.909  1.00  0.00    -0.168 C  
HETATM   11  C   UNL     1      -8.773  11.321  67.510  1.00  0.00    -0.138 C  
HETATM   12  C   UNL     1      -8.586  12.685  68.186  1.00  0.00    -0.188 C  
BRANCH  10  13
HETATM   13  O   UNL     1      -9.979  10.338  69.290  1.00  0.00    -0.205 OA 
BRANCH  13  14
HETATM   14  C   UNL     1     -10.340   8.996  69.660  1.00  0.00    -0.212 C  
BRANCH  14  15
HETATM   15  C   UNL     1      -9.137   8.243  70.214  1.00  0.00    -0.150 A  
HETATM   16  C   UNL     1      -8.507   8.704  71.383  1.00  0.00    -0.240 A  
HETATM   17  C   UNL     1      -7.522   7.938  72.008  1.00  0.00    -0.091 A  
HETATM   18  C   UNL     1      -8.711   7.030  69.650  1.00  0.00    -0.141 A  
HETATM   19  C   UNL     1      -7.722   6.265  70.274  1.00  0.00    -0.098 A  
HETATM   20 CL   UNL     1      -5.999   5.727  72.280  1.00  0.00    -0.037 Cl 
HETATM   21  C   UNL     1      -7.148   6.713  71.461  1.00  0.00    -0.080 A  
ENDBRANCH  14  15
BRANCH  14  22
HETATM   22  C   UNL     1     -11.529   9.046  70.619  1.00  0.00    -0.248 A  
HETATM   23  C   UNL     1     -13.079   7.889  71.900  1.00  0.00    -0.289 A  
HETATM   24  C   UNL     1     -13.214  10.263  71.836  1.00  0.00    -0.550 A  
HETATM   25  C   UNL     1     -12.114  10.262  70.983  1.00  0.00    -0.487 A  
HETATM   26  N   UNL     1     -12.007   7.856  71.079  1.00  0.00    -0.284 NA 
HETATM   27  C   UNL     1     -13.710   9.053  72.304  1.00  0.00    -0.550 A  
ENDBRANCH  14  22
ENDBRANCH  13  14
ENDBRANCH  10  13
ENDBRANCH   6   7
ENDBRANCH   5   6
ENDBRANCH   4   5
TORSDOF 7
ENDMDL
MODEL       37
REMARK 921   NORMALIZED FREE ENERGY PREDICTED BY IDOCK:   -5.55 KCAL/MOL
REMARK 922        TOTAL FREE ENERGY PREDICTED BY IDOCK:   -9.29 KCAL/MOL
REMARK 923 INTER-LIGAND FREE ENERGY PREDICTED BY IDOCK:   -7.83 KCAL/MOL
REMARK 924 INTRA-LIGAND FREE ENERGY PREDICTED BY IDOCK:   -1.46 KCAL/MOL
REMARK 927      BINDING AFFINITY PREDICTED BY RF-SCORE:    0.00 PKD
ROOT
HETATM    1  O   UNL     1     -10.534   5.429  71.544  1.00  0.00    -0.217 OA 
HETATM    2  C   UNL     1     -10.774   5.762  70.254  1.00  0.00    -0.309 C  
HETATM    3  O   UNL     1     -11.826   6.260  69.890  1.00  0.00    -0.340 OA 
HETATM    4  C   UNL     1      -9.597   5.450  69.363  1.00  0.00    -0.203 C  
ENDROOT
BRANCH   4   5
HETATM    5  C   UNL     1      -9.844   5.839  67.905  1.00  0.00    -0.147 C  
BRANCH   5   6
HETATM    6  C   UNL     1      -8.757   6.813  67.440  1.00  0.00    -0.119 C  
BRANCH   6   7
HETATM    7  N   UNL     1      -9.238   7.993  66.711  1.00  0.00    -0.155 NA 
HETATM    8  C   UNL     1     -10.515   8.543  67.188  1.00  0.00    -0.299 C  
HETATM    9  C   UNL     1     -10.422   9.222  68.556  1.00  0.00    -0.240 C  
HETATM   10  C   UNL     1      -9.345  10.311  68.570  1.00  0.00    -0.155 C  
HETATM   11  C   UNL     1      -8.022   9.729  68.065  1.00  0.00    -0.097 C  
HETATM   12  C   UNL     1      -8.214   9.057  66.700  1.00  0.00    -0.118 C  
BRANCH  10  13
HETATM   13  O   UNL     1      -9.628  11.430  67.717  1.00  0.00    -0.166 OA 
BRANCH  13  14
HETATM   14  C   UNL     1     -11.007  11.805  67.554  1.00  0.00    -0.256 C  
BRANCH  14  15
HETATM   15  C   UNL     1     -11.384  12.921  68.519  1.00  0.00    -0.324 A  
HETATM   16  C   UNL     1     -12.138  12.620  69.667  1.00  0.00    -0.277 A  
HETATM   17  C   UNL     1     -12.344  13.586  70.654  1.00  0.00    -0.432 A  
HETATM   18  C   UNL     1     -10.898  14.228  68.352  1.00  0.00    -0.263 A  
HETATM   19  C   UNL     1     -11.108  15.195  69.339  1.00  0.00    -0.283 A  
HETATM   20 CL   UNL     1     -11.988  16.025  71.750  1.00  0.00    -0.555 Cl 
HETATM   21  C   UNL     1     -11.811  14.863  70.494  1.00  0.00    -0.303 A  
ENDBRANCH  14  15
BRANCH  14  22
HETATM   22  C   UNL     1     -11.259  12.149  66.086  1.00  0.00    -0.338 A  
HETATM   23  C   UNL     1     -12.770  12.759  64.435  1.00  0.00    -0.289 A  
HETATM   24  C   UNL     1     -10.506  12.388  63.811  1.00  0.00    -0.475 A  
HETATM   25  C   UNL     1     -10.228  12.095  65.143  1.00  0.00    -0.308 A  
HETATM   26  N   UNL     1     -12.531  12.485  65.737  1.00  0.00    -0.566 NA 
HETATM   27  C   UNL     1     -11.802  12.726  63.447  1.00  0.00    -0.591 A  
ENDBRANCH  14  22
ENDBRANCH  13  14
ENDBRANCH  10  13
ENDBRANCH   6   7
ENDBRANCH   5   6
ENDBRANCH   4   5
TORSDOF 7
ENDMDL
MODEL       38
REMARK 921   NORMALIZED FREE ENERGY PREDICTED BY IDOCK:   -5.53 KCAL/MOL
REMARK 922        TOTAL FREE ENERGY PREDICTED BY IDOCK:   -9.25 KCAL/MOL
REMARK 923 INTER-LIGAND FREE ENERGY PREDICTED BY IDOCK:   -8.10 KCAL/MOL
REMARK 924 INTRA-LIGAND FREE ENERGY PREDICTED BY IDOCK:   -1.14 KCAL/MOL
REMARK 927      BINDING AFFINITY PREDICTED BY RF-SCORE:    0.00 PKD
ROOT
HETATM    1  O   UNL     1      -8.482   7.895  67.527  1.00  0.00    -0.122 OA 
HETATM    2  C   UNL     1      -9.421   8.381  66.682  1.00  0.00    -0.205 C  
HETATM    3  O   UNL     1     -10.582   8.006  66.706  1.00  0.00    -0.320 OA 
HETATM    4  C   UNL     1      -8.855   9.419  65.747  1.00  0.00    -0.204 C  
ENDROOT
BRANCH   4   5
HETATM    5  C   UNL     1      -9.908   9.994  64.798  1.00  0.00    -0.325 C  
BRANCH   5   6
HETATM    6  C   UNL     1     -10.038  11.504  65.027  1.00  0.00    -0.270 C  
BRANCH   6   7
HETATM    7  N   UNL     1     -10.624  11.897  66.314  1.00  0.00    -0.244 NA 
HETATM    8  C   UNL     1      -9.696  12.552  67.248  1.00  0.00    -0.202 C  
HETATM    9  C   UNL     1      -9.281  13.960  66.819  1.00  0.00    -0.267 C  
HETATM   10  C   UNL     1     -10.499  14.856  66.578  1.00  0.00    -0.297 C  
HETATM   11  C   UNL     1     -11.462  14.162  65.610  1.00  0.00    -0.325 C  
HETATM   12  C   UNL     1     -11.809  12.755  66.111  1.00  0.00    -0.425 C  
BRANCH  10  13
HETATM   13  O   UNL     1     -11.268  15.134  67.757  1.00  0.00    -0.304 OA 
BRANCH  13  14
HETATM   14  C   UNL     1     -10.553  15.582  68.922  1.00  0.00    -0.240 C  
BRANCH  14  15
HETATM   15  C   UNL     1      -9.902  16.937  68.672  1.00  0.00    -0.270 A  
HETATM   16  C   UNL     1      -8.554  17.134  69.018  1.00  0.00    -0.101 A  
HETATM   17  C   UNL     1      -7.886  18.299  68.638  1.00  0.00    -0.313 A  
HETATM   18  C   UNL     1     -10.583  17.962  67.996  1.00  0.00    -0.366 A  
HETATM   19  C   UNL     1      -9.916  19.130  67.620  1.00  0.00    -0.440 A  
HETATM   20 CL   UNL     1      -7.720  20.679  67.378  1.00  0.00    -0.378 Cl 
HETATM   21  C   UNL     1      -8.566  19.284  67.924  1.00  0.00    -0.312 A  
ENDBRANCH  14  15
BRANCH  14  22
HETATM   22  C   UNL     1     -11.497  15.566  70.123  1.00  0.00    -0.327 A  
HETATM   23  C   UNL     1     -11.930  16.239  72.301  1.00  0.00    -0.520 A  
HETATM   24  C   UNL     1     -13.505  14.819  71.224  1.00  0.00    -0.478 A  
HETATM   25  C   UNL     1     -12.686  14.831  70.099  1.00  0.00    -0.264 A  
HETATM   26  N   UNL     1     -11.117  16.275  71.222  1.00  0.00    -0.059 NA 
HETATM   27  C   UNL     1     -13.121  15.535  72.350  1.00  0.00    -0.527 A  
ENDBRANCH  14  22
ENDBRANCH  13  14
ENDBRANCH  10  13
ENDBRANCH   6   7
ENDBRANCH   5   6
ENDBRANCH   4   5
TORSDOF 7
ENDMDL
MODEL       39
REMARK 921   NORMALIZED FREE ENERGY PREDICTED BY IDOCK:   -5.49 KCAL/MOL
REMARK 922        TOTAL FREE ENERGY PREDICTED BY IDOCK:   -9.20 KCAL/MOL
REMARK 923 INTER-LIGAND FREE ENERGY PREDICTED BY IDOCK:   -8.63 KCAL/MOL
REMARK 924 INTRA-LIGAND FREE ENERGY PREDICTED BY IDOCK:   -0.57 KCAL/MOL
REMARK 927      BINDING AFFINITY PREDICTED BY RF-SCORE:    0.00 PKD
ROOT
HETATM    1  O   UNL     1     -10.918  19.502  64.978  1.00  0.00    -0.325 OA 
HETATM    2  C   UNL     1     -10.424  19.798  66.203  1.00  0.00    -0.509 C  
HETATM    3  O   UNL     1     -11.143  20.075  67.149  1.00  0.00    -0.202 OA 
HETATM    4  C   UNL     1      -8.918  19.731  66.235  1.00  0.00    -0.431 C  
ENDROOT
BRANCH   4   5
HETATM    5  C   UNL     1      -8.345  20.043  67.619  1.00  0.00    -0.364 C  
BRANCH   5   6
HETATM    6  C   UNL     1      -7.835  18.753  68.268  1.00  0.00    -0.305 C  
BRANCH   6   7
HETATM    7  N   UNL     1      -8.217  17.511  67.585  1.00  0.00    -0.213 NA 
HETATM    8  C   UNL     1      -7.353  16.354  67.863  1.00  0.00    -0.133 C  
HETATM    9  C   UNL     1      -7.491  15.809  69.286  1.00  0.00    -0.220 C  
HETATM   10  C   UNL     1      -8.947  15.465  69.616  1.00  0.00    -0.156 C  
HETATM   11  C   UNL     1      -9.839  16.674  69.316  1.00  0.00    -0.194 C  
HETATM   12  C   UNL     1      -9.621  17.161  67.878  1.00  0.00    -0.266 C  
BRANCH  10  13
HETATM   13  O   UNL     1      -9.487  14.384  68.844  1.00  0.00    -0.188 OA 
BRANCH  13  14
HETATM   14  C   UNL     1     -10.900  14.401  68.579  1.00  0.00    -0.251 C  
BRANCH  14  15
HETATM   15  C   UNL     1     -11.193  13.933  67.160  1.00  0.00    -0.328 A  
HETATM   16  C   UNL     1     -10.205  13.237  66.440  1.00  0.00    -0.292 A  
HETATM   17  C   UNL     1     -10.506  12.644  65.213  1.00  0.00    -0.312 A  
HETATM   18  C   UNL     1     -12.469  14.077  66.590  1.00  0.00    -0.296 A  
HETATM   19  C   UNL     1     -12.768  13.487  65.360  1.00  0.00    -0.495 A  
HETATM   20 CL   UNL     1     -12.187  11.949  63.220  1.00  0.00    -0.579 Cl 
HETATM   21  C   UNL     1     -11.792  12.755  64.688  1.00  0.00    -0.374 A  
ENDBRANCH  14  15
BRANCH  14  22
HETATM   22  C   UNL     1     -11.620  13.589  69.656  1.00  0.00    -0.275 A  
HETATM   23  C   UNL     1     -12.913  13.574  71.581  1.00  0.00    -0.359 A  
HETATM   24  C   UNL     1     -12.199  11.490  70.685  1.00  0.00    -0.473 A  
HETATM   25  C   UNL     1     -11.554  12.192  69.671  1.00  0.00    -0.361 A  
HETATM   26  N   UNL     1     -12.302  14.283  70.608  1.00  0.00    -0.337 NA 
HETATM   27  C   UNL     1     -12.892  12.192  71.662  1.00  0.00    -0.390 A  
ENDBRANCH  14  22
ENDBRANCH  13  14
ENDBRANCH  10  13
ENDBRANCH   6   7
ENDBRANCH   5   6
ENDBRANCH   4   5
TORSDOF 7
ENDMDL
MODEL       40
REMARK 921   NORMALIZED FREE ENERGY PREDICTED BY IDOCK:   -5.44 KCAL/MOL
REMARK 922        TOTAL FREE ENERGY PREDICTED BY IDOCK:   -9.13 KCAL/MOL
REMARK 923 INTER-LIGAND FREE ENERGY PREDICTED BY IDOCK:   -8.02 KCAL/MOL
REMARK 924 INTRA-LIGAND FREE ENERGY PREDICTED BY IDOCK:   -1.11 KCAL/MOL
REMARK 927      BINDING AFFINITY PREDICTED BY RF-SCORE:    0.00 PKD
ROOT
HETATM    1  O   UNL     1      -9.688   3.373  67.575  1.00  0.00    -0.166 OA 
HETATM    2  C   UNL     1      -9.166   4.514  68.083  1.00  0.00    -0.132 C  
HETATM    3  O   UNL     1      -7.983   4.796  67.981  1.00  0.00    -0.085 OA 
HETATM    4  C   UNL     1     -10.214   5.361  68.759  1.00  0.00    -0.252 C  
ENDROOT
BRANCH   4   5
HETATM    5  C   UNL     1      -9.644   6.665  69.321  1.00  0.00    -0.145 C  
BRANCH   5   6
HETATM    6  C   UNL     1      -9.840   7.793  68.303  1.00  0.00    -0.167 C  
BRANCH   6   7
HETATM    7  N   UNL     1      -9.429   9.128  68.755  1.00  0.00    -0.146 NA 
HETATM    8  C   UNL     1      -9.686  10.217  67.802  1.00  0.00    -0.156 C  
HETATM    9  C   UNL     1     -11.169  10.551  67.633  1.00  0.00    -0.338 C  
HETATM   10  C   UNL     1     -11.831  10.866  68.978  1.00  0.00    -0.299 C  
HETATM   11  C   UNL     1     -11.550   9.729  69.965  1.00  0.00    -0.185 C  
HETATM   12  C   UNL     1     -10.045   9.454  70.058  1.00  0.00    -0.226 C  
BRANCH  10  13
HETATM   13  O   UNL     1     -11.342  12.058  69.609  1.00  0.00    -0.247 OA 
BRANCH  13  14
HETATM   14  C   UNL     1     -11.983  13.299  69.265  1.00  0.00    -0.303 C  
BRANCH  14  15
HETATM   15  C   UNL     1     -12.237  14.142  70.508  1.00  0.00    -0.431 A  
HETATM   16  C   UNL     1     -12.978  13.601  71.574  1.00  0.00    -0.443 A  
HETATM   17  C   UNL     1     -13.073  14.281  72.790  1.00  0.00    -0.589 A  
HETATM   18  C   UNL     1     -11.651  15.408  70.666  1.00  0.00    -0.363 A  
HETATM   19  C   UNL     1     -11.749  16.090  71.881  1.00  0.00    -0.594 A  
HETATM   20 CL   UNL     1     -12.483  16.309  74.469  1.00  0.00    -0.625 Cl 
HETATM   21  C   UNL     1     -12.442  15.514  72.944  1.00  0.00    -0.424 A  
ENDBRANCH  14  15
BRANCH  14  22
HETATM   22  C   UNL     1     -11.151  14.011  68.199  1.00  0.00    -0.260 A  
HETATM   23  C   UNL     1      -9.058  14.659  67.438  1.00  0.00    -0.197 A  
HETATM   24  C   UNL     1     -10.969  15.324  66.189  1.00  0.00    -0.307 A  
HETATM   25  C   UNL     1     -11.761  14.663  67.123  1.00  0.00    -0.392 A  
HETATM   26  N   UNL     1      -9.799  14.004  68.358  1.00  0.00    -0.229 NA 
HETATM   27  C   UNL     1      -9.590  15.326  66.348  1.00  0.00    -0.317 A  
ENDBRANCH  14  22
ENDBRANCH  13  14
ENDBRANCH  10  13
ENDBRANCH   6   7
ENDBRANCH   5   6
ENDBRANCH   4   5
TORSDOF 7
ENDMDL
MODEL       41
REMARK 921   NORMALIZED FREE ENERGY PREDICTED BY IDOCK:   -5.43 KCAL/MOL
REMARK 922        TOTAL FREE ENERGY PREDICTED BY IDOCK:   -9.11 KCAL/MOL
REMARK 923 INTER-LIGAND FREE ENERGY PREDICTED BY IDOCK:   -8.01 KCAL/MOL
REMARK 924 INTRA-LIGAND FREE ENERGY PREDICTED BY IDOCK:   -1.10 KCAL/MOL
REMARK 927      BINDING AFFINITY PREDICTED BY RF-SCORE:    0.00 PKD
ROOT
HETATM    1  O   UNL     1     -12.080  15.080  74.364  1.00  0.00    -0.563 OA 
HETATM    2  C   UNL     1     -12.722  15.392  73.214  1.00  0.00    -0.508 C  
HETATM    3  O   UNL     1     -13.873  15.795  73.195  1.00  0.00    -0.508 OA 
HETATM    4  C   UNL     1     -11.844  15.187  72.005  1.00  0.00    -0.495 C  
ENDROOT
BRANCH   4   5
HETATM    5  C   UNL     1     -12.549  15.555  70.698  1.00  0.00    -0.493 C  
BRANCH   5   6
HETATM    6  C   UNL     1     -11.656  15.180  69.510  1.00  0.00    -0.319 C  
BRANCH   6   7
HETATM    7  N   UNL     1     -12.015  13.935  68.821  1.00  0.00    -0.356 NA 
HETATM    8  C   UNL     1     -12.140  14.043  67.360  1.00  0.00    -0.349 C  
HETATM    9  C   UNL     1     -10.806  14.250  66.641  1.00  0.00    -0.301 C  
HETATM   10  C   UNL     1      -9.798  13.154  66.999  1.00  0.00    -0.244 C  
HETATM   11  C   UNL     1      -9.681  13.045  68.523  1.00  0.00    -0.132 C  
HETATM   12  C   UNL     1     -11.064  12.856  69.158  1.00  0.00    -0.190 C  
BRANCH  10  13
HETATM   13  O   UNL     1     -10.165  11.845  66.543  1.00  0.00    -0.199 OA 
BRANCH  13  14
HETATM   14  C   UNL     1      -9.121  10.859  66.455  1.00  0.00    -0.169 C  
BRANCH  14  15
HETATM   15  C   UNL     1      -9.493   9.603  67.234  1.00  0.00    -0.175 A  
HETATM   16  C   UNL     1      -9.301   9.567  68.626  1.00  0.00    -0.142 A  
HETATM   17  C   UNL     1      -9.795   8.504  69.384  1.00  0.00    -0.185 A  
HETATM   18  C   UNL     1     -10.133   8.519  66.611  1.00  0.00    -0.364 A  
HETATM   19  C   UNL     1     -10.624   7.454  67.369  1.00  0.00    -0.371 A  
HETATM   20 CL   UNL     1     -11.160   6.198  69.696  1.00  0.00    -0.459 Cl 
HETATM   21  C   UNL     1     -10.472   7.462  68.753  1.00  0.00    -0.199 A  
ENDBRANCH  14  15
BRANCH  14  22
HETATM   22  C   UNL     1      -8.804  10.598  64.983  1.00  0.00    -0.197 A  
HETATM   23  C   UNL     1      -7.205  10.199  63.350  1.00  0.00    -0.121 A  
HETATM   24  C   UNL     1      -9.480  10.382  62.682  1.00  0.00    -0.324 A  
HETATM   25  C   UNL     1      -9.814  10.594  64.016  1.00  0.00    -0.399 A  
HETATM   26  N   UNL     1      -7.498  10.397  64.654  1.00  0.00    -0.090 NA 
HETATM   27  C   UNL     1      -8.150  10.181  62.338  1.00  0.00    -0.162 A  
ENDBRANCH  14  22
ENDBRANCH  13  14
ENDBRANCH  10  13
ENDBRANCH   6   7
ENDBRANCH   5   6
ENDBRANCH   4   5
TORSDOF 7
ENDMDL
MODEL       42
REMARK 921   NORMALIZED FREE ENERGY PREDICTED BY IDOCK:   -5.42 KCAL/MOL
REMARK 922        TOTAL FREE ENERGY PREDICTED BY IDOCK:   -9.09 KCAL/MOL
REMARK 923 INTER-LIGAND FREE ENERGY PREDICTED BY IDOCK:   -7.83 KCAL/MOL
REMARK 924 INTRA-LIGAND FREE ENERGY PREDICTED BY IDOCK:   -1.27 KCAL/MOL
REMARK 927      BINDING AFFINITY PREDICTED BY RF-SCORE:    0.00 PKD
ROOT
HETATM    1  O   UNL     1      -9.810   4.047  67.399  1.00  0.00    -0.177 OA 
HETATM    2  C   UNL     1      -9.908   5.328  66.970  1.00  0.00    -0.167 C  
HETATM    3  O   UNL     1     -10.890   6.018  67.189  1.00  0.00    -0.301 OA 
HETATM    4  C   UNL     1      -8.676   5.767  66.220  1.00  0.00    -0.134 C  
ENDROOT
BRANCH   4   5
HETATM    5  C   UNL     1      -8.763   7.219  65.746  1.00  0.00    -0.129 C  
BRANCH   5   6
HETATM    6  C   UNL     1      -8.148   8.144  66.802  1.00  0.00    -0.103 C  
BRANCH   6   7
HETATM    7  N   UNL     1      -8.397   9.577  66.606  1.00  0.00    -0.115 NA 
HETATM    8  C   UNL     1      -9.800   9.939  66.355  1.00  0.00    -0.227 C  
HETATM    9  C   UNL     1     -10.706   9.780  67.577  1.00  0.00    -0.327 C  
HETATM   10  C   UNL     1     -10.171  10.566  68.778  1.00  0.00    -0.190 C  
HETATM   11  C   UNL     1      -8.707  10.187  69.027  1.00  0.00    -0.161 C  
HETATM   12  C   UNL     1      -7.880  10.360  67.747  1.00  0.00    -0.101 C  
BRANCH  10  13
HETATM   13  O   UNL     1     -10.178  11.989  68.603  1.00  0.00    -0.214 OA 
BRANCH  13  14
HETATM   14  C   UNL     1     -11.445  12.616  68.339  1.00  0.00    -0.310 C  
BRANCH  14  15
HETATM   15  C   UNL     1     -11.923  13.407  69.550  1.00  0.00    -0.377 A  
HETATM   16  C   UNL     1     -11.989  14.810  69.481  1.00  0.00    -0.351 A  
HETATM   17  C   UNL     1     -12.588  15.543  70.507  1.00  0.00    -0.462 A  
HETATM   18  C   UNL     1     -12.410  12.762  70.699  1.00  0.00    -0.381 A  
HETATM   19  C   UNL     1     -13.006  13.497  71.726  1.00  0.00    -0.439 A  
HETATM   20 CL   UNL     1     -13.929  15.777  72.836  1.00  0.00    -0.596 Cl 
HETATM   21  C   UNL     1     -13.112  14.881  71.615  1.00  0.00    -0.341 A  
ENDBRANCH  14  15
BRANCH  14  22
HETATM   22  C   UNL     1     -11.333  13.451  67.064  1.00  0.00    -0.317 A  
HETATM   23  C   UNL     1     -12.369  14.326  65.181  1.00  0.00    -0.424 A  
HETATM   24  C   UNL     1     -10.044  14.728  65.480  1.00  0.00    -0.409 A  
HETATM   25  C   UNL     1     -10.110  13.997  66.663  1.00  0.00    -0.276 A  
HETATM   26  N   UNL     1     -12.466  13.617  66.327  1.00  0.00    -0.403 NA 
HETATM   27  C   UNL     1     -11.194  14.896  64.721  1.00  0.00    -0.393 A  
ENDBRANCH  14  22
ENDBRANCH  13  14
ENDBRANCH  10  13
ENDBRANCH   6   7
ENDBRANCH   5   6
ENDBRANCH   4   5
TORSDOF 7
ENDMDL
MODEL       43
REMARK 921   NORMALIZED FREE ENERGY PREDICTED BY IDOCK:   -5.41 KCAL/MOL
REMARK 922        TOTAL FREE ENERGY PREDICTED BY IDOCK:   -9.08 KCAL/MOL
REMARK 923 INTER-LIGAND FREE ENERGY PREDICTED BY IDOCK:   -7.80 KCAL/MOL
REMARK 924 INTRA-LIGAND FREE ENERGY PREDICTED BY IDOCK:   -1.29 KCAL/MOL
REMARK 927      BINDING AFFINITY PREDICTED BY RF-SCORE:    0.00 PKD
ROOT
HETATM    1  O   UNL     1     -11.413  16.786  64.187  1.00  0.00    -1.171 OA 
HETATM    2  C   UNL     1     -11.685  15.470  64.354  1.00  0.00    -0.242 C  
HETATM    3  O   UNL     1     -12.688  14.947  63.900  1.00  0.00    -0.789 OA 
HETATM    4  C   UNL     1     -10.609  14.767  65.142  1.00  0.00    -0.439 C  
ENDROOT
BRANCH   4   5
HETATM    5  C   UNL     1     -10.891  13.275  65.321  1.00  0.00    -0.314 C  
BRANCH   5   6
HETATM    6  C   UNL     1     -11.477  13.026  66.715  1.00  0.00    -0.345 C  
BRANCH   6   7
HETATM    7  N   UNL     1     -11.735  11.620  67.048  1.00  0.00    -0.581 NA 
HETATM    8  C   UNL     1     -10.674  10.680  66.655  1.00  0.00    -0.181 C  
HETATM    9  C   UNL     1      -9.394  10.814  67.482  1.00  0.00    -0.158 C  
HETATM   10  C   UNL     1      -9.679  10.683  68.981  1.00  0.00    -0.202 C  
HETATM   11  C   UNL     1     -10.789  11.660  69.379  1.00  0.00    -0.151 C  
HETATM   12  C   UNL     1     -12.023  11.466  68.489  1.00  0.00    -0.225 C  
BRANCH  10  13
HETATM   13  O   UNL     1     -10.141   9.385  69.382  1.00  0.00    -0.182 OA 
BRANCH  13  14
HETATM   14  C   UNL     1      -9.158   8.344  69.511  1.00  0.00    -0.153 C  
BRANCH  14  15
HETATM   15  C   UNL     1      -9.328   7.597  70.828  1.00  0.00    -0.162 A  
HETATM   16  C   UNL     1     -10.060   8.189  71.873  1.00  0.00    -0.285 A  
HETATM   17  C   UNL     1     -10.381   7.458  73.018  1.00  0.00    -0.356 A  
HETATM   18  C   UNL     1      -8.871   6.278  70.986  1.00  0.00    -0.136 A  
HETATM   19  C   UNL     1      -9.190   5.548  72.133  1.00  0.00    -0.155 A  
HETATM   20 CL   UNL     1     -10.434   5.206  74.503  1.00  0.00    -0.297 Cl 
HETATM   21  C   UNL     1      -9.961   6.134  73.134  1.00  0.00    -0.179 A  
ENDBRANCH  14  15
BRANCH  14  22
HETATM   22  C   UNL     1      -9.222   7.441  68.280  1.00  0.00    -0.137 A  
HETATM   23  C   UNL     1      -8.115   6.467  66.489  1.00  0.00    -0.111 A  
HETATM   24  C   UNL     1     -10.451   6.082  66.718  1.00  0.00    -0.329 A  
HETATM   25  C   UNL     1     -10.429   6.875  67.861  1.00  0.00    -0.262 A  
HETATM   26  N   UNL     1      -8.061   7.236  67.598  1.00  0.00    -0.113 NA 
HETATM   27  C   UNL     1      -9.272   5.873  66.014  1.00  0.00    -0.143 A  
ENDBRANCH  14  22
ENDBRANCH  13  14
ENDBRANCH  10  13
ENDBRANCH   6   7
ENDBRANCH   5   6
ENDBRANCH   4   5
TORSDOF 7
ENDMDL
MODEL       44
REMARK 921   NORMALIZED FREE ENERGY PREDICTED BY IDOCK:   -5.40 KCAL/MOL
REMARK 922        TOTAL FREE ENERGY PREDICTED BY IDOCK:   -9.07 KCAL/MOL
REMARK 923 INTER-LIGAND FREE ENERGY PREDICTED BY IDOCK:   -8.09 KCAL/MOL
REMARK 924 INTRA-LIGAND FREE ENERGY PREDICTED BY IDOCK:   -0.98 KCAL/MOL
REMARK 927      BINDING AFFINITY PREDICTED BY RF-SCORE:    0.00 PKD
ROOT
HETATM    1  O   UNL     1     -13.831  16.129  73.299  1.00  0.00    -0.559 OA 
HETATM    2  C   UNL     1     -13.612  15.321  72.235  1.00  0.00    -0.481 C  
HETATM    3  O   UNL     1     -13.650  15.728  71.086  1.00  0.00    -0.576 OA 
HETATM    4  C   UNL     1     -13.318  13.903  72.654  1.00  0.00    -0.640 C  
ENDROOT
BRANCH   4   5
HETATM    5  C   UNL     1     -13.049  12.981  71.463  1.00  0.00    -0.400 C  
BRANCH   5   6
HETATM    6  C   UNL     1     -13.123  11.519  71.917  1.00  0.00    -0.387 C  
BRANCH   6   7
HETATM    7  N   UNL     1     -13.149  10.526  70.837  1.00  0.00    -0.360 NA 
HETATM    8  C   UNL     1     -11.954  10.503  69.981  1.00  0.00    -0.288 C  
HETATM    9  C   UNL     1     -10.706   9.956  70.677  1.00  0.00    -0.372 C  
HETATM   10  C   UNL     1     -10.955   8.564  71.264  1.00  0.00    -0.256 C  
HETATM   11  C   UNL     1     -12.206   8.597  72.148  1.00  0.00    -0.453 C  
HETATM   12  C   UNL     1     -13.398   9.173  71.374  1.00  0.00    -0.302 C  
BRANCH  10  13
HETATM   13  O   UNL     1     -11.201   7.546  70.284  1.00  0.00    -0.272 OA 
BRANCH  13  14
HETATM   14  C   UNL     1     -10.457   6.321  70.402  1.00  0.00    -0.222 C  
BRANCH  14  15
HETATM   15  C   UNL     1     -10.386   5.597  69.064  1.00  0.00    -0.314 A  
HETATM   16  C   UNL     1     -10.878   6.226  67.907  1.00  0.00    -0.417 A  
HETATM   17  C   UNL     1     -10.665   5.664  66.647  1.00  0.00    -0.339 A  
HETATM   18  C   UNL     1      -9.735   4.359  68.935  1.00  0.00    -0.211 A  
HETATM   19  C   UNL     1      -9.525   3.795  67.674  1.00  0.00    -0.234 A  
HETATM   20 CL   UNL     1      -9.631   3.813  64.978  1.00  0.00    -0.168 Cl 
HETATM   21  C   UNL     1      -9.972   4.460  66.536  1.00  0.00    -0.223 A  
ENDBRANCH  14  15
BRANCH  14  22
HETATM   22  C   UNL     1      -9.088   6.624  71.010  1.00  0.00    -0.156 A  
HETATM   23  C   UNL     1      -7.684   6.530  72.854  1.00  0.00    -0.101 A  
HETATM   24  C   UNL     1      -6.881   7.580  70.877  1.00  0.00    -0.047 A  
HETATM   25  C   UNL     1      -8.105   7.296  70.277  1.00  0.00    -0.121 A  
HETATM   26  N   UNL     1      -8.880   6.236  72.298  1.00  0.00    -0.136 NA 
HETATM   27  C   UNL     1      -6.664   7.192  72.192  1.00  0.00    -0.056 A  
ENDBRANCH  14  22
ENDBRANCH  13  14
ENDBRANCH  10  13
ENDBRANCH   6   7
ENDBRANCH   5   6
ENDBRANCH   4   5
TORSDOF 7
ENDMDL
MODEL       45
REMARK 921   NORMALIZED FREE ENERGY PREDICTED BY IDOCK:   -5.39 KCAL/MOL
REMARK 922        TOTAL FREE ENERGY PREDICTED BY IDOCK:   -9.06 KCAL/MOL
REMARK 923 INTER-LIGAND FREE ENERGY PREDICTED BY IDOCK:   -7.67 KCAL/MOL
REMARK 924 INTRA-LIGAND FREE ENERGY PREDICTED BY IDOCK:   -1.39 KCAL/MOL
REMARK 927      BINDING AFFINITY PREDICTED BY RF-SCORE:    0.00 PKD
ROOT
HETATM    1  O   UNL     1     -11.867   5.905  72.353  1.00  0.00    -0.311 OA 
HETATM    2  C   UNL     1     -10.970   5.748  71.351  1.00  0.00    -0.237 C  
HETATM    3  O   UNL     1      -9.982   5.041  71.462  1.00  0.00    -0.175 OA 
HETATM    4  C   UNL     1     -11.355   6.532  70.123  1.00  0.00    -0.463 C  
ENDROOT
BRANCH   4   5
HETATM    5  C   UNL     1     -10.362   6.350  68.973  1.00  0.00    -0.238 C  
BRANCH   5   6
HETATM    6  C   UNL     1      -9.297   7.451  69.034  1.00  0.00    -0.145 C  
BRANCH   6   7
HETATM    7  N   UNL     1      -9.338   8.426  67.938  1.00  0.00    -0.135 NA 
HETATM    8  C   UNL     1     -10.659   9.014  67.672  1.00  0.00    -0.231 C  
HETATM    9  C   UNL     1     -11.138   9.973  68.763  1.00  0.00    -0.219 C  
HETATM   10  C   UNL     1     -10.115  11.083  69.024  1.00  0.00    -0.180 C  
HETATM   11  C   UNL     1      -8.741  10.461  69.291  1.00  0.00    -0.160 C  
HETATM   12  C   UNL     1      -8.352   9.504  68.158  1.00  0.00    -0.118 C  
BRANCH  10  13
HETATM   13  O   UNL     1      -9.927  11.980  67.920  1.00  0.00    -0.187 OA 
BRANCH  13  14
HETATM   14  C   UNL     1     -11.081  12.692  67.443  1.00  0.00    -0.273 C  
BRANCH  14  15
HETATM   15  C   UNL     1     -10.943  14.187  67.701  1.00  0.00    -0.278 A  
HETATM   16  C   UNL     1     -11.594  14.764  68.805  1.00  0.00    -0.347 A  
HETATM   17  C   UNL     1     -11.341  16.089  69.166  1.00  0.00    -0.352 A  
HETATM   18  C   UNL     1     -10.085  14.987  66.928  1.00  0.00    -0.249 A  
HETATM   19  C   UNL     1      -9.835  16.313  67.288  1.00  0.00    -0.243 A  
HETATM   20 CL   UNL     1     -10.067  18.454  68.914  1.00  0.00    -0.405 Cl 
HETATM   21  C   UNL     1     -10.447  16.851  68.417  1.00  0.00    -0.355 A  
ENDBRANCH  14  15
BRANCH  14  22
HETATM   22  C   UNL     1     -11.312  12.341  65.973  1.00  0.00    -0.350 A  
HETATM   23  C   UNL     1     -10.521  11.333  64.039  1.00  0.00    -0.378 A  
HETATM   24  C   UNL     1     -12.618  12.452  63.953  1.00  0.00    -0.528 A  
HETATM   25  C   UNL     1     -12.460  12.768  65.299  1.00  0.00    -0.528 A  
HETATM   26  N   UNL     1     -10.341  11.619  65.347  1.00  0.00    -0.256 NA 
HETATM   27  C   UNL     1     -11.630  11.721  63.307  1.00  0.00    -0.325 A  
ENDBRANCH  14  22
ENDBRANCH  13  14
ENDBRANCH  10  13
ENDBRANCH   6   7
ENDBRANCH   5   6
ENDBRANCH   4   5
TORSDOF 7
ENDMDL
MODEL       46
REMARK 921   NORMALIZED FREE ENERGY PREDICTED BY IDOCK:   -5.39 KCAL/MOL
REMARK 922        TOTAL FREE ENERGY PREDICTED BY IDOCK:   -9.05 KCAL/MOL
REMARK 923 INTER-LIGAND FREE ENERGY PREDICTED BY IDOCK:   -7.63 KCAL/MOL
REMARK 924 INTRA-LIGAND FREE ENERGY PREDICTED BY IDOCK:   -1.42 KCAL/MOL
REMARK 927      BINDING AFFINITY PREDICTED BY RF-SCORE:    0.00 PKD
ROOT
HETATM    1  O   UNL     1     -10.715  20.159  65.252  1.00  0.00    -0.283 OA 
HETATM    2  C   UNL     1     -10.363  19.824  66.516  1.00  0.00    -0.506 C  
HETATM    3  O   UNL     1     -11.187  19.607  67.388  1.00  0.00    -0.293 OA 
HETATM    4  C   UNL     1      -8.867  19.751  66.684  1.00  0.00    -0.418 C  
ENDROOT
BRANCH   4   5
HETATM    5  C   UNL     1      -8.453  19.354  68.103  1.00  0.00    -0.367 C  
BRANCH   5   6
HETATM    6  C   UNL     1      -8.143  17.854  68.148  1.00  0.00    -0.267 C  
BRANCH   6   7
HETATM    7  N   UNL     1      -9.048  17.001  67.368  1.00  0.00    -0.221 NA 
HETATM    8  C   UNL     1      -8.392  15.939  66.592  1.00  0.00    -0.293 C  
HETATM    9  C   UNL     1      -7.809  14.817  67.454  1.00  0.00    -0.224 C  
HETATM   10  C   UNL     1      -8.869  14.210  68.378  1.00  0.00    -0.187 C  
HETATM   11  C   UNL     1      -9.552  15.325  69.176  1.00  0.00    -0.243 C  
HETATM   12  C   UNL     1     -10.089  16.410  68.234  1.00  0.00    -0.248 C  
BRANCH  10  13
HETATM   13  O   UNL     1      -9.924  13.522  67.692  1.00  0.00    -0.222 OA 
BRANCH  13  14
HETATM   14  C   UNL     1      -9.546  12.589  66.665  1.00  0.00    -0.239 C  
BRANCH  14  15
HETATM   15  C   UNL     1      -9.528  11.164  67.204  1.00  0.00    -0.187 A  
HETATM   16  C   UNL     1      -8.355  10.397  67.099  1.00  0.00    -0.126 A  
HETATM   17  C   UNL     1      -8.256   9.161  67.740  1.00  0.00    -0.109 A  
HETATM   18  C   UNL     1     -10.621  10.636  67.910  1.00  0.00    -0.266 A  
HETATM   19  C   UNL     1     -10.523   9.397  68.548  1.00  0.00    -0.239 A  
HETATM   20 CL   UNL     1      -9.179   7.196  69.342  1.00  0.00    -0.148 Cl 
HETATM   21  C   UNL     1      -9.333   8.676  68.478  1.00  0.00    -0.138 A  
ENDBRANCH  14  15
BRANCH  14  22
HETATM   22  C   UNL     1     -10.464  12.778  65.457  1.00  0.00    -0.287 A  
HETATM   23  C   UNL     1     -12.084  14.051  64.392  1.00  0.00    -0.458 A  
HETATM   24  C   UNL     1     -11.383  12.025  63.363  1.00  0.00    -0.484 A  
HETATM   25  C   UNL     1     -10.513  11.830  64.431  1.00  0.00    -0.359 A  
HETATM   26  N   UNL     1     -11.246  13.893  65.439  1.00  0.00    -0.300 NA 
HETATM   27  C   UNL     1     -12.188  13.156  63.341  1.00  0.00    -0.521 A  
ENDBRANCH  14  22
ENDBRANCH  13  14
ENDBRANCH  10  13
ENDBRANCH   6   7
ENDBRANCH   5   6
ENDBRANCH   4   5
TORSDOF 7
ENDMDL
MODEL       47
REMARK 921   NORMALIZED FREE ENERGY PREDICTED BY IDOCK:   -5.37 KCAL/MOL
REMARK 922        TOTAL FREE ENERGY PREDICTED BY IDOCK:   -9.02 KCAL/MOL
REMARK 923 INTER-LIGAND FREE ENERGY PREDICTED BY IDOCK:   -7.70 KCAL/MOL
REMARK 924 INTRA-LIGAND FREE ENERGY PREDICTED BY IDOCK:   -1.32 KCAL/MOL
REMARK 927      BINDING AFFINITY PREDICTED BY RF-SCORE:    0.00 PKD
ROOT
HETATM    1  O   UNL     1     -12.032  16.126  72.469  1.00  0.00    -0.494 OA 
HETATM    2  C   UNL     1     -12.513  15.805  71.244  1.00  0.00    -0.448 C  
HETATM    3  O   UNL     1     -13.695  15.583  71.042  1.00  0.00    -0.546 OA 
HETATM    4  C   UNL     1     -11.424  15.773  70.202  1.00  0.00    -0.366 C  
ENDROOT
BRANCH   4   5
HETATM    5  C   UNL     1     -11.954  15.432  68.808  1.00  0.00    -0.278 C  
BRANCH   5   6
HETATM    6  C   UNL     1     -10.845  14.767  67.984  1.00  0.00    -0.260 C  
BRANCH   6   7
HETATM    7  N   UNL     1     -10.230  13.584  68.597  1.00  0.00    -0.221 NA 
HETATM    8  C   UNL     1     -11.165  12.505  68.949  1.00  0.00    -0.281 C  
HETATM    9  C   UNL     1     -11.751  11.778  67.738  1.00  0.00    -0.337 C  
HETATM   10  C   UNL     1     -10.650  11.236  66.820  1.00  0.00    -0.260 C  
HETATM   11  C   UNL     1      -9.678  12.365  66.466  1.00  0.00    -0.245 C  
HETATM   12  C   UNL     1      -9.156  13.046  67.737  1.00  0.00    -0.200 C  
BRANCH  10  13
HETATM   13  O   UNL     1      -9.848  10.204  67.410  1.00  0.00    -0.175 OA 
BRANCH  13  14
HETATM   14  C   UNL     1     -10.530   9.043  67.914  1.00  0.00    -0.234 C  
BRANCH  14  15
HETATM   15  C   UNL     1     -10.182   7.808  67.092  1.00  0.00    -0.365 A  
HETATM   16  C   UNL     1      -9.028   7.812  66.288  1.00  0.00    -0.209 A  
HETATM   17  C   UNL     1      -8.591   6.640  65.668  1.00  0.00    -0.130 A  
HETATM   18  C   UNL     1     -10.923   6.620  67.206  1.00  0.00    -0.456 A  
HETATM   19  C   UNL     1     -10.487   5.449  66.583  1.00  0.00    -0.356 A  
HETATM   20 CL   UNL     1      -8.725   3.996  65.145  1.00  0.00    -0.117 Cl 
HETATM   21  C   UNL     1      -9.312   5.459  65.835  1.00  0.00    -0.143 A  
ENDBRANCH  14  15
BRANCH  14  22
HETATM   22  C   UNL     1     -10.227   8.894  69.405  1.00  0.00    -0.209 A  
HETATM   23  C   UNL     1      -8.711   8.313  71.061  1.00  0.00    -0.146 A  
HETATM   24  C   UNL     1     -10.899   8.977  71.716  1.00  0.00    -0.437 A  
HETATM   25  C   UNL     1     -11.205   9.151  70.370  1.00  0.00    -0.279 A  
HETATM   26  N   UNL     1      -8.977   8.478  69.747  1.00  0.00    -0.144 NA 
HETATM   27  C   UNL     1      -9.627   8.547  72.072  1.00  0.00    -0.371 A  
ENDBRANCH  14  22
ENDBRANCH  13  14
ENDBRANCH  10  13
ENDBRANCH   6   7
ENDBRANCH   5   6
ENDBRANCH   4   5
TORSDOF 7
ENDMDL
MODEL       48
REMARK 921   NORMALIZED FREE ENERGY PREDICTED BY IDOCK:   -5.35 KCAL/MOL
REMARK 922        TOTAL FREE ENERGY PREDICTED BY IDOCK:   -9.00 KCAL/MOL
REMARK 923 INTER-LIGAND FREE ENERGY PREDICTED BY IDOCK:   -8.10 KCAL/MOL
REMARK 924 INTRA-LIGAND FREE ENERGY PREDICTED BY IDOCK:   -0.90 KCAL/MOL
REMARK 927      BINDING AFFINITY PREDICTED BY RF-SCORE:    0.00 PKD
ROOT
HETATM    1  O   UNL     1     -12.685  13.831  63.259  1.00  0.00    -0.783 OA 
HETATM    2  C   UNL     1     -12.471  14.328  64.500  1.00  0.00    -0.333 C  
HETATM    3  O   UNL     1     -13.268  14.181  65.411  1.00  0.00    -0.741 OA 
HETATM    4  C   UNL     1     -11.154  15.056  64.595  1.00  0.00    -0.335 C  
ENDROOT
BRANCH   4   5
HETATM    5  C   UNL     1     -10.887  15.608  65.997  1.00  0.00    -0.276 C  
BRANCH   5   6
HETATM    6  C   UNL     1      -9.497  15.167  66.468  1.00  0.00    -0.283 C  
BRANCH   6   7
HETATM    7  N   UNL     1      -9.425  14.682  67.851  1.00  0.00    -0.207 NA 
HETATM    8  C   UNL     1     -10.552  13.837  68.276  1.00  0.00    -0.255 C  
HETATM    9  C   UNL     1     -10.569  12.456  67.617  1.00  0.00    -0.236 C  
HETATM   10  C   UNL     1      -9.247  11.713  67.835  1.00  0.00    -0.171 C  
HETATM   11  C   UNL     1      -8.081  12.605  67.397  1.00  0.00    -0.182 C  
HETATM   12  C   UNL     1      -8.154  13.970  68.093  1.00  0.00    -0.151 C  
BRANCH  10  13
HETATM   13  O   UNL     1      -8.982  11.372  69.203  1.00  0.00     0.024 OA 
BRANCH  13  14
HETATM   14  C   UNL     1      -9.125   9.991  69.579  1.00  0.00    -0.220 C  
BRANCH  14  15
HETATM   15  C   UNL     1     -10.358   9.791  70.450  1.00  0.00    -0.354 A  
HETATM   16  C   UNL     1     -11.493  10.594  70.242  1.00  0.00    -0.422 A  
HETATM   17  C   UNL     1     -12.692  10.314  70.901  1.00  0.00    -0.462 A  
HETATM   18  C   UNL     1     -10.433   8.743  71.382  1.00  0.00    -0.354 A  
HETATM   19  C   UNL     1     -11.632   8.465  72.044  1.00  0.00    -0.418 A  
HETATM   20 CL   UNL     1     -14.260   8.839  72.527  1.00  0.00    -0.472 Cl 
HETATM   21  C   UNL     1     -12.760   9.239  71.784  1.00  0.00    -0.381 A  
ENDBRANCH  14  15
BRANCH  14  22
HETATM   22  C   UNL     1      -9.115   9.127  68.319  1.00  0.00    -0.132 A  
HETATM   23  C   UNL     1      -7.901   8.193  66.577  1.00  0.00    -0.093 A  
HETATM   24  C   UNL     1     -10.250   7.830  66.637  1.00  0.00    -0.288 A  
HETATM   25  C   UNL     1     -10.297   8.587  67.803  1.00  0.00    -0.298 A  
HETATM   26  N   UNL     1      -7.913   8.928  67.710  1.00  0.00    -0.102 NA 
HETATM   27  C   UNL     1      -9.029   7.628  66.008  1.00  0.00    -0.178 A  
ENDBRANCH  14  22
ENDBRANCH  13  14
ENDBRANCH  10  13
ENDBRANCH   6   7
ENDBRANCH   5   6
ENDBRANCH   4   5
TORSDOF 7
ENDMDL
MODEL       49
REMARK 921   NORMALIZED FREE ENERGY PREDICTED BY IDOCK:   -5.32 KCAL/MOL
REMARK 922        TOTAL FREE ENERGY PREDICTED BY IDOCK:   -8.96 KCAL/MOL
REMARK 923 INTER-LIGAND FREE ENERGY PREDICTED BY IDOCK:   -7.89 KCAL/MOL
REMARK 924 INTRA-LIGAND FREE ENERGY PREDICTED BY IDOCK:   -1.07 KCAL/MOL
REMARK 927      BINDING AFFINITY PREDICTED BY RF-SCORE:    0.00 PKD
ROOT
HETATM    1  O   UNL     1     -10.262  19.745  68.762  1.00  0.00    -0.449 OA 
HETATM    2  C   UNL     1      -9.562  18.822  68.061  1.00  0.00    -0.321 C  
HETATM    3  O   UNL     1      -8.343  18.784  68.066  1.00  0.00    -0.274 OA 
HETATM    4  C   UNL     1     -10.466  17.877  67.311  1.00  0.00    -0.373 C  
ENDROOT
BRANCH   4   5
HETATM    5  C   UNL     1      -9.690  16.815  66.530  1.00  0.00    -0.298 C  
BRANCH   5   6
HETATM    6  C   UNL     1     -10.659  16.000  65.668  1.00  0.00    -0.377 C  
BRANCH   6   7
HETATM    7  N   UNL     1     -10.184  14.668  65.274  1.00  0.00    -0.384 NA 
HETATM    8  C   UNL     1      -9.550  13.888  66.347  1.00  0.00    -0.277 C  
HETATM    9  C   UNL     1     -10.530  13.403  67.417  1.00  0.00    -0.243 C  
HETATM   10  C   UNL     1     -11.683  12.604  66.801  1.00  0.00    -0.392 C  
HETATM   11  C   UNL     1     -12.331  13.423  65.680  1.00  0.00    -0.521 C  
HETATM   12  C   UNL     1     -11.275  13.879  64.666  1.00  0.00    -0.378 C  
BRANCH  10  13
HETATM   13  O   UNL     1     -11.286  11.365  66.198  1.00  0.00    -0.254 OA 
BRANCH  13  14
HETATM   14  C   UNL     1     -10.086  10.745  66.691  1.00  0.00    -0.218 C  
BRANCH  14  15
HETATM   15  C   UNL     1     -10.417   9.555  67.582  1.00  0.00    -0.321 A  
HETATM   16  C   UNL     1     -10.465   8.264  67.028  1.00  0.00    -0.384 A  
HETATM   17  C   UNL     1     -10.589   7.142  67.849  1.00  0.00    -0.269 A  
HETATM   18  C   UNL     1     -10.562   9.699  68.972  1.00  0.00    -0.237 A  
HETATM   19  C   UNL     1     -10.689   8.577  69.793  1.00  0.00    -0.213 A  
HETATM   20 CL   UNL     1     -10.741   5.918  70.249  1.00  0.00    -0.356 Cl 
HETATM   21  C   UNL     1     -10.680   7.303  69.230  1.00  0.00    -0.198 A  
ENDBRANCH  14  15
BRANCH  14  22
HETATM   22  C   UNL     1      -9.183  10.395  65.508  1.00  0.00    -0.184 A  
HETATM   23  C   UNL     1      -8.987   9.947  63.241  1.00  0.00    -0.257 A  
HETATM   24  C   UNL     1      -7.031   9.825  64.588  1.00  0.00    -0.124 A  
HETATM   25  C   UNL     1      -7.814  10.169  65.686  1.00  0.00    -0.145 A  
HETATM   26  N   UNL     1      -9.772  10.289  64.286  1.00  0.00    -0.317 NA 
HETATM   27  C   UNL     1      -7.627   9.709  63.340  1.00  0.00    -0.124 A  
ENDBRANCH  14  22
ENDBRANCH  13  14
ENDBRANCH  10  13
ENDBRANCH   6   7
ENDBRANCH   5   6
ENDBRANCH   4   5
TORSDOF 7
ENDMDL
MODEL       50
REMARK 921   NORMALIZED FREE ENERGY PREDICTED BY IDOCK:   -5.31 KCAL/MOL
REMARK 922        TOTAL FREE ENERGY PREDICTED BY IDOCK:   -8.95 KCAL/MOL
REMARK 923 INTER-LIGAND FREE ENERGY PREDICTED BY IDOCK:   -7.72 KCAL/MOL
REMARK 924 INTRA-LIGAND FREE ENERGY PREDICTED BY IDOCK:   -1.23 KCAL/MOL
REMARK 927      BINDING AFFINITY PREDICTED BY RF-SCORE:    0.00 PKD
ROOT
HETATM    1  O   UNL     1     -14.405   8.935  72.644  1.00  0.00    -0.613 OA 
HETATM    2  C   UNL     1     -13.205   9.279  72.118  1.00  0.00    -0.461 C  
HETATM    3  O   UNL     1     -13.043  10.300  71.472  1.00  0.00    -0.384 OA 
HETATM    4  C   UNL     1     -12.137   8.264  72.439  1.00  0.00    -0.430 C  
ENDROOT
BRANCH   4   5
HETATM    5  C   UNL     1     -10.771   8.649  71.868  1.00  0.00    -0.414 C  
BRANCH   5   6
HETATM    6  C   UNL     1     -10.355   7.632  70.799  1.00  0.00    -0.203 C  
BRANCH   6   7
HETATM    7  N   UNL     1      -9.320   8.089  69.864  1.00  0.00    -0.156 NA 
HETATM    8  C   UNL     1      -9.254   7.350  68.595  1.00  0.00    -0.143 C  
HETATM    9  C   UNL     1     -10.442   7.612  67.667  1.00  0.00    -0.313 C  
HETATM   10  C   UNL     1     -10.621   9.108  67.392  1.00  0.00    -0.244 C  
HETATM   11  C   UNL     1     -10.680   9.869  68.720  1.00  0.00    -0.247 C  
HETATM   12  C   UNL     1      -9.462   9.533  69.589  1.00  0.00    -0.199 C  
BRANCH  10  13
HETATM   13  O   UNL     1      -9.546   9.703  66.651  1.00  0.00    -0.166 OA 
BRANCH  13  14
HETATM   14  C   UNL     1      -9.729   9.863  65.234  1.00  0.00    -0.313 C  
BRANCH  14  15
HETATM   15  C   UNL     1     -10.253  11.256  64.908  1.00  0.00    -0.341 A  
HETATM   16  C   UNL     1     -11.091  11.440  63.794  1.00  0.00    -0.417 A  
HETATM   17  C   UNL     1     -11.727  12.664  63.578  1.00  0.00    -0.604 A  
HETATM   18  C   UNL     1     -10.015  12.346  65.762  1.00  0.00    -0.270 A  
HETATM   19  C   UNL     1     -10.648  13.571  65.543  1.00  0.00    -0.299 A  
HETATM   20 CL   UNL     1     -12.369  15.197  64.248  1.00  0.00    -0.370 Cl 
HETATM   21  C   UNL     1     -11.517  13.718  64.464  1.00  0.00    -0.384 A  
ENDBRANCH  14  15
BRANCH  14  22
HETATM   22  C   UNL     1      -8.423   9.515  64.520  1.00  0.00    -0.181 A  
HETATM   23  C   UNL     1      -7.373   8.660  62.636  1.00  0.00    -0.099 A  
HETATM   24  C   UNL     1      -6.022   9.338  64.473  1.00  0.00    -0.071 A  
HETATM   25  C   UNL     1      -7.187   9.694  65.146  1.00  0.00    -0.115 A  
HETATM   26  N   UNL     1      -8.520   9.002  63.262  1.00  0.00    -0.195 NA 
HETATM   27  C   UNL     1      -6.114   8.808  63.193  1.00  0.00    -0.086 A  
ENDBRANCH  14  22
ENDBRANCH  13  14
ENDBRANCH  10  13
ENDBRANCH   6   7
ENDBRANCH   5   6
ENDBRANCH   4   5
TORSDOF 7
ENDMDL
MODEL       51
REMARK 921   NORMALIZED FREE ENERGY PREDICTED BY IDOCK:   -5.28 KCAL/MOL
REMARK 922        TOTAL FREE ENERGY PREDICTED BY IDOCK:   -8.90 KCAL/MOL
REMARK 923 INTER-LIGAND FREE ENERGY PREDICTED BY IDOCK:   -7.98 KCAL/MOL
REMARK 924 INTRA-LIGAND FREE ENERGY PREDICTED BY IDOCK:   -0.92 KCAL/MOL
REMARK 927      BINDING AFFINITY PREDICTED BY RF-SCORE:    0.00 PKD
ROOT
HETATM    1  O   UNL     1      -7.022   6.627  73.433  1.00  0.00    -0.076 OA 
HETATM    2  C   UNL     1      -8.156   7.345  73.610  1.00  0.00    -0.126 C  
HETATM    3  O   UNL     1      -8.261   8.202  74.471  1.00  0.00    -0.241 OA 
HETATM    4  C   UNL     1      -9.229   6.956  72.624  1.00  0.00    -0.151 C  
ENDROOT
BRANCH   4   5
HETATM    5  C   UNL     1     -10.511   7.771  72.797  1.00  0.00    -0.390 C  
BRANCH   5   6
HETATM    6  C   UNL     1     -10.452   9.018  71.908  1.00  0.00    -0.303 C  
BRANCH   6   7
HETATM    7  N   UNL     1     -11.292   8.973  70.705  1.00  0.00    -0.264 NA 
HETATM    8  C   UNL     1     -12.426   9.909  70.700  1.00  0.00    -0.187 C  
HETATM    9  C   UNL     1     -12.015  11.376  70.559  1.00  0.00    -0.451 C  
HETATM   10  C   UNL     1     -11.148  11.599  69.316  1.00  0.00    -0.233 C  
HETATM   11  C   UNL     1      -9.974  10.614  69.327  1.00  0.00    -0.215 C  
HETATM   12  C   UNL     1     -10.479   9.175  69.488  1.00  0.00    -0.219 C  
BRANCH  10  13
HETATM   13  O   UNL     1     -11.830  11.375  68.074  1.00  0.00    -0.570 OA 
BRANCH  13  14
HETATM   14  C   UNL     1     -12.035  12.513  67.218  1.00  0.00    -0.216 C  
BRANCH  14  15
HETATM   15  C   UNL     1     -11.318  13.740  67.766  1.00  0.00    -0.331 A  
HETATM   16  C   UNL     1      -9.974  13.970  67.424  1.00  0.00    -0.243 A  
HETATM   17  C   UNL     1      -9.350  15.171  67.763  1.00  0.00    -0.189 A  
HETATM   18  C   UNL     1     -12.001  14.714  68.513  1.00  0.00    -0.298 A  
HETATM   19  C   UNL     1     -11.375  15.915  68.855  1.00  0.00    -0.377 A  
HETATM   20 CL   UNL     1      -9.320  17.662  68.799  1.00  0.00    -0.261 Cl 
HETATM   21  C   UNL     1     -10.060  16.146  68.460  1.00  0.00    -0.241 A  
ENDBRANCH  14  15
BRANCH  14  22
HETATM   22  C   UNL     1     -11.624  12.145  65.793  1.00  0.00    -0.355 A  
HETATM   23  C   UNL     1     -10.236  10.921  64.394  1.00  0.00    -0.358 A  
HETATM   24  C   UNL     1     -11.808  12.408  63.406  1.00  0.00    -0.571 A  
HETATM   25  C   UNL     1     -12.230  12.749  64.687  1.00  0.00    -0.510 A  
HETATM   26  N   UNL     1     -10.629  11.227  65.650  1.00  0.00    -0.259 NA 
HETATM   27  C   UNL     1     -10.789  11.477  63.253  1.00  0.00    -0.342 A  
ENDBRANCH  14  22
ENDBRANCH  13  14
ENDBRANCH  10  13
ENDBRANCH   6   7
ENDBRANCH   5   6
ENDBRANCH   4   5
TORSDOF 7
ENDMDL
MODEL       52
REMARK 921   NORMALIZED FREE ENERGY PREDICTED BY IDOCK:   -5.27 KCAL/MOL
REMARK 922        TOTAL FREE ENERGY PREDICTED BY IDOCK:   -8.89 KCAL/MOL
REMARK 923 INTER-LIGAND FREE ENERGY PREDICTED BY IDOCK:   -7.88 KCAL/MOL
REMARK 924 INTRA-LIGAND FREE ENERGY PREDICTED BY IDOCK:   -1.01 KCAL/MOL
REMARK 927      BINDING AFFINITY PREDICTED BY RF-SCORE:    0.00 PKD
ROOT
HETATM    1  O   UNL     1     -11.161  19.994  65.179  1.00  0.00    -0.289 OA 
HETATM    2  C   UNL     1     -10.220  19.757  66.124  1.00  0.00    -0.516 C  
HETATM    3  O   UNL     1      -9.032  19.949  65.927  1.00  0.00    -0.339 OA 
HETATM    4  C   UNL     1     -10.826  19.251  67.408  1.00  0.00    -0.554 C  
ENDROOT
BRANCH   4   5
HETATM    5  C   UNL     1      -9.778  18.997  68.493  1.00  0.00    -0.458 C  
BRANCH   5   6
HETATM    6  C   UNL     1      -9.007  17.712  68.173  1.00  0.00    -0.269 C  
BRANCH   6   7
HETATM    7  N   UNL     1      -9.180  16.617  69.135  1.00  0.00    -0.218 NA 
HETATM    8  C   UNL     1     -10.563  16.149  69.306  1.00  0.00    -0.280 C  
HETATM    9  C   UNL     1     -11.112  15.392  68.095  1.00  0.00    -0.309 C  
HETATM   10  C   UNL     1     -10.206  14.218  67.709  1.00  0.00    -0.235 C  
HETATM   11  C   UNL     1      -8.767  14.715  67.541  1.00  0.00    -0.194 C  
HETATM   12  C   UNL     1      -8.309  15.474  68.793  1.00  0.00    -0.187 C  
BRANCH  10  13
HETATM   13  O   UNL     1     -10.144  13.175  68.691  1.00  0.00    -0.219 OA 
BRANCH  13  14
HETATM   14  C   UNL     1     -10.972  12.018  68.480  1.00  0.00    -0.240 C  
BRANCH  14  15
HETATM   15  C   UNL     1     -10.152  10.854  67.938  1.00  0.00    -0.199 A  
HETATM   16  C   UNL     1      -8.925  10.528  68.543  1.00  0.00    -0.147 A  
HETATM   17  C   UNL     1      -8.243   9.364  68.184  1.00  0.00    -0.118 A  
HETATM   18  C   UNL     1     -10.645  10.023  66.920  1.00  0.00    -0.261 A  
HETATM   19  C   UNL     1      -9.961   8.860  66.558  1.00  0.00    -0.358 A  
HETATM   20 CL   UNL     1      -7.981   7.047  66.828  1.00  0.00    -0.106 Cl 
HETATM   21  C   UNL     1      -8.775   8.526  67.206  1.00  0.00    -0.130 A  
ENDBRANCH  14  15
BRANCH  14  22
HETATM   22  C   UNL     1     -11.717  11.694  69.775  1.00  0.00    -0.352 A  
HETATM   23  C   UNL     1     -12.580  10.084  71.205  1.00  0.00    -0.381 A  
HETATM   24  C   UNL     1     -12.915  12.374  71.751  1.00  0.00    -0.422 A  
HETATM   25  C   UNL     1     -12.217  12.711  70.595  1.00  0.00    -0.373 A  
HETATM   26  N   UNL     1     -11.893  10.379  70.079  1.00  0.00    -0.276 NA 
HETATM   27  C   UNL     1     -13.103  11.035  72.064  1.00  0.00    -0.449 A  
ENDBRANCH  14  22
ENDBRANCH  13  14
ENDBRANCH  10  13
ENDBRANCH   6   7
ENDBRANCH   5   6
ENDBRANCH   4   5
TORSDOF 7
ENDMDL
MODEL       53
REMARK 921   NORMALIZED FREE ENERGY PREDICTED BY IDOCK:   -5.27 KCAL/MOL
REMARK 922        TOTAL FREE ENERGY PREDICTED BY IDOCK:   -8.88 KCAL/MOL
REMARK 923 INTER-LIGAND FREE ENERGY PREDICTED BY IDOCK:   -7.99 KCAL/MOL
REMARK 924 INTRA-LIGAND FREE ENERGY PREDICTED BY IDOCK:   -0.90 KCAL/MOL
REMARK 927      BINDING AFFINITY PREDICTED BY RF-SCORE:    0.00 PKD
ROOT
HETATM    1  O   UNL     1     -11.574  16.776  63.959  1.00  0.00    -1.195 OA 
HETATM    2  C   UNL     1     -11.698  15.440  64.140  1.00  0.00    -0.100 C  
HETATM    3  O   UNL     1     -12.615  14.796  63.656  1.00  0.00    -0.749 OA 
HETATM    4  C   UNL     1     -10.581  14.878  64.983  1.00  0.00    -0.446 C  
ENDROOT
BRANCH   4   5
HETATM    5  C   UNL     1     -10.696  13.366  65.180  1.00  0.00    -0.339 C  
BRANCH   5   6
HETATM    6  C   UNL     1      -9.739  12.917  66.290  1.00  0.00    -0.268 C  
BRANCH   6   7
HETATM    7  N   UNL     1      -9.267  11.531  66.192  1.00  0.00    -0.216 NA 
HETATM    8  C   UNL     1      -8.322  11.118  67.240  1.00  0.00    -0.135 C  
HETATM    9  C   UNL     1      -8.958  10.977  68.623  1.00  0.00    -0.167 C  
HETATM   10  C   UNL     1     -10.158  10.025  68.596  1.00  0.00    -0.172 C  
HETATM   11  C   UNL     1     -11.132  10.460  67.497  1.00  0.00    -0.336 C  
HETATM   12  C   UNL     1     -10.405  10.590  66.153  1.00  0.00    -0.210 C  
BRANCH  10  13
HETATM   13  O   UNL     1      -9.821   8.662  68.299  1.00  0.00    -0.156 OA 
BRANCH  13  14
HETATM   14  C   UNL     1     -10.732   7.644  68.749  1.00  0.00    -0.077 C  
BRANCH  14  15
HETATM   15  C   UNL     1     -10.411   6.304  68.098  1.00  0.00    -0.278 A  
HETATM   16  C   UNL     1     -10.768   6.080  66.757  1.00  0.00    -0.374 A  
HETATM   17  C   UNL     1     -10.330   4.936  66.087  1.00  0.00    -0.329 A  
HETATM   18  C   UNL     1      -9.663   5.324  68.772  1.00  0.00    -0.203 A  
HETATM   19  C   UNL     1      -9.228   4.178  68.102  1.00  0.00    -0.194 A  
HETATM   20 CL   UNL     1      -8.931   2.636  65.908  1.00  0.00    -0.135 Cl 
HETATM   21  C   UNL     1      -9.545   4.000  66.758  1.00  0.00    -0.211 A  
ENDBRANCH  14  15
BRANCH  14  22
HETATM   22  C   UNL     1     -10.721   7.604  70.277  1.00  0.00    -0.239 A  
HETATM   23  C   UNL     1     -11.901   7.294  72.250  1.00  0.00    -0.248 A  
HETATM   24  C   UNL     1      -9.599   7.876  72.390  1.00  0.00    -0.270 A  
HETATM   25  C   UNL     1      -9.560   7.895  70.999  1.00  0.00    -0.177 A  
HETATM   26  N   UNL     1     -11.893   7.298  70.899  1.00  0.00    -0.318 NA 
HETATM   27  C   UNL     1     -10.792   7.572  73.031  1.00  0.00    -0.445 A  
ENDBRANCH  14  22
ENDBRANCH  13  14
ENDBRANCH  10  13
ENDBRANCH   6   7
ENDBRANCH   5   6
ENDBRANCH   4   5
TORSDOF 7
ENDMDL
MODEL       54
REMARK 921   NORMALIZED FREE ENERGY PREDICTED BY IDOCK:   -5.25 KCAL/MOL
REMARK 922        TOTAL FREE ENERGY PREDICTED BY IDOCK:   -8.86 KCAL/MOL
REMARK 923 INTER-LIGAND FREE ENERGY PREDICTED BY IDOCK:   -8.09 KCAL/MOL
REMARK 924 INTRA-LIGAND FREE ENERGY PREDICTED BY IDOCK:   -0.77 KCAL/MOL
REMARK 927      BINDING AFFINITY PREDICTED BY RF-SCORE:    0.00 PKD
ROOT
HETATM    1  O   UNL     1     -10.331  19.907  68.450  1.00  0.00    -0.450 OA 
HETATM    2  C   UNL     1     -10.519  19.435  67.195  1.00  0.00    -0.466 C  
HETATM    3  O   UNL     1     -10.725  20.171  66.243  1.00  0.00    -0.351 OA 
HETATM    4  C   UNL     1     -10.432  17.931  67.138  1.00  0.00    -0.359 C  
ENDROOT
BRANCH   4   5
HETATM    5  C   UNL     1     -10.622  17.384  65.723  1.00  0.00    -0.185 C  
BRANCH   5   6
HETATM    6  C   UNL     1     -10.457  15.860  65.734  1.00  0.00    -0.370 C  
BRANCH   6   7
HETATM    7  N   UNL     1     -10.856  15.193  66.978  1.00  0.00    -0.309 NA 
HETATM    8  C   UNL     1     -11.681  13.988  66.804  1.00  0.00    -0.407 C  
HETATM    9  C   UNL     1     -10.920  12.799  66.216  1.00  0.00    -0.307 C  
HETATM   10  C   UNL     1      -9.675  12.464  67.044  1.00  0.00    -0.211 C  
HETATM   11  C   UNL     1      -8.826  13.727  67.226  1.00  0.00    -0.225 C  
HETATM   12  C   UNL     1      -9.674  14.868  67.802  1.00  0.00    -0.212 C  
BRANCH  10  13
HETATM   13  O   UNL     1      -9.957  11.993  68.369  1.00  0.00    -0.206 OA 
BRANCH  13  14
HETATM   14  C   UNL     1     -11.066  11.091  68.527  1.00  0.00    -0.243 C  
BRANCH  14  15
HETATM   15  C   UNL     1     -10.589   9.644  68.551  1.00  0.00    -0.253 A  
HETATM   16  C   UNL     1     -10.877   8.799  67.465  1.00  0.00    -0.092 A  
HETATM   17  C   UNL     1     -10.303   7.530  67.381  1.00  0.00    -0.346 A  
HETATM   18  C   UNL     1      -9.767   9.162  69.583  1.00  0.00    -0.183 A  
HETATM   19  C   UNL     1      -9.196   7.890  69.500  1.00  0.00    -0.152 A  
HETATM   20 CL   UNL     1      -8.671   5.561  68.242  1.00  0.00    -0.099 Cl 
HETATM   21  C   UNL     1      -9.449   7.089  68.390  1.00  0.00    -0.133 A  
ENDBRANCH  14  15
BRANCH  14  22
HETATM   22  C   UNL     1     -11.866  11.495  69.764  1.00  0.00    -0.357 A  
HETATM   23  C   UNL     1     -12.629  13.190  71.153  1.00  0.00    -0.314 A  
HETATM   24  C   UNL     1     -13.158  10.942  71.720  1.00  0.00    -0.564 A  
HETATM   25  C   UNL     1     -12.462  10.534  70.586  1.00  0.00    -0.456 A  
HETATM   26  N   UNL     1     -11.951  12.826  70.042  1.00  0.00    -0.335 NA 
HETATM   27  C   UNL     1     -13.243  12.296  72.013  1.00  0.00    -0.508 A  
ENDBRANCH  14  22
ENDBRANCH  13  14
ENDBRANCH  10  13
ENDBRANCH   6   7
ENDBRANCH   5   6
ENDBRANCH   4   5
TORSDOF 7
ENDMDL
MODEL       55
REMARK 921   NORMALIZED FREE ENERGY PREDICTED BY IDOCK:   -5.25 KCAL/MOL
REMARK 922        TOTAL FREE ENERGY PREDICTED BY IDOCK:   -8.86 KCAL/MOL
REMARK 923 INTER-LIGAND FREE ENERGY PREDICTED BY IDOCK:   -7.54 KCAL/MOL
REMARK 924 INTRA-LIGAND FREE ENERGY PREDICTED BY IDOCK:   -1.32 KCAL/MOL
REMARK 927      BINDING AFFINITY PREDICTED BY RF-SCORE:    0.00 PKD
ROOT
HETATM    1  O   UNL     1     -11.213   4.905  73.478  1.00  0.00    -0.323 OA 
HETATM    2  C   UNL     1     -10.321   4.721  72.475  1.00  0.00    -0.201 C  
HETATM    3  O   UNL     1     -10.284   3.697  71.813  1.00  0.00    -0.130 OA 
HETATM    4  C   UNL     1      -9.422   5.917  72.294  1.00  0.00    -0.158 C  
ENDROOT
BRANCH   4   5
HETATM    5  C   UNL     1      -8.422   5.733  71.151  1.00  0.00    -0.128 C  
BRANCH   5   6
HETATM    6  C   UNL     1      -8.484   6.942  70.212  1.00  0.00    -0.139 C  
BRANCH   6   7
HETATM    7  N   UNL     1      -9.517   7.934  70.532  1.00  0.00    -0.162 NA 
HETATM    8  C   UNL     1      -9.048   9.327  70.596  1.00  0.00    -0.253 C  
HETATM    9  C   UNL     1      -8.672   9.914  69.235  1.00  0.00    -0.172 C  
HETATM   10  C   UNL     1      -9.826   9.797  68.234  1.00  0.00    -0.148 C  
HETATM   11  C   UNL     1     -10.312   8.345  68.181  1.00  0.00    -0.255 C  
HETATM   12  C   UNL     1     -10.649   7.837  69.588  1.00  0.00    -0.242 C  
BRANCH  10  13
HETATM   13  O   UNL     1     -10.979  10.580  68.571  1.00  0.00    -0.218 OA 
BRANCH  13  14
HETATM   14  C   UNL     1     -10.763  11.957  68.924  1.00  0.00    -0.199 C  
BRANCH  14  15
HETATM   15  C   UNL     1     -10.832  12.850  67.693  1.00  0.00    -0.252 A  
HETATM   16  C   UNL     1     -11.989  12.846  66.895  1.00  0.00    -0.402 A  
HETATM   17  C   UNL     1     -12.149  13.780  65.869  1.00  0.00    -0.464 A  
HETATM   18  C   UNL     1      -9.811  13.769  67.397  1.00  0.00    -0.238 A  
HETATM   19  C   UNL     1      -9.969  14.700  66.369  1.00  0.00    -0.296 A  
HETATM   20 CL   UNL     1     -11.381  15.923  64.421  1.00  0.00    -0.383 Cl 
HETATM   21  C   UNL     1     -11.146  14.715  65.624  1.00  0.00    -0.338 A  
ENDBRANCH  14  15
BRANCH  14  22
HETATM   22  C   UNL     1     -11.748  12.350  70.025  1.00  0.00    -0.230 A  
HETATM   23  C   UNL     1     -12.793  14.038  71.226  1.00  0.00    -0.358 A  
HETATM   24  C   UNL     1     -13.259  11.780  71.812  1.00  0.00    -0.434 A  
HETATM   25  C   UNL     1     -12.391  11.380  70.800  1.00  0.00    -0.483 A  
HETATM   26  N   UNL     1     -11.950  13.681  70.233  1.00  0.00    -0.335 NA 
HETATM   27  C   UNL     1     -13.465  13.135  72.033  1.00  0.00    -0.598 A  
ENDBRANCH  14  22
ENDBRANCH  13  14
ENDBRANCH  10  13
ENDBRANCH   6   7
ENDBRANCH   5   6
ENDBRANCH   4   5
TORSDOF 7
ENDMDL
MODEL       56
REMARK 921   NORMALIZED FREE ENERGY PREDICTED BY IDOCK:   -5.20 KCAL/MOL
REMARK 922        TOTAL FREE ENERGY PREDICTED BY IDOCK:   -8.79 KCAL/MOL
REMARK 923 INTER-LIGAND FREE ENERGY PREDICTED BY IDOCK:   -7.50 KCAL/MOL
REMARK 924 INTRA-LIGAND FREE ENERGY PREDICTED BY IDOCK:   -1.28 KCAL/MOL
REMARK 927      BINDING AFFINITY PREDICTED BY RF-SCORE:    0.00 PKD
ROOT
HETATM    1  O   UNL     1     -10.327   4.597  66.196  1.00  0.00    -0.269 OA 
HETATM    2  C   UNL     1     -10.185   5.064  67.460  1.00  0.00    -0.129 C  
HETATM    3  O   UNL     1      -9.512   4.488  68.298  1.00  0.00    -0.134 OA 
HETATM    4  C   UNL     1     -10.941   6.351  67.673  1.00  0.00    -0.441 C  
ENDROOT
BRANCH   4   5
HETATM    5  C   UNL     1     -10.776   6.902  69.091  1.00  0.00    -0.262 C  
BRANCH   5   6
HETATM    6  C   UNL     1      -9.907   8.163  69.054  1.00  0.00    -0.176 C  
BRANCH   6   7
HETATM    7  N   UNL     1     -10.117   9.039  67.895  1.00  0.00    -0.186 NA 
HETATM    8  C   UNL     1     -11.145  10.075  68.073  1.00  0.00    -0.201 C  
HETATM    9  C   UNL     1     -10.740  11.184  69.046  1.00  0.00    -0.265 C  
HETATM   10  C   UNL     1      -9.411  11.830  68.641  1.00  0.00    -0.100 C  
HETATM   11  C   UNL     1      -8.350  10.742  68.450  1.00  0.00    -0.132 C  
HETATM   12  C   UNL     1      -8.848   9.668  67.475  1.00  0.00    -0.125 C  
BRANCH  10  13
HETATM   13  O   UNL     1      -9.460  12.546  67.399  1.00  0.00    -0.177 OA 
BRANCH  13  14
HETATM   14  C   UNL     1     -10.683  13.231  67.078  1.00  0.00    -0.260 C  
BRANCH  14  15
HETATM   15  C   UNL     1     -10.509  14.740  67.201  1.00  0.00    -0.265 A  
HETATM   16  C   UNL     1     -10.021  15.474  66.107  1.00  0.00    -0.332 A  
HETATM   17  C   UNL     1     -10.020  16.870  66.131  1.00  0.00    -0.332 A  
HETATM   18  C   UNL     1     -10.934  15.434  68.346  1.00  0.00    -0.284 A  
HETATM   19  C   UNL     1     -10.930  16.830  68.372  1.00  0.00    -0.325 A  
HETATM   20 CL   UNL     1     -10.577  19.260  67.252  1.00  0.00    -0.556 Cl 
HETATM   21  C   UNL     1     -10.494  17.541  67.257  1.00  0.00    -0.327 A  
ENDBRANCH  14  15
BRANCH  14  22
HETATM   22  C   UNL     1     -11.162  12.778  65.699  1.00  0.00    -0.301 A  
HETATM   23  C   UNL     1     -10.637  11.878  63.626  1.00  0.00    -0.446 A  
HETATM   24  C   UNL     1     -12.888  12.528  64.038  1.00  0.00    -0.323 A  
HETATM   25  C   UNL     1     -12.497  12.926  65.313  1.00  0.00    -0.552 A  
HETATM   26  N   UNL     1     -10.229  12.251  64.859  1.00  0.00    -0.281 NA 
HETATM   27  C   UNL     1     -11.940  11.995  63.174  1.00  0.00    -0.323 A  
ENDBRANCH  14  22
ENDBRANCH  13  14
ENDBRANCH  10  13
ENDBRANCH   6   7
ENDBRANCH   5   6
ENDBRANCH   4   5
TORSDOF 7
ENDMDL
MODEL       57
REMARK 921   NORMALIZED FREE ENERGY PREDICTED BY IDOCK:   -5.19 KCAL/MOL
REMARK 922        TOTAL FREE ENERGY PREDICTED BY IDOCK:   -8.77 KCAL/MOL
REMARK 923 INTER-LIGAND FREE ENERGY PREDICTED BY IDOCK:   -7.99 KCAL/MOL
REMARK 924 INTRA-LIGAND FREE ENERGY PREDICTED BY IDOCK:   -0.79 KCAL/MOL
REMARK 927      BINDING AFFINITY PREDICTED BY RF-SCORE:    0.00 PKD
ROOT
HETATM    1  O   UNL     1      -9.632   4.117  67.043  1.00  0.00    -0.180 OA 
HETATM    2  C   UNL     1      -9.308   4.252  68.350  1.00  0.00    -0.153 C  
HETATM    3  O   UNL     1      -8.299   3.762  68.829  1.00  0.00    -0.072 OA 
HETATM    4  C   UNL     1     -10.328   5.070  69.102  1.00  0.00    -0.174 C  
ENDROOT
BRANCH   4   5
HETATM    5  C   UNL     1      -9.966   5.249  70.578  1.00  0.00    -0.299 C  
BRANCH   5   6
HETATM    6  C   UNL     1     -10.108   6.724  70.967  1.00  0.00    -0.189 C  
BRANCH   6   7
HETATM    7  N   UNL     1     -11.071   7.496  70.172  1.00  0.00    -0.255 NA 
HETATM    8  C   UNL     1     -12.268   7.941  70.901  1.00  0.00    -0.121 C  
HETATM    9  C   UNL     1     -11.990   9.037  71.932  1.00  0.00    -0.445 C  
HETATM   10  C   UNL     1     -11.287  10.240  71.296  1.00  0.00    -0.045 C  
HETATM   11  C   UNL     1     -10.047   9.765  70.533  1.00  0.00    -0.289 C  
HETATM   12  C   UNL     1     -10.417   8.658  69.538  1.00  0.00    -0.220 C  
BRANCH  10  13
HETATM   13  O   UNL     1     -12.084  10.949  70.337  1.00  0.00    -0.301 OA 
BRANCH  13  14
HETATM   14  C   UNL     1     -11.644  12.263  69.953  1.00  0.00    -0.203 C  
BRANCH  14  15
HETATM   15  C   UNL     1     -11.869  12.498  68.464  1.00  0.00    -0.341 A  
HETATM   16  C   UNL     1     -12.263  13.770  68.014  1.00  0.00    -0.179 A  
HETATM   17  C   UNL     1     -12.303  14.059  66.649  1.00  0.00    -0.408 A  
HETATM   18  C   UNL     1     -11.581  11.504  67.515  1.00  0.00    -0.322 A  
HETATM   19  C   UNL     1     -11.624  11.792  66.149  1.00  0.00    -0.215 A  
HETATM   20 CL   UNL     1     -11.926  13.456  64.046  1.00  0.00    -0.500 Cl 
HETATM   21  C   UNL     1     -11.964  13.074  65.723  1.00  0.00    -0.429 A  
ENDBRANCH  14  15
BRANCH  14  22
HETATM   22  C   UNL     1     -12.322  13.299  70.848  1.00  0.00    -0.329 A  
HETATM   23  C   UNL     1     -14.007  13.794  72.364  1.00  0.00    -0.548 A  
HETATM   24  C   UNL     1     -12.549  15.546  71.684  1.00  0.00    -0.486 A  
HETATM   25  C   UNL     1     -11.886  14.627  70.876  1.00  0.00    -0.372 A  
HETATM   26  N   UNL     1     -13.381  12.878  71.594  1.00  0.00    -0.335 NA 
HETATM   27  C   UNL     1     -13.633  15.125  72.442  1.00  0.00    -0.575 A  
ENDBRANCH  14  22
ENDBRANCH  13  14
ENDBRANCH  10  13
ENDBRANCH   6   7
ENDBRANCH   5   6
ENDBRANCH   4   5
TORSDOF 7
ENDMDL
MODEL       58
REMARK 921   NORMALIZED FREE ENERGY PREDICTED BY IDOCK:   -5.17 KCAL/MOL
REMARK 922        TOTAL FREE ENERGY PREDICTED BY IDOCK:   -8.74 KCAL/MOL
REMARK 923 INTER-LIGAND FREE ENERGY PREDICTED BY IDOCK:   -8.06 KCAL/MOL
REMARK 924 INTRA-LIGAND FREE ENERGY PREDICTED BY IDOCK:   -0.68 KCAL/MOL
REMARK 927      BINDING AFFINITY PREDICTED BY RF-SCORE:    0.00 PKD
ROOT
HETATM    1  O   UNL     1      -8.183   6.920  62.369  1.00  0.00    -0.122 OA 
HETATM    2  C   UNL     1      -7.982   8.018  63.135  1.00  0.00    -0.143 C  
HETATM    3  O   UNL     1      -7.306   7.993  64.150  1.00  0.00    -0.085 OA 
HETATM    4  C   UNL     1      -8.677   9.232  62.573  1.00  0.00    -0.233 C  
ENDROOT
BRANCH   4   5
HETATM    5  C   UNL     1      -8.443  10.487  63.417  1.00  0.00    -0.148 C  
BRANCH   5   6
HETATM    6  C   UNL     1      -9.523  11.527  63.103  1.00  0.00    -0.311 C  
BRANCH   6   7
HETATM    7  N   UNL     1     -10.693  11.507  63.989  1.00  0.00    -0.356 NA 
HETATM    8  C   UNL     1     -10.403  11.210  65.400  1.00  0.00    -0.271 C  
HETATM    9  C   UNL     1      -9.665  12.335  66.127  1.00  0.00    -0.256 C  
HETATM   10  C   UNL     1     -10.418  13.664  66.017  1.00  0.00    -0.300 C  
HETATM   11  C   UNL     1     -10.721  13.960  64.545  1.00  0.00    -0.382 C  
HETATM   12  C   UNL     1     -11.445  12.775  63.894  1.00  0.00    -0.444 C  
BRANCH  10  13
HETATM   13  O   UNL     1     -11.687  13.679  66.685  1.00  0.00    -0.348 OA 
BRANCH  13  14
HETATM   14  C   UNL     1     -11.746  14.305  67.979  1.00  0.00    -0.351 C  
BRANCH  14  15
HETATM   15  C   UNL     1     -11.921  13.265  69.078  1.00  0.00    -0.336 A  
HETATM   16  C   UNL     1     -12.349  13.669  70.355  1.00  0.00    -0.415 A  
HETATM   17  C   UNL     1     -12.688  12.722  71.323  1.00  0.00    -0.364 A  
HETATM   18  C   UNL     1     -11.776  11.893  68.816  1.00  0.00    -0.379 A  
HETATM   19  C   UNL     1     -12.112  10.946  69.786  1.00  0.00    -0.409 A  
HETATM   20 CL   UNL     1     -13.089  10.198  72.188  1.00  0.00    -0.514 Cl 
HETATM   21  C   UNL     1     -12.586  11.364  71.027  1.00  0.00    -0.386 A  
ENDBRANCH  14  15
BRANCH  14  22
HETATM   22  C   UNL     1     -10.514  15.191  68.161  1.00  0.00    -0.245 A  
HETATM   23  C   UNL     1      -8.408  15.474  69.093  1.00  0.00    -0.253 A  
HETATM   24  C   UNL     1      -9.332  17.262  67.825  1.00  0.00    -0.250 A  
HETATM   25  C   UNL     1     -10.460  16.476  67.612  1.00  0.00    -0.305 A  
HETATM   26  N   UNL     1      -9.488  14.685  68.899  1.00  0.00    -0.199 NA 
HETATM   27  C   UNL     1      -8.284  16.755  68.582  1.00  0.00    -0.252 A  
ENDBRANCH  14  22
ENDBRANCH  13  14
ENDBRANCH  10  13
ENDBRANCH   6   7
ENDBRANCH   5   6
ENDBRANCH   4   5
TORSDOF 7
ENDMDL
MODEL       59
REMARK 921   NORMALIZED FREE ENERGY PREDICTED BY IDOCK:   -5.15 KCAL/MOL
REMARK 922        TOTAL FREE ENERGY PREDICTED BY IDOCK:   -8.72 KCAL/MOL
REMARK 923 INTER-LIGAND FREE ENERGY PREDICTED BY IDOCK:   -7.61 KCAL/MOL
REMARK 924 INTRA-LIGAND FREE ENERGY PREDICTED BY IDOCK:   -1.11 KCAL/MOL
REMARK 927      BINDING AFFINITY PREDICTED BY RF-SCORE:    0.00 PKD
ROOT
HETATM    1  O   UNL     1     -12.821  11.811  62.966  1.00  0.00    -0.457 OA 
HETATM    2  C   UNL     1     -11.922  12.280  63.864  1.00  0.00    -0.491 C  
HETATM    3  O   UNL     1     -10.723  12.295  63.642  1.00  0.00    -0.403 OA 
HETATM    4  C   UNL     1     -12.588  12.772  65.124  1.00  0.00    -0.513 C  
ENDROOT
BRANCH   4   5
HETATM    5  C   UNL     1     -11.587  13.324  66.141  1.00  0.00    -0.385 C  
BRANCH   5   6
HETATM    6  C   UNL     1     -11.591  14.856  66.087  1.00  0.00    -0.228 C  
BRANCH   6   7
HETATM    7  N   UNL     1     -10.527  15.460  65.276  1.00  0.00    -0.398 NA 
HETATM    8  C   UNL     1     -10.692  16.894  64.997  1.00  0.00    -0.040 C  
HETATM    9  C   UNL     1     -10.494  17.788  66.222  1.00  0.00    -0.307 C  
HETATM   10  C   UNL     1      -9.136  17.538  66.885  1.00  0.00    -0.254 C  
HETATM   11  C   UNL     1      -8.970  16.041  67.165  1.00  0.00    -0.220 C  
HETATM   12  C   UNL     1      -9.203  15.224  65.888  1.00  0.00    -0.201 C  
BRANCH  10  13
HETATM   13  O   UNL     1      -8.009  17.908  66.079  1.00  0.00    -0.477 OA 
BRANCH  13  14
HETATM   14  C   UNL     1      -7.486  19.238  66.244  1.00  0.00    -0.271 C  
BRANCH  14  15
HETATM   15  C   UNL     1      -6.740  19.367  67.566  1.00  0.00    -0.231 A  
HETATM   16  C   UNL     1      -6.653  20.621  68.195  1.00  0.00    -0.319 A  
HETATM   17  C   UNL     1      -6.133  20.734  69.486  1.00  0.00    -0.126 A  
HETATM   18  C   UNL     1      -6.234  18.239  68.234  1.00  0.00    -0.185 A  
HETATM   19  C   UNL     1      -5.711  18.353  69.524  1.00  0.00    -0.244 A  
HETATM   20 CL   UNL     1      -5.127  19.722  71.775  1.00  0.00    -0.385 Cl 
HETATM   21  C   UNL     1      -5.683  19.596  70.151  1.00  0.00    -0.261 A  
ENDBRANCH  14  15
BRANCH  14  22
HETATM   22  C   UNL     1      -6.640  19.597  65.023  1.00  0.00    -0.226 A  
HETATM   23  C   UNL     1      -5.926  21.219  63.526  1.00  0.00    -0.297 A  
HETATM   24  C   UNL     1      -5.181  18.983  63.208  1.00  0.00    -0.296 A  
HETATM   25  C   UNL     1      -5.916  18.620  64.333  1.00  0.00     0.062 A  
HETATM   26  N   UNL     1      -6.644  20.899  64.625  1.00  0.00    -0.222 NA 
HETATM   27  C   UNL     1      -5.185  20.308  62.793  1.00  0.00    -0.238 A  
ENDBRANCH  14  22
ENDBRANCH  13  14
ENDBRANCH  10  13
ENDBRANCH   6   7
ENDBRANCH   5   6
ENDBRANCH   4   5
TORSDOF 7
ENDMDL
MODEL       60
REMARK 921   NORMALIZED FREE ENERGY PREDICTED BY IDOCK:   -5.14 KCAL/MOL
REMARK 922        TOTAL FREE ENERGY PREDICTED BY IDOCK:   -8.71 KCAL/MOL
REMARK 923 INTER-LIGAND FREE ENERGY PREDICTED BY IDOCK:   -7.26 KCAL/MOL
REMARK 924 INTRA-LIGAND FREE ENERGY PREDICTED BY IDOCK:   -1.45 KCAL/MOL
REMARK 927      BINDING AFFINITY PREDICTED BY RF-SCORE:    0.00 PKD
ROOT
HETATM    1  O   UNL     1      -8.627   3.648  64.761  1.00  0.00    -0.103 OA 
HETATM    2  C   UNL     1      -9.293   4.179  65.814  1.00  0.00    -0.162 C  
HETATM    3  O   UNL     1     -10.437   4.592  65.723  1.00  0.00    -0.280 OA 
HETATM    4  C   UNL     1      -8.456   4.182  67.067  1.00  0.00    -0.100 C  
ENDROOT
BRANCH   4   5
HETATM    5  C   UNL     1      -9.201   4.762  68.271  1.00  0.00    -0.159 C  
BRANCH   5   6
HETATM    6  C   UNL     1      -8.605   6.125  68.638  1.00  0.00    -0.113 C  
BRANCH   6   7
HETATM    7  N   UNL     1      -9.555   7.102  69.182  1.00  0.00    -0.154 NA 
HETATM    8  C   UNL     1      -9.000   8.440  69.433  1.00  0.00    -0.153 C  
HETATM    9  C   UNL     1      -8.674   9.220  68.158  1.00  0.00    -0.125 C  
HETATM   10  C   UNL     1      -9.892   9.324  67.235  1.00  0.00    -0.182 C  
HETATM   11  C   UNL     1     -10.466   7.926  66.987  1.00  0.00    -0.419 C  
HETATM   12  C   UNL     1     -10.746   7.214  68.316  1.00  0.00    -0.153 C  
BRANCH  10  13
HETATM   13  O   UNL     1     -10.973  10.098  67.772  1.00  0.00    -0.280 OA 
BRANCH  13  14
HETATM   14  C   UNL     1     -10.662  11.410  68.272  1.00  0.00    -0.204 C  
BRANCH  14  15
HETATM   15  C   UNL     1     -10.772  12.453  67.167  1.00  0.00    -0.264 A  
HETATM   16  C   UNL     1     -11.995  12.628  66.496  1.00  0.00    -0.401 A  
HETATM   17  C   UNL     1     -12.173  13.691  65.609  1.00  0.00    -0.490 A  
HETATM   18  C   UNL     1      -9.712  13.327  66.879  1.00  0.00    -0.248 A  
HETATM   19  C   UNL     1      -9.889  14.389  65.988  1.00  0.00    -0.342 A  
HETATM   20 CL   UNL     1     -11.371  15.940  64.352  1.00  0.00    -0.383 Cl 
HETATM   21  C   UNL     1     -11.124  14.578  65.375  1.00  0.00    -0.345 A  
ENDBRANCH  14  15
BRANCH  14  22
HETATM   22  C   UNL     1     -11.545  11.704  69.485  1.00  0.00    -0.331 A  
HETATM   23  C   UNL     1     -12.879  10.886  71.198  1.00  0.00    -0.409 A  
HETATM   24  C   UNL     1     -12.651  13.243  70.970  1.00  0.00    -0.408 A  
HETATM   25  C   UNL     1     -11.819  13.017  69.878  1.00  0.00    -0.377 A  
HETATM   26  N   UNL     1     -12.070  10.635  70.145  1.00  0.00    -0.315 NA 
HETATM   27  C   UNL     1     -13.195  12.158  71.645  1.00  0.00    -0.358 A  
ENDBRANCH  14  22
ENDBRANCH  13  14
ENDBRANCH  10  13
ENDBRANCH   6   7
ENDBRANCH   5   6
ENDBRANCH   4   5
TORSDOF 7
ENDMDL
MODEL       61
REMARK 921   NORMALIZED FREE ENERGY PREDICTED BY IDOCK:   -5.12 KCAL/MOL
REMARK 922        TOTAL FREE ENERGY PREDICTED BY IDOCK:   -8.68 KCAL/MOL
REMARK 923 INTER-LIGAND FREE ENERGY PREDICTED BY IDOCK:   -7.39 KCAL/MOL
REMARK 924 INTRA-LIGAND FREE ENERGY PREDICTED BY IDOCK:   -1.29 KCAL/MOL
REMARK 927      BINDING AFFINITY PREDICTED BY RF-SCORE:    0.00 PKD
ROOT
HETATM    1  O   UNL     1     -10.725  19.530  66.078  1.00  0.00    -0.467 OA 
HETATM    2  C   UNL     1     -10.335  18.662  67.041  1.00  0.00    -0.404 C  
HETATM    3  O   UNL     1     -10.072  19.020  68.177  1.00  0.00    -0.356 OA 
HETATM    4  C   UNL     1     -10.283  17.243  66.534  1.00  0.00    -0.325 C  
ENDROOT
BRANCH   4   5
HETATM    5  C   UNL     1      -9.863  16.247  67.616  1.00  0.00    -0.238 C  
BRANCH   5   6
HETATM    6  C   UNL     1     -10.584  14.913  67.395  1.00  0.00    -0.263 C  
BRANCH   6   7
HETATM    7  N   UNL     1     -10.000  13.759  68.088  1.00  0.00    -0.235 NA 
HETATM    8  C   UNL     1     -10.971  12.790  68.618  1.00  0.00    -0.260 C  
HETATM    9  C   UNL     1     -11.692  11.985  67.536  1.00  0.00    -0.351 C  
HETATM   10  C   UNL     1     -10.699  11.276  66.609  1.00  0.00    -0.272 C  
HETATM   11  C   UNL     1      -9.688  12.291  66.069  1.00  0.00    -0.254 C  
HETATM   12  C   UNL     1      -9.029  13.061  67.220  1.00  0.00    -0.212 C  
BRANCH  10  13
HETATM   13  O   UNL     1      -9.921  10.256  67.250  1.00  0.00    -0.175 OA 
BRANCH  13  14
HETATM   14  C   UNL     1     -10.625   9.115  67.769  1.00  0.00    -0.227 C  
BRANCH  14  15
HETATM   15  C   UNL     1     -10.251   7.851  67.004  1.00  0.00    -0.382 A  
HETATM   16  C   UNL     1      -9.101   7.844  66.195  1.00  0.00    -0.210 A  
HETATM   17  C   UNL     1      -8.639   6.655  65.628  1.00  0.00    -0.130 A  
HETATM   18  C   UNL     1     -10.964   6.653  67.177  1.00  0.00    -0.478 A  
HETATM   19  C   UNL     1     -10.503   5.464  66.607  1.00  0.00    -0.356 A  
HETATM   20 CL   UNL     1      -8.713   3.988  65.231  1.00  0.00    -0.117 Cl 
HETATM   21  C   UNL     1      -9.332   5.467  65.854  1.00  0.00    -0.125 A  
ENDBRANCH  14  15
BRANCH  14  22
HETATM   22  C   UNL     1     -10.378   9.018  69.274  1.00  0.00    -0.219 A  
HETATM   23  C   UNL     1     -11.144   9.411  71.428  1.00  0.00    -0.380 A  
HETATM   24  C   UNL     1      -8.976   8.473  71.155  1.00  0.00    -0.232 A  
HETATM   25  C   UNL     1      -9.173   8.518  69.778  1.00  0.00    -0.157 A  
HETATM   26  N   UNL     1     -11.368   9.462  70.097  1.00  0.00    -0.222 NA 
HETATM   27  C   UNL     1      -9.978   8.930  72.000  1.00  0.00    -0.338 A  
ENDBRANCH  14  22
ENDBRANCH  13  14
ENDBRANCH  10  13
ENDBRANCH   6   7
ENDBRANCH   5   6
ENDBRANCH   4   5
TORSDOF 7
ENDMDL
MODEL       62
REMARK 921   NORMALIZED FREE ENERGY PREDICTED BY IDOCK:   -5.11 KCAL/MOL
REMARK 922        TOTAL FREE ENERGY PREDICTED BY IDOCK:   -8.66 KCAL/MOL
REMARK 923 INTER-LIGAND FREE ENERGY PREDICTED BY IDOCK:   -7.34 KCAL/MOL
REMARK 924 INTRA-LIGAND FREE ENERGY PREDICTED BY IDOCK:   -1.32 KCAL/MOL
REMARK 927      BINDING AFFINITY PREDICTED BY RF-SCORE:    0.00 PKD
ROOT
HETATM    1  O   UNL     1      -5.448  10.340  63.999  1.00  0.00    -0.111 OA 
HETATM    2  C   UNL     1      -6.307   9.657  64.791  1.00  0.00    -0.089 C  
HETATM    3  O   UNL     1      -6.185   8.464  65.014  1.00  0.00    -0.052 OA 
HETATM    4  C   UNL     1      -7.391  10.547  65.346  1.00  0.00    -0.084 C  
ENDROOT
BRANCH   4   5
HETATM    5  C   UNL     1      -8.360   9.794  66.260  1.00  0.00    -0.117 C  
BRANCH   5   6
HETATM    6  C   UNL     1      -9.768  10.380  66.111  1.00  0.00    -0.209 C  
BRANCH   6   7
HETATM    7  N   UNL     1     -10.403  10.816  67.360  1.00  0.00    -0.200 NA 
HETATM    8  C   UNL     1      -9.536  11.580  68.269  1.00  0.00    -0.189 C  
HETATM    9  C   UNL     1      -9.193  12.982  67.761  1.00  0.00    -0.200 C  
HETATM   10  C   UNL     1     -10.456  13.788  67.443  1.00  0.00    -0.256 C  
HETATM   11  C   UNL     1     -11.356  12.980  66.502  1.00  0.00    -0.359 C  
HETATM   12  C   UNL     1     -11.632  11.588  67.083  1.00  0.00    -0.167 C  
BRANCH  10  13
HETATM   13  O   UNL     1     -11.265  14.091  68.588  1.00  0.00    -0.242 OA 
BRANCH  13  14
HETATM   14  C   UNL     1     -10.680  14.915  69.611  1.00  0.00    -0.229 C  
BRANCH  14  15
HETATM   15  C   UNL     1     -10.169  16.226  69.027  1.00  0.00    -0.261 A  
HETATM   16  C   UNL     1      -8.790  16.501  69.038  1.00  0.00    -0.223 A  
HETATM   17  C   UNL     1      -8.281  17.605  68.353  1.00  0.00    -0.289 A  
HETATM   18  C   UNL     1     -11.031  17.120  68.372  1.00  0.00    -0.221 A  
HETATM   19  C   UNL     1     -10.522  18.227  67.690  1.00  0.00    -0.431 A  
HETATM   20 CL   UNL     1      -8.512  19.762  66.748  1.00  0.00    -0.339 Cl 
HETATM   21  C   UNL     1      -9.148  18.453  67.666  1.00  0.00    -0.273 A  
ENDBRANCH  14  15
BRANCH  14  22
HETATM   22  C   UNL     1     -11.690  15.098  70.743  1.00  0.00    -0.325 A  
HETATM   23  C   UNL     1     -13.900  15.023  71.446  1.00  0.00    -0.479 A  
HETATM   24  C   UNL     1     -12.244  15.728  73.001  1.00  0.00    -0.593 A  
HETATM   25  C   UNL     1     -11.289  15.547  72.005  1.00  0.00    -0.445 A  
HETATM   26  N   UNL     1     -12.995  14.832  70.461  1.00  0.00    -0.327 NA 
HETATM   27  C   UNL     1     -13.577  15.464  72.718  1.00  0.00    -0.628 A  
ENDBRANCH  14  22
ENDBRANCH  13  14
ENDBRANCH  10  13
ENDBRANCH   6   7
ENDBRANCH   5   6
ENDBRANCH   4   5
TORSDOF 7
ENDMDL
MODEL       63
REMARK 921   NORMALIZED FREE ENERGY PREDICTED BY IDOCK:   -5.07 KCAL/MOL
REMARK 922        TOTAL FREE ENERGY PREDICTED BY IDOCK:   -8.60 KCAL/MOL
REMARK 923 INTER-LIGAND FREE ENERGY PREDICTED BY IDOCK:   -7.50 KCAL/MOL
REMARK 924 INTRA-LIGAND FREE ENERGY PREDICTED BY IDOCK:   -1.10 KCAL/MOL
REMARK 927      BINDING AFFINITY PREDICTED BY RF-SCORE:    0.00 PKD
ROOT
HETATM    1  O   UNL     1      -9.265   2.764  64.793  1.00  0.00    -0.136 OA 
HETATM    2  C   UNL     1      -9.312   3.463  65.951  1.00  0.00    -0.142 C  
HETATM    3  O   UNL     1      -9.222   2.928  67.044  1.00  0.00    -0.170 OA 
HETATM    4  C   UNL     1      -9.475   4.943  65.710  1.00  0.00    -0.172 C  
ENDROOT
BRANCH   4   5
HETATM    5  C   UNL     1      -9.510   5.750  67.009  1.00  0.00    -0.131 C  
BRANCH   5   6
HETATM    6  C   UNL     1      -8.488   6.889  66.935  1.00  0.00    -0.115 C  
BRANCH   6   7
HETATM    7  N   UNL     1      -8.699   7.987  67.886  1.00  0.00    -0.128 NA 
HETATM    8  C   UNL     1      -7.765   9.116  67.754  1.00  0.00    -0.093 C  
HETATM    9  C   UNL     1      -7.981   9.949  66.490  1.00  0.00    -0.110 C  
HETATM   10  C   UNL     1      -9.425  10.451  66.387  1.00  0.00    -0.169 C  
HETATM   11  C   UNL     1     -10.388   9.269  66.533  1.00  0.00    -0.270 C  
HETATM   12  C   UNL     1     -10.088   8.484  67.816  1.00  0.00    -0.211 C  
BRANCH  10  13
HETATM   13  O   UNL     1      -9.798  11.385  67.409  1.00  0.00    -0.180 OA 
BRANCH  13  14
HETATM   14  C   UNL     1     -11.137  11.907  67.370  1.00  0.00    -0.279 C  
BRANCH  14  15
HETATM   15  C   UNL     1     -11.617  12.276  68.768  1.00  0.00    -0.380 A  
HETATM   16  C   UNL     1     -11.802  13.628  69.105  1.00  0.00    -0.394 A  
HETATM   17  C   UNL     1     -12.408  13.984  70.311  1.00  0.00    -0.425 A  
HETATM   18  C   UNL     1     -11.993  11.291  69.696  1.00  0.00    -0.423 A  
HETATM   19  C   UNL     1     -12.596  11.647  70.905  1.00  0.00    -0.409 A  
HETATM   20 CL   UNL     1     -13.647  13.424  72.642  1.00  0.00    -0.635 Cl 
HETATM   21  C   UNL     1     -12.820  12.990  71.197  1.00  0.00    -0.245 A  
ENDBRANCH  14  15
BRANCH  14  22
HETATM   22  C   UNL     1     -11.192  13.067  66.376  1.00  0.00    -0.300 A  
HETATM   23  C   UNL     1     -10.186  14.966  65.504  1.00  0.00    -0.374 A  
HETATM   24  C   UNL     1     -12.322  14.337  64.670  1.00  0.00    -0.433 A  
HETATM   25  C   UNL     1     -12.299  13.252  65.542  1.00  0.00    -0.533 A  
HETATM   26  N   UNL     1     -10.131  13.920  66.357  1.00  0.00    -0.287 NA 
HETATM   27  C   UNL     1     -11.247  15.214  64.650  1.00  0.00    -0.352 A  
ENDBRANCH  14  22
ENDBRANCH  13  14
ENDBRANCH  10  13
ENDBRANCH   6   7
ENDBRANCH   5   6
ENDBRANCH   4   5
TORSDOF 7
ENDMDL
MODEL       64
REMARK 921   NORMALIZED FREE ENERGY PREDICTED BY IDOCK:   -5.03 KCAL/MOL
REMARK 922        TOTAL FREE ENERGY PREDICTED BY IDOCK:   -8.55 KCAL/MOL
REMARK 923 INTER-LIGAND FREE ENERGY PREDICTED BY IDOCK:   -7.19 KCAL/MOL
REMARK 924 INTRA-LIGAND FREE ENERGY PREDICTED BY IDOCK:   -1.35 KCAL/MOL
REMARK 927      BINDING AFFINITY PREDICTED BY RF-SCORE:    0.00 PKD
ROOT
HETATM    1  O   UNL     1     -10.306   4.048  65.037  1.00  0.00    -0.212 OA 
HETATM    2  C   UNL     1      -9.255   4.901  65.076  1.00  0.00    -0.102 C  
HETATM    3  O   UNL     1      -8.692   5.294  64.068  1.00  0.00    -0.112 OA 
HETATM    4  C   UNL     1      -8.897   5.289  66.489  1.00  0.00    -0.116 C  
ENDROOT
BRANCH   4   5
HETATM    5  C   UNL     1      -7.723   6.269  66.550  1.00  0.00    -0.099 C  
BRANCH   5   6
HETATM    6  C   UNL     1      -7.907   7.218  67.739  1.00  0.00    -0.114 C  
BRANCH   6   7
HETATM    7  N   UNL     1      -8.008   8.642  67.398  1.00  0.00    -0.101 NA 
HETATM    8  C   UNL     1      -9.162   9.004  66.561  1.00  0.00    -0.179 C  
HETATM    9  C   UNL     1     -10.504   8.913  67.290  1.00  0.00    -0.348 C  
HETATM   10  C   UNL     1     -10.504   9.752  68.572  1.00  0.00    -0.210 C  
HETATM   11  C   UNL     1      -9.295   9.373  69.432  1.00  0.00    -0.172 C  
HETATM   12  C   UNL     1      -8.000   9.476  68.617  1.00  0.00    -0.092 C  
BRANCH  10  13
HETATM   13  O   UNL     1     -10.396  11.165  68.352  1.00  0.00    -0.172 OA 
BRANCH  13  14
HETATM   14  C   UNL     1     -11.596  11.871  67.990  1.00  0.00    -0.332 C  
BRANCH  14  15
HETATM   15  C   UNL     1     -11.866  13.014  68.961  1.00  0.00    -0.362 A  
HETATM   16  C   UNL     1     -12.328  12.729  70.258  1.00  0.00    -0.277 A  
HETATM   17  C   UNL     1     -12.413  13.737  71.219  1.00  0.00    -0.428 A  
HETATM   18  C   UNL     1     -11.556  14.343  68.631  1.00  0.00    -0.347 A  
HETATM   19  C   UNL     1     -11.644  15.353  69.592  1.00  0.00    -0.344 A  
HETATM   20 CL   UNL     1     -12.070  16.266  72.095  1.00  0.00    -0.566 Cl 
HETATM   21  C   UNL     1     -12.051  15.041  70.886  1.00  0.00    -0.324 A  
ENDBRANCH  14  15
BRANCH  14  22
HETATM   22  C   UNL     1     -11.493  12.315  66.531  1.00  0.00    -0.381 A  
HETATM   23  C   UNL     1     -12.577  12.855  64.553  1.00  0.00    -0.350 A  
HETATM   24  C   UNL     1     -10.199  12.877  64.579  1.00  0.00    -0.334 A  
HETATM   25  C   UNL     1     -10.250  12.500  65.918  1.00  0.00    -0.280 A  
HETATM   26  N   UNL     1     -12.660  12.495  65.853  1.00  0.00    -0.381 NA 
HETATM   27  C   UNL     1     -11.385  13.056  63.879  1.00  0.00    -0.460 A  
ENDBRANCH  14  22
ENDBRANCH  13  14
ENDBRANCH  10  13
ENDBRANCH   6   7
ENDBRANCH   5   6
ENDBRANCH   4   5
TORSDOF 7
ENDMDL
MODEL       65
REMARK 921   NORMALIZED FREE ENERGY PREDICTED BY IDOCK:   -5.03 KCAL/MOL
REMARK 922        TOTAL FREE ENERGY PREDICTED BY IDOCK:   -8.55 KCAL/MOL
REMARK 923 INTER-LIGAND FREE ENERGY PREDICTED BY IDOCK:   -7.77 KCAL/MOL
REMARK 924 INTRA-LIGAND FREE ENERGY PREDICTED BY IDOCK:   -0.78 KCAL/MOL
REMARK 927      BINDING AFFINITY PREDICTED BY RF-SCORE:    0.00 PKD
ROOT
HETATM    1  O   UNL     1      -6.036  20.347  70.837  1.00  0.00    -0.533 OA 
HETATM    2  C   UNL     1      -6.339  20.354  69.518  1.00  0.00    -0.233 C  
HETATM    3  O   UNL     1      -5.685  20.978  68.699  1.00  0.00    -0.336 OA 
HETATM    4  C   UNL     1      -7.547  19.505  69.212  1.00  0.00    -0.237 C  
ENDROOT
BRANCH   4   5
HETATM    5  C   UNL     1      -7.891  19.486  67.722  1.00  0.00    -0.323 C  
BRANCH   5   6
HETATM    6  C   UNL     1      -9.020  18.482  67.467  1.00  0.00    -0.276 C  
BRANCH   6   7
HETATM    7  N   UNL     1      -8.965  17.255  68.271  1.00  0.00    -0.254 NA 
HETATM    8  C   UNL     1     -10.269  16.745  68.722  1.00  0.00    -0.299 C  
HETATM    9  C   UNL     1     -11.127  16.165  67.596  1.00  0.00    -0.212 C  
HETATM   10  C   UNL     1     -10.378  15.075  66.823  1.00  0.00    -0.270 C  
HETATM   11  C   UNL     1      -9.019  15.615  66.365  1.00  0.00    -0.362 C  
HETATM   12  C   UNL     1      -8.238  16.189  67.553  1.00  0.00    -0.150 C  
BRANCH  10  13
HETATM   13  O   UNL     1     -10.089  13.900  67.593  1.00  0.00    -0.236 OA 
BRANCH  13  14
HETATM   14  C   UNL     1      -9.684  12.722  66.874  1.00  0.00    -0.234 C  
BRANCH  14  15
HETATM   15  C   UNL     1      -9.626  11.514  67.800  1.00  0.00    -0.177 A  
HETATM   16  C   UNL     1     -10.464  11.462  68.928  1.00  0.00    -0.219 A  
HETATM   17  C   UNL     1     -10.559  10.296  69.689  1.00  0.00    -0.288 A  
HETATM   18  C   UNL     1      -8.836  10.394  67.493  1.00  0.00    -0.134 A  
HETATM   19  C   UNL     1      -8.929   9.228  68.257  1.00  0.00    -0.129 A  
HETATM   20 CL   UNL     1      -9.990   7.713  70.221  1.00  0.00    -0.188 Cl 
HETATM   21  C   UNL     1      -9.805   9.178  69.338  1.00  0.00    -0.172 A  
ENDBRANCH  14  15
BRANCH  14  22
HETATM   22  C   UNL     1     -10.607  12.530  65.671  1.00  0.00    -0.269 A  
HETATM   23  C   UNL     1     -10.833  12.015  63.420  1.00  0.00    -0.405 A  
HETATM   24  C   UNL     1     -12.785  12.600  64.646  1.00  0.00    -0.458 A  
HETATM   25  C   UNL     1     -11.983  12.758  65.772  1.00  0.00    -0.502 A  
HETATM   26  N   UNL     1     -10.029  12.154  64.497  1.00  0.00    -0.240 NA 
HETATM   27  C   UNL     1     -12.201  12.223  63.444  1.00  0.00    -0.630 A  
ENDBRANCH  14  22
ENDBRANCH  13  14
ENDBRANCH  10  13
ENDBRANCH   6   7
ENDBRANCH   5   6
ENDBRANCH   4   5
TORSDOF 7
ENDMDL
MODEL       66
REMARK 921   NORMALIZED FREE ENERGY PREDICTED BY IDOCK:   -5.02 KCAL/MOL
REMARK 922        TOTAL FREE ENERGY PREDICTED BY IDOCK:   -8.54 KCAL/MOL
REMARK 923 INTER-LIGAND FREE ENERGY PREDICTED BY IDOCK:   -7.40 KCAL/MOL
REMARK 924 INTRA-LIGAND FREE ENERGY PREDICTED BY IDOCK:   -1.13 KCAL/MOL
REMARK 927      BINDING AFFINITY PREDICTED BY RF-SCORE:    0.00 PKD
ROOT
HETATM    1  O   UNL     1     -10.691  20.209  65.457  1.00  0.00    -0.371 OA 
HETATM    2  C   UNL     1     -10.541  19.367  66.506  1.00  0.00    -0.458 C  
HETATM    3  O   UNL     1     -10.550  19.754  67.663  1.00  0.00    -0.429 OA 
HETATM    4  C   UNL     1     -10.377  17.935  66.061  1.00  0.00    -0.318 C  
ENDROOT
BRANCH   4   5
HETATM    5  C   UNL     1     -10.226  16.968  67.237  1.00  0.00    -0.310 C  
BRANCH   5   6
HETATM    6  C   UNL     1     -10.867  15.622  66.881  1.00  0.00    -0.282 C  
BRANCH   6   7
HETATM    7  N   UNL     1     -11.184  14.754  68.021  1.00  0.00    -0.286 NA 
HETATM    8  C   UNL     1     -12.071  13.622  67.718  1.00  0.00    -0.290 C  
HETATM    9  C   UNL     1     -11.415  12.537  66.862  1.00  0.00    -0.416 C  
HETATM   10  C   UNL     1     -10.118  12.028  67.499  1.00  0.00    -0.195 C  
HETATM   11  C   UNL     1      -9.204  13.216  67.818  1.00  0.00    -0.203 C  
HETATM   12  C   UNL     1      -9.949  14.257  68.662  1.00  0.00    -0.234 C  
BRANCH  10  13
HETATM   13  O   UNL     1     -10.303  11.336  68.742  1.00  0.00    -0.195 OA 
BRANCH  13  14
HETATM   14  C   UNL     1     -10.889  10.024  68.686  1.00  0.00    -0.229 C  
BRANCH  14  15
HETATM   15  C   UNL     1      -9.834   8.971  68.372  1.00  0.00    -0.183 A  
HETATM   16  C   UNL     1     -10.127   7.946  67.455  1.00  0.00    -0.276 A  
HETATM   17  C   UNL     1      -9.126   7.078  67.016  1.00  0.00    -0.150 A  
HETATM   18  C   UNL     1      -8.531   9.064  68.888  1.00  0.00    -0.130 A  
HETATM   19  C   UNL     1      -7.530   8.193  68.452  1.00  0.00    -0.100 A  
HETATM   20 CL   UNL     1      -6.575   6.207  66.894  1.00  0.00    -0.056 Cl 
HETATM   21  C   UNL     1      -7.828   7.218  67.502  1.00  0.00    -0.112 A  
ENDBRANCH  14  15
BRANCH  14  22
HETATM   22  C   UNL     1     -11.651   9.762  69.985  1.00  0.00    -0.130 A  
HETATM   23  C   UNL     1     -12.303   8.251  71.619  1.00  0.00    -0.315 A  
HETATM   24  C   UNL     1     -13.087  10.490  71.776  1.00  0.00    -0.570 A  
HETATM   25  C   UNL     1     -12.383  10.776  70.610  1.00  0.00    -0.465 A  
HETATM   26  N   UNL     1     -11.605   8.498  70.489  1.00  0.00    -0.194 NA 
HETATM   27  C   UNL     1     -13.050   9.202  72.293  1.00  0.00    -0.509 A  
ENDBRANCH  14  22
ENDBRANCH  13  14
ENDBRANCH  10  13
ENDBRANCH   6   7
ENDBRANCH   5   6
ENDBRANCH   4   5
TORSDOF 7
ENDMDL
MODEL       67
REMARK 921   NORMALIZED FREE ENERGY PREDICTED BY IDOCK:   -4.97 KCAL/MOL
REMARK 922        TOTAL FREE ENERGY PREDICTED BY IDOCK:   -8.47 KCAL/MOL
REMARK 923 INTER-LIGAND FREE ENERGY PREDICTED BY IDOCK:   -7.80 KCAL/MOL
REMARK 924 INTRA-LIGAND FREE ENERGY PREDICTED BY IDOCK:   -0.67 KCAL/MOL
REMARK 927      BINDING AFFINITY PREDICTED BY RF-SCORE:    0.00 PKD
ROOT
HETATM    1  O   UNL     1     -12.327  16.261  72.663  1.00  0.00    -0.472 OA 
HETATM    2  C   UNL     1     -12.883  15.519  71.676  1.00  0.00    -0.446 C  
HETATM    3  O   UNL     1     -14.048  15.648  71.337  1.00  0.00    -0.541 OA 
HETATM    4  C   UNL     1     -11.895  14.553  71.072  1.00  0.00    -0.350 C  
ENDROOT
BRANCH   4   5
HETATM    5  C   UNL     1     -12.503  13.721  69.941  1.00  0.00    -0.259 C  
BRANCH   5   6
HETATM    6  C   UNL     1     -11.548  12.581  69.571  1.00  0.00    -0.281 C  
BRANCH   6   7
HETATM    7  N   UNL     1     -12.193  11.320  69.186  1.00  0.00    -0.415 NA 
HETATM    8  C   UNL     1     -11.312  10.343  68.529  1.00  0.00    -0.220 C  
HETATM    9  C   UNL     1     -10.277   9.719  69.467  1.00  0.00    -0.238 C  
HETATM   10  C   UNL     1     -10.940   9.084  70.693  1.00  0.00    -0.257 C  
HETATM   11  C   UNL     1     -11.861  10.107  71.364  1.00  0.00    -0.414 C  
HETATM   12  C   UNL     1     -12.851  10.690  70.349  1.00  0.00    -0.207 C  
BRANCH  10  13
HETATM   13  O   UNL     1     -11.770   7.952  70.394  1.00  0.00    -0.163 OA 
BRANCH  13  14
HETATM   14  C   UNL     1     -11.270   6.653  70.753  1.00  0.00    -0.315 C  
BRANCH  14  15
HETATM   15  C   UNL     1     -10.679   5.944  69.540  1.00  0.00    -0.414 A  
HETATM   16  C   UNL     1      -9.976   4.739  69.714  1.00  0.00    -0.308 A  
HETATM   17  C   UNL     1      -9.582   3.981  68.609  1.00  0.00    -0.190 A  
HETATM   18  C   UNL     1     -10.919   6.405  68.235  1.00  0.00    -0.396 A  
HETATM   19  C   UNL     1     -10.522   5.648  67.130  1.00  0.00    -0.334 A  
HETATM   20 CL   UNL     1      -9.469   3.453  65.966  1.00  0.00    -0.154 Cl 
HETATM   21  C   UNL     1      -9.874   4.430  67.323  1.00  0.00    -0.162 A  
ENDBRANCH  14  15
BRANCH  14  22
HETATM   22  C   UNL     1     -10.290   6.799  71.917  1.00  0.00    -0.197 A  
HETATM   23  C   UNL     1      -8.113   7.167  72.628  1.00  0.00    -0.106 A  
HETATM   24  C   UNL     1      -9.781   6.746  74.270  1.00  0.00    -0.328 A  
HETATM   25  C   UNL     1     -10.710   6.634  73.240  1.00  0.00    -0.315 A  
HETATM   26  N   UNL     1      -8.992   7.069  71.607  1.00  0.00    -0.135 NA 
HETATM   27  C   UNL     1      -8.455   7.016  73.961  1.00  0.00    -0.180 A  
ENDBRANCH  14  22
ENDBRANCH  13  14
ENDBRANCH  10  13
ENDBRANCH   6   7
ENDBRANCH   5   6
ENDBRANCH   4   5
TORSDOF 7
ENDMDL
MODEL       68
REMARK 921   NORMALIZED FREE ENERGY PREDICTED BY IDOCK:   -4.96 KCAL/MOL
REMARK 922        TOTAL FREE ENERGY PREDICTED BY IDOCK:   -8.45 KCAL/MOL
REMARK 923 INTER-LIGAND FREE ENERGY PREDICTED BY IDOCK:   -7.34 KCAL/MOL
REMARK 924 INTRA-LIGAND FREE ENERGY PREDICTED BY IDOCK:   -1.10 KCAL/MOL
REMARK 927      BINDING AFFINITY PREDICTED BY RF-SCORE:    0.00 PKD
ROOT
HETATM    1  O   UNL     1      -6.612  19.776  68.294  1.00  0.00    -0.249 OA 
HETATM    2  C   UNL     1      -7.912  19.744  67.918  1.00  0.00    -0.294 C  
HETATM    3  O   UNL     1      -8.371  20.508  67.085  1.00  0.00    -0.331 OA 
HETATM    4  C   UNL     1      -8.682  18.667  68.639  1.00  0.00    -0.333 C  
ENDROOT
BRANCH   4   5
HETATM    5  C   UNL     1     -10.149  18.605  68.210  1.00  0.00    -0.431 C  
BRANCH   5   6
HETATM    6  C   UNL     1     -10.418  17.282  67.485  1.00  0.00    -0.356 C  
BRANCH   6   7
HETATM    7  N   UNL     1     -10.173  16.070  68.275  1.00  0.00    -0.232 NA 
HETATM    8  C   UNL     1     -11.368  15.266  68.573  1.00  0.00    -0.327 C  
HETATM    9  C   UNL     1     -11.950  14.552  67.353  1.00  0.00    -0.367 C  
HETATM   10  C   UNL     1     -10.898  13.685  66.654  1.00  0.00    -0.283 C  
HETATM   11  C   UNL     1      -9.656  14.529  66.355  1.00  0.00    -0.324 C  
HETATM   12  C   UNL     1      -9.153  15.219  67.629  1.00  0.00    -0.183 C  
BRANCH  10  13
HETATM   13  O   UNL     1     -10.435  12.576  67.437  1.00  0.00    -0.217 OA 
BRANCH  13  14
HETATM   14  C   UNL     1     -10.671  11.256  66.918  1.00  0.00    -0.273 C  
BRANCH  14  15
HETATM   15  C   UNL     1      -9.664  10.912  65.829  1.00  0.00    -0.270 A  
HETATM   16  C   UNL     1      -8.304  10.773  66.159  1.00  0.00    -0.166 A  
HETATM   17  C   UNL     1      -7.392  10.286  65.221  1.00  0.00    -0.139 A  
HETATM   18  C   UNL     1     -10.075  10.614  64.519  1.00  0.00    -0.421 A  
HETATM   19  C   UNL     1      -9.162  10.130  63.580  1.00  0.00    -0.320 A  
HETATM   20 CL   UNL     1      -6.723   9.264  62.815  1.00  0.00    -0.093 Cl 
HETATM   21  C   UNL     1      -7.829   9.949  63.942  1.00  0.00    -0.148 A  
ENDBRANCH  14  15
BRANCH  14  22
HETATM   22  C   UNL     1     -10.687  10.260  68.078  1.00  0.00    -0.255 A  
HETATM   23  C   UNL     1     -10.518   8.058  68.789  1.00  0.00    -0.173 A  
HETATM   24  C   UNL     1     -10.974   9.737  70.411  1.00  0.00    -0.371 A  
HETATM   25  C   UNL     1     -10.940  10.679  69.387  1.00  0.00    -0.304 A  
HETATM   26  N   UNL     1     -10.472   8.950  67.775  1.00  0.00    -0.246 NA 
HETATM   27  C   UNL     1     -10.761   8.398  70.109  1.00  0.00    -0.238 A  
ENDBRANCH  14  22
ENDBRANCH  13  14
ENDBRANCH  10  13
ENDBRANCH   6   7
ENDBRANCH   5   6
ENDBRANCH   4   5
TORSDOF 7
ENDMDL
MODEL       69
REMARK 921   NORMALIZED FREE ENERGY PREDICTED BY IDOCK:   -4.96 KCAL/MOL
REMARK 922        TOTAL FREE ENERGY PREDICTED BY IDOCK:   -8.44 KCAL/MOL
REMARK 923 INTER-LIGAND FREE ENERGY PREDICTED BY IDOCK:   -7.38 KCAL/MOL
REMARK 924 INTRA-LIGAND FREE ENERGY PREDICTED BY IDOCK:   -1.07 KCAL/MOL
REMARK 927      BINDING AFFINITY PREDICTED BY RF-SCORE:    0.00 PKD
ROOT
HETATM    1  O   UNL     1      -6.343   6.350  66.123  1.00  0.00    -0.039 OA 
HETATM    2  C   UNL     1      -7.388   6.809  65.395  1.00  0.00    -0.080 C  
HETATM    3  O   UNL     1      -8.307   6.089  65.043  1.00  0.00    -0.139 OA 
HETATM    4  C   UNL     1      -7.265   8.282  65.099  1.00  0.00    -0.079 C  
ENDROOT
BRANCH   4   5
HETATM    5  C   UNL     1      -8.449   8.821  64.293  1.00  0.00    -0.130 C  
BRANCH   5   6
HETATM    6  C   UNL     1      -9.519   9.360  65.248  1.00  0.00    -0.227 C  
BRANCH   6   7
HETATM    7  N   UNL     1      -9.084  10.448  66.132  1.00  0.00    -0.156 NA 
HETATM    8  C   UNL     1      -9.595  11.781  65.779  1.00  0.00    -0.233 C  
HETATM    9  C   UNL     1     -11.094  11.953  66.032  1.00  0.00    -0.369 C  
HETATM   10  C   UNL     1     -11.461  11.619  67.481  1.00  0.00    -0.289 C  
HETATM   11  C   UNL     1     -10.918  10.232  67.840  1.00  0.00    -0.350 C  
HETATM   12  C   UNL     1      -9.416  10.147  67.539  1.00  0.00    -0.152 C  
BRANCH  10  13
HETATM   13  O   UNL     1     -10.905  12.516  68.452  1.00  0.00    -0.224 OA 
BRANCH  13  14
HETATM   14  C   UNL     1     -11.385  13.872  68.451  1.00  0.00    -0.285 C  
BRANCH  14  15
HETATM   15  C   UNL     1     -11.655  14.354  69.870  1.00  0.00    -0.341 A  
HETATM   16  C   UNL     1     -11.317  15.670  70.233  1.00  0.00    -0.357 A  
HETATM   17  C   UNL     1     -11.714  16.190  71.466  1.00  0.00    -0.533 A  
HETATM   18  C   UNL     1     -12.341  13.552  70.797  1.00  0.00    -0.440 A  
HETATM   19  C   UNL     1     -12.735  14.072  72.032  1.00  0.00    -0.367 A  
HETATM   20 CL   UNL     1     -13.005  16.065  73.832  1.00  0.00    -0.615 Cl 
HETATM   21  C   UNL     1     -12.439  15.395  72.351  1.00  0.00    -0.379 A  
ENDBRANCH  14  15
BRANCH  14  22
HETATM   22  C   UNL     1     -10.400  14.750  67.680  1.00  0.00    -0.237 A  
HETATM   23  C   UNL     1      -8.210  15.445  67.361  1.00  0.00    -0.183 A  
HETATM   24  C   UNL     1      -9.915  16.440  66.034  1.00  0.00    -0.369 A  
HETATM   25  C   UNL     1     -10.841  15.636  66.693  1.00  0.00    -0.266 A  
HETATM   26  N   UNL     1      -9.084  14.649  68.015  1.00  0.00    -0.183 NA 
HETATM   27  C   UNL     1      -8.572  16.346  66.374  1.00  0.00    -0.358 A  
ENDBRANCH  14  22
ENDBRANCH  13  14
ENDBRANCH  10  13
ENDBRANCH   6   7
ENDBRANCH   5   6
ENDBRANCH   4   5
TORSDOF 7
ENDMDL
MODEL       70
REMARK 921   NORMALIZED FREE ENERGY PREDICTED BY IDOCK:   -4.95 KCAL/MOL
REMARK 922        TOTAL FREE ENERGY PREDICTED BY IDOCK:   -8.43 KCAL/MOL
REMARK 923 INTER-LIGAND FREE ENERGY PREDICTED BY IDOCK:   -7.28 KCAL/MOL
REMARK 924 INTRA-LIGAND FREE ENERGY PREDICTED BY IDOCK:   -1.15 KCAL/MOL
REMARK 927      BINDING AFFINITY PREDICTED BY RF-SCORE:    0.00 PKD
ROOT
HETATM    1  O   UNL     1     -10.027   3.791  71.182  1.00  0.00    -0.172 OA 
HETATM    2  C   UNL     1      -9.740   4.938  71.843  1.00  0.00    -0.163 C  
HETATM    3  O   UNL     1      -8.608   5.386  71.915  1.00  0.00    -0.128 OA 
HETATM    4  C   UNL     1     -10.972   5.563  72.447  1.00  0.00    -0.310 C  
ENDROOT
BRANCH   4   5
HETATM    5  C   UNL     1     -10.667   6.871  73.181  1.00  0.00    -0.338 C  
BRANCH   5   6
HETATM    6  C   UNL     1     -11.605   7.974  72.678  1.00  0.00    -0.387 C  
BRANCH   6   7
HETATM    7  N   UNL     1     -11.905   7.938  71.242  1.00  0.00    -0.293 NA 
HETATM    8  C   UNL     1     -13.132   8.643  70.842  1.00  0.00     0.225 C  
HETATM    9  C   UNL     1     -13.031  10.165  70.951  1.00  0.00    -0.432 C  
HETATM   10  C   UNL     1     -11.836  10.707  70.160  1.00  0.00    -0.337 C  
HETATM   11  C   UNL     1     -10.566   9.960  70.578  1.00  0.00    -0.359 C  
HETATM   12  C   UNL     1     -10.764   8.445  70.453  1.00  0.00    -0.231 C  
BRANCH  10  13
HETATM   13  O   UNL     1     -11.940  10.530  68.741  1.00  0.00    -0.302 OA 
BRANCH  13  14
HETATM   14  C   UNL     1     -10.932  11.147  67.922  1.00  0.00    -0.253 C  
BRANCH  14  15
HETATM   15  C   UNL     1     -10.215  10.109  67.068  1.00  0.00    -0.290 A  
HETATM   16  C   UNL     1      -9.094  10.488  66.310  1.00  0.00    -0.184 A  
HETATM   17  C   UNL     1      -8.316   9.526  65.663  1.00  0.00    -0.131 A  
HETATM   18  C   UNL     1     -10.577   8.752  67.109  1.00  0.00    -0.303 A  
HETATM   19  C   UNL     1      -9.800   7.791  66.460  1.00  0.00    -0.255 A  
HETATM   20 CL   UNL     1      -7.653   6.987  65.037  1.00  0.00    -0.096 Cl 
HETATM   21  C   UNL     1      -8.662   8.179  65.758  1.00  0.00    -0.154 A  
ENDBRANCH  14  15
BRANCH  14  22
HETATM   22  C   UNL     1     -11.569  12.276  67.112  1.00  0.00    -0.353 A  
HETATM   23  C   UNL     1     -12.527  12.976  65.119  1.00  0.00    -0.496 A  
HETATM   24  C   UNL     1     -12.243  14.574  66.857  1.00  0.00    -0.220 A  
HETATM   25  C   UNL     1     -11.683  13.567  67.637  1.00  0.00    -0.398 A  
HETATM   26  N   UNL     1     -11.993  11.976  65.854  1.00  0.00    -0.519 NA 
HETATM   27  C   UNL     1     -12.672  14.276  65.571  1.00  0.00    -0.399 A  
ENDBRANCH  14  22
ENDBRANCH  13  14
ENDBRANCH  10  13
ENDBRANCH   6   7
ENDBRANCH   5   6
ENDBRANCH   4   5
TORSDOF 7
ENDMDL
MODEL       71
REMARK 921   NORMALIZED FREE ENERGY PREDICTED BY IDOCK:   -4.94 KCAL/MOL
REMARK 922        TOTAL FREE ENERGY PREDICTED BY IDOCK:   -8.43 KCAL/MOL
REMARK 923 INTER-LIGAND FREE ENERGY PREDICTED BY IDOCK:   -7.66 KCAL/MOL
REMARK 924 INTRA-LIGAND FREE ENERGY PREDICTED BY IDOCK:   -0.76 KCAL/MOL
REMARK 927      BINDING AFFINITY PREDICTED BY RF-SCORE:    0.00 PKD
ROOT
HETATM    1  O   UNL     1     -11.161  13.747  64.331  1.00  0.00    -0.376 OA 
HETATM    2  C   UNL     1     -11.951  13.780  65.430  1.00  0.00    -0.379 C  
HETATM    3  O   UNL     1     -13.167  13.853  65.360  1.00  0.00    -0.750 OA 
HETATM    4  C   UNL     1     -11.149  13.708  66.704  1.00  0.00    -0.312 C  
ENDROOT
BRANCH   4   5
HETATM    5  C   UNL     1     -12.029  13.724  67.955  1.00  0.00    -0.390 C  
BRANCH   5   6
HETATM    6  C   UNL     1     -11.556  12.641  68.931  1.00  0.00    -0.317 C  
BRANCH   6   7
HETATM    7  N   UNL     1     -12.107  11.301  68.700  1.00  0.00    -0.570 NA 
HETATM    8  C   UNL     1     -11.146  10.307  68.200  1.00  0.00    -0.264 C  
HETATM    9  C   UNL     1     -10.105   9.881  69.237  1.00  0.00    -0.214 C  
HETATM   10  C   UNL     1     -10.767   9.368  70.520  1.00  0.00    -0.276 C  
HETATM   11  C   UNL     1     -11.772  10.406  71.027  1.00  0.00    -0.430 C  
HETATM   12  C   UNL     1     -12.763  10.785  69.920  1.00  0.00    -0.032 C  
BRANCH  10  13
HETATM   13  O   UNL     1     -11.515   8.155  70.352  1.00  0.00    -0.234 OA 
BRANCH  13  14
HETATM   14  C   UNL     1     -10.954   6.951  70.905  1.00  0.00    -0.253 C  
BRANCH  14  15
HETATM   15  C   UNL     1     -10.601   5.960  69.804  1.00  0.00    -0.374 A  
HETATM   16  C   UNL     1     -10.750   6.337  68.457  1.00  0.00    -0.354 A  
HETATM   17  C   UNL     1     -10.268   5.518  67.434  1.00  0.00    -0.253 A  
HETATM   18  C   UNL     1     -10.020   4.716  70.098  1.00  0.00    -0.304 A  
HETATM   19  C   UNL     1      -9.541   3.896  69.073  1.00  0.00    -0.209 A  
HETATM   20 CL   UNL     1      -8.975   3.345  66.493  1.00  0.00    -0.145 Cl 
HETATM   21  C   UNL     1      -9.649   4.311  67.748  1.00  0.00    -0.158 A  
ENDBRANCH  14  15
BRANCH  14  22
HETATM   22  C   UNL     1      -9.773   7.318  71.804  1.00  0.00    -0.153 A  
HETATM   23  C   UNL     1      -9.001   7.858  73.923  1.00  0.00    -0.225 A  
HETATM   24  C   UNL     1      -7.445   7.845  72.124  1.00  0.00    -0.096 A  
HETATM   25  C   UNL     1      -8.488   7.482  71.278  1.00  0.00    -0.116 A  
HETATM   26  N   UNL     1     -10.033   7.501  73.128  1.00  0.00    -0.260 NA 
HETATM   27  C   UNL     1      -7.704   8.039  73.475  1.00  0.00    -0.218 A  
ENDBRANCH  14  22
ENDBRANCH  13  14
ENDBRANCH  10  13
ENDBRANCH   6   7
ENDBRANCH   5   6
ENDBRANCH   4   5
TORSDOF 7
ENDMDL
MODEL       72
REMARK 921   NORMALIZED FREE ENERGY PREDICTED BY IDOCK:   -4.93 KCAL/MOL
REMARK 922        TOTAL FREE ENERGY PREDICTED BY IDOCK:   -8.41 KCAL/MOL
REMARK 923 INTER-LIGAND FREE ENERGY PREDICTED BY IDOCK:   -7.52 KCAL/MOL
REMARK 924 INTRA-LIGAND FREE ENERGY PREDICTED BY IDOCK:   -0.89 KCAL/MOL
REMARK 927      BINDING AFFINITY PREDICTED BY RF-SCORE:    0.00 PKD
ROOT
HETATM    1  O   UNL     1     -11.254  17.900  64.771  1.00  0.00    -0.695 OA 
HETATM    2  C   UNL     1     -10.395  17.121  65.470  1.00  0.00    -0.115 C  
HETATM    3  O   UNL     1      -9.649  17.572  66.323  1.00  0.00    -0.332 OA 
HETATM    4  C   UNL     1     -10.494  15.672  65.068  1.00  0.00    -0.364 C  
ENDROOT
BRANCH   4   5
HETATM    5  C   UNL     1      -9.544  14.774  65.863  1.00  0.00    -0.320 C  
BRANCH   5   6
HETATM    6  C   UNL     1     -10.056  13.330  65.835  1.00  0.00    -0.291 C  
BRANCH   6   7
HETATM    7  N   UNL     1     -10.611  12.834  67.100  1.00  0.00    -0.236 NA 
HETATM    8  C   UNL     1     -11.176  11.478  67.045  1.00  0.00    -0.300 C  
HETATM    9  C   UNL     1     -10.126  10.378  66.884  1.00  0.00    -0.269 C  
HETATM   10  C   UNL     1      -9.059  10.455  67.981  1.00  0.00    -0.136 C  
HETATM   11  C   UNL     1      -8.482  11.873  68.035  1.00  0.00    -0.162 C  
HETATM   12  C   UNL     1      -9.605  12.907  68.179  1.00  0.00    -0.223 C  
BRANCH  10  13
HETATM   13  O   UNL     1      -9.551  10.186  69.301  1.00  0.00    -0.201 OA 
BRANCH  13  14
HETATM   14  C   UNL     1     -10.698   9.326  69.416  1.00  0.00    -0.208 C  
BRANCH  14  15
HETATM   15  C   UNL     1     -10.282   7.920  69.831  1.00  0.00    -0.210 A  
HETATM   16  C   UNL     1      -9.265   7.750  70.787  1.00  0.00    -0.157 A  
HETATM   17  C   UNL     1      -8.990   6.487  71.314  1.00  0.00    -0.141 A  
HETATM   18  C   UNL     1     -10.971   6.787  69.368  1.00  0.00    -0.321 A  
HETATM   19  C   UNL     1     -10.693   5.523  69.893  1.00  0.00    -0.358 A  
HETATM   20 CL   UNL     1      -9.442   3.842  71.594  1.00  0.00    -0.206 Cl 
HETATM   21  C   UNL     1      -9.719   5.383  70.879  1.00  0.00    -0.180 A  
ENDBRANCH  14  15
BRANCH  14  22
HETATM   22  C   UNL     1     -11.713   9.971  70.359  1.00  0.00    -0.286 A  
HETATM   23  C   UNL     1     -12.783  11.896  71.087  1.00  0.00    -0.284 A  
HETATM   24  C   UNL     1     -13.280   9.845  72.183  1.00  0.00    -0.511 A  
HETATM   25  C   UNL     1     -12.385   9.215  71.324  1.00  0.00    -0.382 A  
HETATM   26  N   UNL     1     -11.912  11.312  70.235  1.00  0.00    -0.354 NA 
HETATM   27  C   UNL     1     -13.484  11.213  72.066  1.00  0.00    -0.280 A  
ENDBRANCH  14  22
ENDBRANCH  13  14
ENDBRANCH  10  13
ENDBRANCH   6   7
ENDBRANCH   5   6
ENDBRANCH   4   5
TORSDOF 7
ENDMDL
MODEL       73
REMARK 921   NORMALIZED FREE ENERGY PREDICTED BY IDOCK:   -4.93 KCAL/MOL
REMARK 922        TOTAL FREE ENERGY PREDICTED BY IDOCK:   -8.40 KCAL/MOL
REMARK 923 INTER-LIGAND FREE ENERGY PREDICTED BY IDOCK:   -7.08 KCAL/MOL
REMARK 924 INTRA-LIGAND FREE ENERGY PREDICTED BY IDOCK:   -1.32 KCAL/MOL
REMARK 927      BINDING AFFINITY PREDICTED BY RF-SCORE:    0.00 PKD
ROOT
HETATM    1  O   UNL     1     -10.191   4.904  72.893  1.00  0.00    -0.160 OA 
HETATM    2  C   UNL     1     -10.534   5.567  71.764  1.00  0.00    -0.228 C  
HETATM    3  O   UNL     1     -11.365   6.459  71.755  1.00  0.00    -0.262 OA 
HETATM    4  C   UNL     1      -9.766   5.072  70.565  1.00  0.00    -0.273 C  
ENDROOT
BRANCH   4   5
HETATM    5  C   UNL     1     -10.127   5.825  69.283  1.00  0.00    -0.268 C  
BRANCH   5   6
HETATM    6  C   UNL     1      -8.993   6.787  68.914  1.00  0.00    -0.131 C  
BRANCH   6   7
HETATM    7  N   UNL     1      -9.327   7.797  67.903  1.00  0.00    -0.140 NA 
HETATM    8  C   UNL     1     -10.723   8.259  67.921  1.00  0.00    -0.070 C  
HETATM    9  C   UNL     1     -11.073   9.120  69.136  1.00  0.00     0.036 C  
HETATM   10  C   UNL     1     -10.125  10.316  69.268  1.00  0.00    -0.227 C  
HETATM   11  C   UNL     1      -8.674   9.824  69.241  1.00  0.00    -0.165 C  
HETATM   12  C   UNL     1      -8.421   8.959  68.001  1.00  0.00    -0.126 C  
BRANCH  10  13
HETATM   13  O   UNL     1     -10.230  11.272  68.204  1.00  0.00    -0.170 OA 
BRANCH  13  14
HETATM   14  C   UNL     1     -11.411  12.091  68.166  1.00  0.00    -0.322 C  
BRANCH  14  15
HETATM   15  C   UNL     1     -11.416  13.091  69.315  1.00  0.00    -0.348 A  
HETATM   16  C   UNL     1     -10.581  14.222  69.255  1.00  0.00    -0.160 A  
HETATM   17  C   UNL     1     -10.696  15.240  70.203  1.00  0.00    -0.293 A  
HETATM   18  C   UNL     1     -12.319  12.974  70.384  1.00  0.00    -0.351 A  
HETATM   19  C   UNL     1     -12.431  13.991  71.334  1.00  0.00    -0.438 A  
HETATM   20 CL   UNL     1     -11.836  16.423  72.343  1.00  0.00    -0.615 Cl 
HETATM   21  C   UNL     1     -11.634  15.128  71.227  1.00  0.00    -0.358 A  
ENDBRANCH  14  15
BRANCH  14  22
HETATM   22  C   UNL     1     -11.525  12.739  66.786  1.00  0.00    -0.343 A  
HETATM   23  C   UNL     1     -10.555  13.171  64.724  1.00  0.00    -0.372 A  
HETATM   24  C   UNL     1     -12.703  14.087  65.175  1.00  0.00    -0.419 A  
HETATM   25  C   UNL     1     -12.650  13.489  66.431  1.00  0.00    -0.244 A  
HETATM   26  N   UNL     1     -10.477  12.574  65.934  1.00  0.00    -0.259 NA 
HETATM   27  C   UNL     1     -11.635  13.928  64.303  1.00  0.00    -0.377 A  
ENDBRANCH  14  22
ENDBRANCH  13  14
ENDBRANCH  10  13
ENDBRANCH   6   7
ENDBRANCH   5   6
ENDBRANCH   4   5
TORSDOF 7
ENDMDL
MODEL       74
REMARK 921   NORMALIZED FREE ENERGY PREDICTED BY IDOCK:   -4.88 KCAL/MOL
REMARK 922        TOTAL FREE ENERGY PREDICTED BY IDOCK:   -8.33 KCAL/MOL
REMARK 923 INTER-LIGAND FREE ENERGY PREDICTED BY IDOCK:   -7.27 KCAL/MOL
REMARK 924 INTRA-LIGAND FREE ENERGY PREDICTED BY IDOCK:   -1.06 KCAL/MOL
REMARK 927      BINDING AFFINITY PREDICTED BY RF-SCORE:    0.00 PKD
ROOT
HETATM    1  O   UNL     1     -11.835   4.893  73.177  1.00  0.00    -0.279 OA 
HETATM    2  C   UNL     1     -10.722   5.550  72.774  1.00  0.00    -0.247 C  
HETATM    3  O   UNL     1      -9.934   5.073  71.974  1.00  0.00    -0.170 OA 
HETATM    4  C   UNL     1     -10.601   6.905  73.423  1.00  0.00    -0.372 C  
ENDROOT
BRANCH   4   5
HETATM    5  C   UNL     1      -9.358   7.669  72.963  1.00  0.00    -0.265 C  
BRANCH   5   6
HETATM    6  C   UNL     1      -9.772   8.816  72.036  1.00  0.00    -0.300 C  
BRANCH   6   7
HETATM    7  N   UNL     1     -10.239   8.413  70.704  1.00  0.00    -0.192 NA 
HETATM    8  C   UNL     1     -11.530   8.985  70.295  1.00  0.00    -0.124 C  
HETATM    9  C   UNL     1     -11.475  10.485  70.002  1.00  0.00    -0.393 C  
HETATM   10  C   UNL     1     -10.403  10.814  68.958  1.00  0.00    -0.215 C  
HETATM   11  C   UNL     1      -9.064  10.208  69.391  1.00  0.00    -0.217 C  
HETATM   12  C   UNL     1      -9.219   8.709  69.678  1.00  0.00    -0.157 C  
BRANCH  10  13
HETATM   13  O   UNL     1     -10.667  10.281  67.654  1.00  0.00    -0.246 OA 
BRANCH  13  14
HETATM   14  C   UNL     1     -11.084  11.205  66.634  1.00  0.00    -0.189 C  
BRANCH  14  15
HETATM   15  C   UNL     1     -10.854  12.644  67.077  1.00  0.00    -0.282 A  
HETATM   16  C   UNL     1      -9.587  13.229  66.904  1.00  0.00    -0.249 A  
HETATM   17  C   UNL     1      -9.398  14.593  67.135  1.00  0.00    -0.231 A  
HETATM   18  C   UNL     1     -11.909  13.441  67.550  1.00  0.00    -0.408 A  
HETATM   19  C   UNL     1     -11.718  14.805  67.784  1.00  0.00    -0.368 A  
HETATM   20 CL   UNL     1     -10.258  17.074  67.753  1.00  0.00    -0.300 Cl 
HETATM   21  C   UNL     1     -10.470  15.378  67.555  1.00  0.00    -0.275 A  
ENDBRANCH  14  15
BRANCH  14  22
HETATM   22  C   UNL     1     -10.387  10.847  65.321  1.00  0.00    -0.268 A  
HETATM   23  C   UNL     1      -8.794   9.571  64.218  1.00  0.00    -0.213 A  
HETATM   24  C   UNL     1     -10.019  11.179  62.965  1.00  0.00    -0.347 A  
HETATM   25  C   UNL     1     -10.697  11.515  64.133  1.00  0.00    -0.428 A  
HETATM   26  N   UNL     1      -9.438   9.871  65.367  1.00  0.00    -0.237 NA 
HETATM   27  C   UNL     1      -9.046  10.189  63.005  1.00  0.00    -0.296 A  
ENDBRANCH  14  22
ENDBRANCH  13  14
ENDBRANCH  10  13
ENDBRANCH   6   7
ENDBRANCH   5   6
ENDBRANCH   4   5
TORSDOF 7
ENDMDL
MODEL       75
REMARK 921   NORMALIZED FREE ENERGY PREDICTED BY IDOCK:   -4.85 KCAL/MOL
REMARK 922        TOTAL FREE ENERGY PREDICTED BY IDOCK:   -8.29 KCAL/MOL
REMARK 923 INTER-LIGAND FREE ENERGY PREDICTED BY IDOCK:   -7.04 KCAL/MOL
REMARK 924 INTRA-LIGAND FREE ENERGY PREDICTED BY IDOCK:   -1.25 KCAL/MOL
REMARK 927      BINDING AFFINITY PREDICTED BY RF-SCORE:    0.00 PKD
ROOT
HETATM    1  O   UNL     1      -7.028   7.598  68.527  1.00  0.00    -0.067 OA 
HETATM    2  C   UNL     1      -8.287   7.549  68.030  1.00  0.00    -0.124 C  
HETATM    3  O   UNL     1      -9.172   6.895  68.555  1.00  0.00    -0.131 OA 
HETATM    4  C   UNL     1      -8.436   8.391  66.788  1.00  0.00    -0.114 C  
ENDROOT
BRANCH   4   5
HETATM    5  C   UNL     1      -9.858   8.362  66.225  1.00  0.00    -0.257 C  
BRANCH   5   6
HETATM    6  C   UNL     1     -10.642   9.572  66.745  1.00  0.00    -0.137 C  
BRANCH   6   7
HETATM    7  N   UNL     1      -9.870  10.813  66.877  1.00  0.00    -0.182 NA 
HETATM    8  C   UNL     1     -10.176  11.849  65.880  1.00  0.00    -0.236 C  
HETATM    9  C   UNL     1     -11.552  12.491  66.060  1.00  0.00    -0.456 C  
HETATM   10  C   UNL     1     -11.726  13.059  67.473  1.00  0.00    -0.370 C  
HETATM   11  C   UNL     1     -11.397  11.974  68.504  1.00  0.00    -0.323 C  
HETATM   12  C   UNL     1     -10.011  11.377  68.235  1.00  0.00    -0.198 C  
BRANCH  10  13
HETATM   13  O   UNL     1     -10.858  14.159  67.777  1.00  0.00    -0.248 OA 
BRANCH  13  14
HETATM   14  C   UNL     1     -11.469  15.439  68.008  1.00  0.00    -0.326 C  
BRANCH  14  15
HETATM   15  C   UNL     1     -11.894  15.584  69.464  1.00  0.00    -0.390 A  
HETATM   16  C   UNL     1     -13.195  15.216  69.848  1.00  0.00     0.361 A  
HETATM   17  C   UNL     1     -13.552  15.169  71.197  1.00  0.00    -0.525 A  
HETATM   18  C   UNL     1     -10.978  15.966  70.458  1.00  0.00    -0.346 A  
HETATM   19  C   UNL     1     -11.336  15.922  71.808  1.00  0.00    -0.340 A  
HETATM   20 CL   UNL     1     -13.024  15.359  73.836  1.00  0.00    -0.548 Cl 
HETATM   21  C   UNL     1     -12.613  15.504  72.171  1.00  0.00    -0.398 A  
ENDBRANCH  14  15
BRANCH  14  22
HETATM   22  C   UNL     1     -10.520  16.539  67.532  1.00  0.00    -0.310 A  
HETATM   23  C   UNL     1      -8.439  17.119  66.687  1.00  0.00    -0.250 A  
HETATM   24  C   UNL     1      -9.985  18.859  67.173  1.00  0.00    -0.382 A  
HETATM   25  C   UNL     1     -10.889  17.886  67.589  1.00  0.00    -0.243 A  
HETATM   26  N   UNL     1      -9.297  16.151  67.078  1.00  0.00    -0.213 NA 
HETATM   27  C   UNL     1      -8.734  18.471  66.714  1.00  0.00    -0.283 A  
ENDBRANCH  14  22
ENDBRANCH  13  14
ENDBRANCH  10  13
ENDBRANCH   6   7
ENDBRANCH   5   6
ENDBRANCH   4   5
TORSDOF 7
ENDMDL
MODEL       76
REMARK 921   NORMALIZED FREE ENERGY PREDICTED BY IDOCK:   -4.85 KCAL/MOL
REMARK 922        TOTAL FREE ENERGY PREDICTED BY IDOCK:   -8.29 KCAL/MOL
REMARK 923 INTER-LIGAND FREE ENERGY PREDICTED BY IDOCK:   -7.93 KCAL/MOL
REMARK 924 INTRA-LIGAND FREE ENERGY PREDICTED BY IDOCK:   -0.36 KCAL/MOL
REMARK 927      BINDING AFFINITY PREDICTED BY RF-SCORE:    0.00 PKD
ROOT
HETATM    1  O   UNL     1     -10.721   5.672  66.772  1.00  0.00    -0.291 OA 
HETATM    2  C   UNL     1      -9.784   6.637  66.617  1.00  0.00    -0.159 C  
HETATM    3  O   UNL     1      -8.609   6.381  66.412  1.00  0.00    -0.124 OA 
HETATM    4  C   UNL     1     -10.376   8.019  66.720  1.00  0.00    -0.360 C  
ENDROOT
BRANCH   4   5
HETATM    5  C   UNL     1      -9.333   9.122  66.526  1.00  0.00    -0.244 C  
BRANCH   5   6
HETATM    6  C   UNL     1      -9.881  10.187  65.571  1.00  0.00    -0.298 C  
BRANCH   6   7
HETATM    7  N   UNL     1     -10.969  11.014  66.107  1.00  0.00    -0.154 NA 
HETATM    8  C   UNL     1     -10.731  11.564  67.450  1.00  0.00    -0.232 C  
HETATM    9  C   UNL     1      -9.659  12.655  67.488  1.00  0.00    -0.184 C  
HETATM   10  C   UNL     1      -9.977  13.789  66.508  1.00  0.00    -0.288 C  
HETATM   11  C   UNL     1     -10.230  13.205  65.114  1.00  0.00    -0.299 C  
HETATM   12  C   UNL     1     -11.303  12.111  65.175  1.00  0.00    -0.327 C  
BRANCH  10  13
HETATM   13  O   UNL     1     -11.155  14.538  66.834  1.00  0.00    -0.309 OA 
BRANCH  13  14
HETATM   14  C   UNL     1     -10.994  15.689  67.682  1.00  0.00    -0.315 C  
BRANCH  14  15
HETATM   15  C   UNL     1     -11.361  15.358  69.123  1.00  0.00    -0.323 A  
HETATM   16  C   UNL     1     -11.073  16.282  70.143  1.00  0.00    -0.346 A  
HETATM   17  C   UNL     1     -11.557  16.084  71.437  1.00  0.00    -0.520 A  
HETATM   18  C   UNL     1     -12.088  14.200  69.445  1.00  0.00    -0.372 A  
HETATM   19  C   UNL     1     -12.569  14.001  70.741  1.00  0.00    -0.431 A  
HETATM   20 CL   UNL     1     -12.990  14.756  73.297  1.00  0.00    -0.618 Cl 
HETATM   21  C   UNL     1     -12.319  14.954  71.725  1.00  0.00    -0.343 A  
ENDBRANCH  14  15
BRANCH  14  22
HETATM   22  C   UNL     1      -9.575  16.233  67.518  1.00  0.00    -0.230 A  
HETATM   23  C   UNL     1      -7.449  16.497  68.408  1.00  0.00    -0.186 A  
HETATM   24  C   UNL     1      -7.916  17.474  66.291  1.00  0.00    -0.303 A  
HETATM   25  C   UNL     1      -9.210  16.971  66.389  1.00  0.00    -0.298 A  
HETATM   26  N   UNL     1      -8.696  15.990  68.529  1.00  0.00    -0.186 NA 
HETATM   27  C   UNL     1      -7.016  17.236  67.321  1.00  0.00    -0.194 A  
ENDBRANCH  14  22
ENDBRANCH  13  14
ENDBRANCH  10  13
ENDBRANCH   6   7
ENDBRANCH   5   6
ENDBRANCH   4   5
TORSDOF 7
ENDMDL
MODEL       77
REMARK 921   NORMALIZED FREE ENERGY PREDICTED BY IDOCK:   -4.85 KCAL/MOL
REMARK 922        TOTAL FREE ENERGY PREDICTED BY IDOCK:   -8.29 KCAL/MOL
REMARK 923 INTER-LIGAND FREE ENERGY PREDICTED BY IDOCK:   -7.09 KCAL/MOL
REMARK 924 INTRA-LIGAND FREE ENERGY PREDICTED BY IDOCK:   -1.19 KCAL/MOL
REMARK 927      BINDING AFFINITY PREDICTED BY RF-SCORE:    0.00 PKD
ROOT
HETATM    1  O   UNL     1     -12.453  16.791  74.124  1.00  0.00    -0.599 OA 
HETATM    2  C   UNL     1     -12.614  15.484  73.809  1.00  0.00    -0.616 C  
HETATM    3  O   UNL     1     -11.947  14.600  74.320  1.00  0.00    -0.397 OA 
HETATM    4  C   UNL     1     -13.701  15.282  72.784  1.00  0.00    -0.584 C  
ENDROOT
BRANCH   4   5
HETATM    5  C   UNL     1     -13.910  13.808  72.432  1.00  0.00    -0.681 C  
BRANCH   5   6
HETATM    6  C   UNL     1     -13.561  13.577  70.957  1.00  0.00     0.212 C  
BRANCH   6   7
HETATM    7  N   UNL     1     -12.152  13.270  70.685  1.00  0.00    -0.330 NA 
HETATM    8  C   UNL     1     -11.856  11.848  70.452  1.00  0.00    -0.239 C  
HETATM    9  C   UNL     1     -12.401  11.314  69.126  1.00  0.00    -0.115 C  
HETATM   10  C   UNL     1     -11.911  12.151  67.940  1.00  0.00    -0.269 C  
HETATM   11  C   UNL     1     -12.217  13.630  68.196  1.00  0.00    -0.164 C  
HETATM   12  C   UNL     1     -11.650  14.071  69.550  1.00  0.00    -0.295 C  
BRANCH  10  13
HETATM   13  O   UNL     1     -10.496  12.081  67.714  1.00  0.00    -0.196 OA 
BRANCH  13  14
HETATM   14  C   UNL     1     -10.001  12.581  66.460  1.00  0.00    -0.244 C  
BRANCH  14  15
HETATM   15  C   UNL     1      -9.316  13.929  66.646  1.00  0.00    -0.282 A  
HETATM   16  C   UNL     1      -9.600  14.981  65.758  1.00  0.00    -0.327 A  
HETATM   17  C   UNL     1      -9.126  16.270  66.009  1.00  0.00    -0.332 A  
HETATM   18  C   UNL     1      -8.492  14.184  67.755  1.00  0.00    -0.178 A  
HETATM   19  C   UNL     1      -8.016  15.473  68.004  1.00  0.00    -0.138 A  
HETATM   20 CL   UNL     1      -7.845  18.119  67.499  1.00  0.00    -0.221 Cl 
HETATM   21  C   UNL     1      -8.353  16.514  67.142  1.00  0.00    -0.180 A  
ENDBRANCH  14  15
BRANCH  14  22
HETATM   22  C   UNL     1      -9.108  11.521  65.817  1.00  0.00    -0.154 A  
HETATM   23  C   UNL     1      -8.630  10.201  63.970  1.00  0.00    -0.192 A  
HETATM   24  C   UNL     1      -7.288   9.947  65.917  1.00  0.00    -0.108 A  
HETATM   25  C   UNL     1      -8.061  10.929  66.529  1.00  0.00    -0.154 A  
HETATM   26  N   UNL     1      -9.394  11.162  64.535  1.00  0.00    -0.198 NA 
HETATM   27  C   UNL     1      -7.578   9.571  64.612  1.00  0.00    -0.113 A  
ENDBRANCH  14  22
ENDBRANCH  13  14
ENDBRANCH  10  13
ENDBRANCH   6   7
ENDBRANCH   5   6
ENDBRANCH   4   5
TORSDOF 7
ENDMDL
MODEL       78
REMARK 921   NORMALIZED FREE ENERGY PREDICTED BY IDOCK:   -4.83 KCAL/MOL
REMARK 922        TOTAL FREE ENERGY PREDICTED BY IDOCK:   -8.27 KCAL/MOL
REMARK 923 INTER-LIGAND FREE ENERGY PREDICTED BY IDOCK:   -6.93 KCAL/MOL
REMARK 924 INTRA-LIGAND FREE ENERGY PREDICTED BY IDOCK:   -1.33 KCAL/MOL
REMARK 927      BINDING AFFINITY PREDICTED BY RF-SCORE:    0.00 PKD
ROOT
HETATM    1  O   UNL     1     -10.412   3.390  73.701  1.00  0.00    -0.142 OA 
HETATM    2  C   UNL     1      -9.764   4.460  73.185  1.00  0.00    -0.135 C  
HETATM    3  O   UNL     1      -9.043   4.378  72.205  1.00  0.00    -0.118 OA 
HETATM    4  C   UNL     1     -10.055   5.722  73.957  1.00  0.00    -0.246 C  
ENDROOT
BRANCH   4   5
HETATM    5  C   UNL     1      -9.345   6.945  73.373  1.00  0.00    -0.179 C  
BRANCH   5   6
HETATM    6  C   UNL     1     -10.385   7.969  72.905  1.00  0.00    -0.327 C  
BRANCH   6   7
HETATM    7  N   UNL     1     -11.015   7.680  71.611  1.00  0.00    -0.231 NA 
HETATM    8  C   UNL     1     -12.131   8.565  71.248  1.00  0.00    -0.286 C  
HETATM    9  C   UNL     1     -11.700   9.993  70.906  1.00  0.00    -0.462 C  
HETATM   10  C   UNL     1     -10.639  10.009  69.801  1.00  0.00    -0.267 C  
HETATM   11  C   UNL     1      -9.485   9.078  70.186  1.00  0.00    -0.217 C  
HETATM   12  C   UNL     1     -10.011   7.679  70.527  1.00  0.00    -0.184 C  
BRANCH  10  13
HETATM   13  O   UNL     1     -11.107   9.542  68.529  1.00  0.00    -0.120 OA 
BRANCH  13  14
HETATM   14  C   UNL     1     -10.159   9.510  67.447  1.00  0.00    -0.208 C  
BRANCH  14  15
HETATM   15  C   UNL     1      -9.963   8.087  66.939  1.00  0.00    -0.338 A  
HETATM   16  C   UNL     1      -8.696   7.681  66.484  1.00  0.00    -0.161 A  
HETATM   17  C   UNL     1      -8.446   6.341  66.183  1.00  0.00    -0.138 A  
HETATM   18  C   UNL     1     -10.990   7.133  67.022  1.00  0.00    -0.304 A  
HETATM   19  C   UNL     1     -10.740   5.792  66.718  1.00  0.00    -0.369 A  
HETATM   20 CL   UNL     1      -9.132   3.735  66.037  1.00  0.00    -0.144 Cl 
HETATM   21  C   UNL     1      -9.464   5.400  66.321  1.00  0.00    -0.157 A  
ENDBRANCH  14  15
BRANCH  14  22
HETATM   22  C   UNL     1     -10.603  10.493  66.365  1.00  0.00    -0.149 A  
HETATM   23  C   UNL     1     -11.899  12.324  65.776  1.00  0.00    -0.352 A  
HETATM   24  C   UNL     1     -10.598  11.271  64.086  1.00  0.00    -0.437 A  
HETATM   25  C   UNL     1     -10.148  10.373  65.048  1.00  0.00    -0.379 A  
HETATM   26  N   UNL     1     -11.476  11.471  66.733  1.00  0.00    -0.466 NA 
HETATM   27  C   UNL     1     -11.494  12.267  64.453  1.00  0.00    -0.417 A  
ENDBRANCH  14  22
ENDBRANCH  13  14
ENDBRANCH  10  13
ENDBRANCH   6   7
ENDBRANCH   5   6
ENDBRANCH   4   5
TORSDOF 7
ENDMDL
MODEL       79
REMARK 921   NORMALIZED FREE ENERGY PREDICTED BY IDOCK:   -4.83 KCAL/MOL
REMARK 922        TOTAL FREE ENERGY PREDICTED BY IDOCK:   -8.26 KCAL/MOL
REMARK 923 INTER-LIGAND FREE ENERGY PREDICTED BY IDOCK:   -7.33 KCAL/MOL
REMARK 924 INTRA-LIGAND FREE ENERGY PREDICTED BY IDOCK:   -0.93 KCAL/MOL
REMARK 927      BINDING AFFINITY PREDICTED BY RF-SCORE:    0.00 PKD
ROOT
HETATM    1  O   UNL     1      -7.563   3.834  73.959  1.00  0.00    -0.070 OA 
HETATM    2  C   UNL     1      -7.364   4.731  72.964  1.00  0.00    -0.082 C  
HETATM    3  O   UNL     1      -6.297   5.299  72.798  1.00  0.00    -0.044 OA 
HETATM    4  C   UNL     1      -8.597   4.916  72.116  1.00  0.00    -0.126 C  
ENDROOT
BRANCH   4   5
HETATM    5  C   UNL     1      -8.382   5.912  70.975  1.00  0.00    -0.123 C  
BRANCH   5   6
HETATM    6  C   UNL     1      -9.540   6.916  70.943  1.00  0.00    -0.164 C  
BRANCH   6   7
HETATM    7  N   UNL     1      -9.148   8.327  70.848  1.00  0.00    -0.145 NA 
HETATM    8  C   UNL     1      -8.797   8.787  69.496  1.00  0.00    -0.144 C  
HETATM    9  C   UNL     1      -9.994   8.885  68.549  1.00  0.00    -0.195 C  
HETATM   10  C   UNL     1     -11.102   9.769  69.131  1.00  0.00    -0.123 C  
HETATM   11  C   UNL     1     -11.453   9.285  70.542  1.00  0.00    -0.296 C  
HETATM   12  C   UNL     1     -10.194   9.202  71.413  1.00  0.00    -0.332 C  
BRANCH  10  13
HETATM   13  O   UNL     1     -10.740  11.149  69.274  1.00  0.00    -0.217 OA 
BRANCH  13  14
HETATM   14  C   UNL     1     -11.726  12.132  68.912  1.00  0.00    -0.327 C  
BRANCH  14  15
HETATM   15  C   UNL     1     -12.038  13.047  70.089  1.00  0.00    -0.377 A  
HETATM   16  C   UNL     1     -11.683  14.406  70.025  1.00  0.00    -0.360 A  
HETATM   17  C   UNL     1     -12.114  15.299  71.008  1.00  0.00    -0.397 A  
HETATM   18  C   UNL     1     -12.777  12.592  71.193  1.00  0.00    -0.347 A  
HETATM   19  C   UNL     1     -13.205  13.486  72.178  1.00  0.00    -0.551 A  
HETATM   20 CL   UNL     1     -13.496  15.953  73.230  1.00  0.00    -0.652 Cl 
HETATM   21  C   UNL     1     -12.890  14.838  72.069  1.00  0.00    -0.326 A  
ENDBRANCH  14  15
BRANCH  14  22
HETATM   22  C   UNL     1     -11.254  12.875  67.663  1.00  0.00    -0.278 A  
HETATM   23  C   UNL     1      -9.542  13.980  66.554  1.00  0.00    -0.293 A  
HETATM   24  C   UNL     1     -11.668  13.841  65.496  1.00  0.00    -0.356 A  
HETATM   25  C   UNL     1     -12.128  13.136  66.604  1.00  0.00    -0.409 A  
HETATM   26  N   UNL     1      -9.958  13.293  67.640  1.00  0.00    -0.225 NA 
HETATM   27  C   UNL     1     -10.349  14.275  65.468  1.00  0.00    -0.374 A  
ENDBRANCH  14  22
ENDBRANCH  13  14
ENDBRANCH  10  13
ENDBRANCH   6   7
ENDBRANCH   5   6
ENDBRANCH   4   5
TORSDOF 7
ENDMDL
MODEL       80
REMARK 921   NORMALIZED FREE ENERGY PREDICTED BY IDOCK:   -4.82 KCAL/MOL
REMARK 922        TOTAL FREE ENERGY PREDICTED BY IDOCK:   -8.25 KCAL/MOL
REMARK 923 INTER-LIGAND FREE ENERGY PREDICTED BY IDOCK:   -6.82 KCAL/MOL
REMARK 924 INTRA-LIGAND FREE ENERGY PREDICTED BY IDOCK:   -1.43 KCAL/MOL
REMARK 927      BINDING AFFINITY PREDICTED BY RF-SCORE:    0.00 PKD
ROOT
HETATM    1  O   UNL     1     -12.555  16.768  74.236  1.00  0.00    -0.638 OA 
HETATM    2  C   UNL     1     -12.846  15.567  73.684  1.00  0.00    -0.563 C  
HETATM    3  O   UNL     1     -12.340  14.528  74.072  1.00  0.00    -0.407 OA 
HETATM    4  C   UNL     1     -13.855  15.688  72.570  1.00  0.00    -0.642 C  
ENDROOT
BRANCH   4   5
HETATM    5  C   UNL     1     -14.211  14.336  71.949  1.00  0.00    -0.597 C  
BRANCH   5   6
HETATM    6  C   UNL     1     -13.308  14.073  70.738  1.00  0.00    -0.027 C  
BRANCH   6   7
HETATM    7  N   UNL     1     -12.137  13.227  70.998  1.00  0.00    -0.193 NA 
HETATM    8  C   UNL     1     -12.433  11.914  71.589  1.00  0.00     0.005 C  
HETATM    9  C   UNL     1     -13.123  10.946  70.625  1.00  0.00    -0.145 C  
HETATM   10  C   UNL     1     -12.318  10.770  69.334  1.00  0.00    -0.062 C  
HETATM   11  C   UNL     1     -12.009  12.144  68.732  1.00  0.00    -0.292 C  
HETATM   12  C   UNL     1     -11.335  13.049  69.770  1.00  0.00    -0.044 C  
BRANCH  10  13
HETATM   13  O   UNL     1     -11.047  10.130  69.515  1.00  0.00    -0.230 OA 
BRANCH  13  14
HETATM   14  C   UNL     1     -11.033   8.693  69.577  1.00  0.00    -0.055 C  
BRANCH  14  15
HETATM   15  C   UNL     1     -10.142   8.112  68.486  1.00  0.00    -0.220 A  
HETATM   16  C   UNL     1      -9.862   6.734  68.479  1.00  0.00    -0.141 A  
HETATM   17  C   UNL     1      -9.200   6.150  67.398  1.00  0.00    -0.112 A  
HETATM   18  C   UNL     1      -9.686   8.900  67.417  1.00  0.00    -0.227 A  
HETATM   19  C   UNL     1      -9.021   8.315  66.337  1.00  0.00    -0.202 A  
HETATM   20 CL   UNL     1      -8.066   6.206  64.951  1.00  0.00    -0.130 Cl 
HETATM   21  C   UNL     1      -8.800   6.941  66.323  1.00  0.00    -0.148 A  
ENDBRANCH  14  15
BRANCH  14  22
HETATM   22  C   UNL     1     -10.640   8.258  70.988  1.00  0.00    -0.204 A  
HETATM   23  C   UNL     1     -11.206   7.126  72.932  1.00  0.00    -0.262 A  
HETATM   24  C   UNL     1      -9.121   8.267  72.857  1.00  0.00    -0.332 A  
HETATM   25  C   UNL     1      -9.428   8.661  71.558  1.00  0.00    -0.320 A  
HETATM   26  N   UNL     1     -11.531   7.487  71.672  1.00  0.00    -0.254 NA 
HETATM   27  C   UNL     1     -10.026   7.485  73.561  1.00  0.00    -0.371 A  
ENDBRANCH  14  22
ENDBRANCH  13  14
ENDBRANCH  10  13
ENDBRANCH   6   7
ENDBRANCH   5   6
ENDBRANCH   4   5
TORSDOF 7
ENDMDL
MODEL       81
REMARK 921   NORMALIZED FREE ENERGY PREDICTED BY IDOCK:   -4.81 KCAL/MOL
REMARK 922        TOTAL FREE ENERGY PREDICTED BY IDOCK:   -8.24 KCAL/MOL
REMARK 923 INTER-LIGAND FREE ENERGY PREDICTED BY IDOCK:   -6.95 KCAL/MOL
REMARK 924 INTRA-LIGAND FREE ENERGY PREDICTED BY IDOCK:   -1.29 KCAL/MOL
REMARK 927      BINDING AFFINITY PREDICTED BY RF-SCORE:    0.00 PKD
ROOT
HETATM    1  O   UNL     1      -9.597   2.689  70.430  1.00  0.00    -0.134 OA 
HETATM    2  C   UNL     1      -9.374   3.038  69.141  1.00  0.00    -0.149 C  
HETATM    3  O   UNL     1      -9.782   2.373  68.204  1.00  0.00    -0.139 OA 
HETATM    4  C   UNL     1      -8.590   4.321  69.031  1.00  0.00    -0.108 C  
ENDROOT
BRANCH   4   5
HETATM    5  C   UNL     1      -8.347   4.740  67.580  1.00  0.00    -0.104 C  
BRANCH   5   6
HETATM    6  C   UNL     1      -8.320   6.269  67.483  1.00  0.00    -0.113 C  
BRANCH   6   7
HETATM    7  N   UNL     1      -9.448   6.960  68.119  1.00  0.00    -0.123 NA 
HETATM    8  C   UNL     1      -9.077   8.006  69.083  1.00  0.00    -0.145 C  
HETATM    9  C   UNL     1      -8.466   9.250  68.436  1.00  0.00    -0.120 C  
HETATM   10  C   UNL     1      -9.386   9.834  67.360  1.00  0.00    -0.134 C  
HETATM   11  C   UNL     1      -9.773   8.734  66.366  1.00  0.00    -0.335 C  
HETATM   12  C   UNL     1     -10.360   7.524  67.103  1.00  0.00    -0.313 C  
BRANCH  10  13
HETATM   13  O   UNL     1     -10.624  10.355  67.863  1.00  0.00    -0.196 OA 
BRANCH  13  14
HETATM   14  C   UNL     1     -10.576  11.607  68.570  1.00  0.00    -0.215 C  
BRANCH  14  15
HETATM   15  C   UNL     1     -10.835  12.774  67.626  1.00  0.00    -0.252 A  
HETATM   16  C   UNL     1      -9.885  13.804  67.518  1.00  0.00    -0.230 A  
HETATM   17  C   UNL     1     -10.013  14.788  66.536  1.00  0.00    -0.283 A  
HETATM   18  C   UNL     1     -11.950  12.790  66.772  1.00  0.00    -0.389 A  
HETATM   19  C   UNL     1     -12.080  13.776  65.791  1.00  0.00    -0.458 A  
HETATM   20 CL   UNL     1     -11.210  15.916  64.397  1.00  0.00    -0.364 Cl 
HETATM   21  C   UNL     1     -11.100  14.757  65.664  1.00  0.00    -0.342 A  
ENDBRANCH  14  15
BRANCH  14  22
HETATM   22  C   UNL     1     -11.539  11.548  69.755  1.00  0.00    -0.326 A  
HETATM   23  C   UNL     1     -12.824  12.692  71.311  1.00  0.00    -0.250 A  
HETATM   24  C   UNL     1     -12.765  10.317  71.423  1.00  0.00    -0.547 A  
HETATM   25  C   UNL     1     -11.908  10.327  70.327  1.00  0.00    -0.372 A  
HETATM   26  N   UNL     1     -11.998  12.734  70.242  1.00  0.00    -0.328 NA 
HETATM   27  C   UNL     1     -13.232  11.523  71.929  1.00  0.00    -0.479 A  
ENDBRANCH  14  22
ENDBRANCH  13  14
ENDBRANCH  10  13
ENDBRANCH   6   7
ENDBRANCH   5   6
ENDBRANCH   4   5
TORSDOF 7
ENDMDL
MODEL       82
REMARK 921   NORMALIZED FREE ENERGY PREDICTED BY IDOCK:   -4.81 KCAL/MOL
REMARK 922        TOTAL FREE ENERGY PREDICTED BY IDOCK:   -8.24 KCAL/MOL
REMARK 923 INTER-LIGAND FREE ENERGY PREDICTED BY IDOCK:   -6.97 KCAL/MOL
REMARK 924 INTRA-LIGAND FREE ENERGY PREDICTED BY IDOCK:   -1.27 KCAL/MOL
REMARK 927      BINDING AFFINITY PREDICTED BY RF-SCORE:    0.00 PKD
ROOT
HETATM    1  O   UNL     1     -12.587  16.708  74.409  1.00  0.00    -0.710 OA 
HETATM    2  C   UNL     1     -12.772  15.552  73.729  1.00  0.00    -0.597 C  
HETATM    3  O   UNL     1     -12.173  14.527  74.006  1.00  0.00    -0.395 OA 
HETATM    4  C   UNL     1     -13.791  15.704  72.627  1.00  0.00    -0.648 C  
ENDROOT
BRANCH   4   5
HETATM    5  C   UNL     1     -14.027  14.400  71.861  1.00  0.00    -0.574 C  
BRANCH   5   6
HETATM    6  C   UNL     1     -13.273  14.444  70.528  1.00  0.00    -0.043 C  
BRANCH   6   7
HETATM    7  N   UNL     1     -11.971  13.767  70.519  1.00  0.00    -0.319 NA 
HETATM    8  C   UNL     1     -12.016  12.322  70.787  1.00  0.00    -0.002 C  
HETATM    9  C   UNL     1     -12.635  11.503  69.653  1.00  0.00     0.048 C  
HETATM   10  C   UNL     1     -11.927  11.765  68.320  1.00  0.00    -0.165 C  
HETATM   11  C   UNL     1     -11.879  13.273  68.054  1.00  0.00    -0.392 C  
HETATM   12  C   UNL     1     -11.261  14.012  69.247  1.00  0.00    -0.261 C  
BRANCH  10  13
HETATM   13  O   UNL     1     -10.565  11.320  68.279  1.00  0.00    -0.180 OA 
BRANCH  13  14
HETATM   14  C   UNL     1     -10.316   9.997  67.774  1.00  0.00    -0.215 C  
BRANCH  14  15
HETATM   15  C   UNL     1      -9.480  10.049  66.502  1.00  0.00    -0.222 A  
HETATM   16  C   UNL     1      -8.121   9.690  66.549  1.00  0.00    -0.119 A  
HETATM   17  C   UNL     1      -7.381   9.557  65.373  1.00  0.00    -0.099 A  
HETATM   18  C   UNL     1     -10.060  10.336  65.256  1.00  0.00    -0.359 A  
HETATM   19  C   UNL     1      -9.318  10.207  64.080  1.00  0.00    -0.340 A  
HETATM   20 CL   UNL     1      -7.102   9.547  62.690  1.00  0.00    -0.101 Cl 
HETATM   21  C   UNL     1      -7.989   9.798  64.143  1.00  0.00    -0.143 A  
ENDBRANCH  14  15
BRANCH  14  22
HETATM   22  C   UNL     1      -9.696   9.148  68.884  1.00  0.00    -0.162 A  
HETATM   23  C   UNL     1      -9.152   7.039  69.683  1.00  0.00    -0.144 A  
HETATM   24  C   UNL     1      -8.673   8.924  71.052  1.00  0.00    -0.276 A  
HETATM   25  C   UNL     1      -9.204   9.734  70.053  1.00  0.00    -0.266 A  
HETATM   26  N   UNL     1      -9.668   7.800  68.693  1.00  0.00    -0.154 NA 
HETATM   27  C   UNL     1      -8.647   7.548  70.868  1.00  0.00    -0.130 A  
ENDBRANCH  14  22
ENDBRANCH  13  14
ENDBRANCH  10  13
ENDBRANCH   6   7
ENDBRANCH   5   6
ENDBRANCH   4   5
TORSDOF 7
ENDMDL
MODEL       83
REMARK 921   NORMALIZED FREE ENERGY PREDICTED BY IDOCK:   -4.75 KCAL/MOL
REMARK 922        TOTAL FREE ENERGY PREDICTED BY IDOCK:   -8.15 KCAL/MOL
REMARK 923 INTER-LIGAND FREE ENERGY PREDICTED BY IDOCK:   -7.05 KCAL/MOL
REMARK 924 INTRA-LIGAND FREE ENERGY PREDICTED BY IDOCK:   -1.10 KCAL/MOL
REMARK 927      BINDING AFFINITY PREDICTED BY RF-SCORE:    0.00 PKD
ROOT
HETATM    1  O   UNL     1     -10.592   3.028  72.606  1.00  0.00    -0.132 OA 
HETATM    2  C   UNL     1     -10.038   4.104  73.212  1.00  0.00    -0.142 C  
HETATM    3  O   UNL     1      -8.886   4.108  73.616  1.00  0.00    -0.094 OA 
HETATM    4  C   UNL     1     -11.004   5.258  73.307  1.00  0.00    -0.369 C  
ENDROOT
BRANCH   4   5
HETATM    5  C   UNL     1     -10.386   6.489  73.972  1.00  0.00    -0.362 C  
BRANCH   5   6
HETATM    6  C   UNL     1     -10.429   7.674  73.000  1.00  0.00    -0.356 C  
BRANCH   6   7
HETATM    7  N   UNL     1     -10.267   7.331  71.582  1.00  0.00    -0.193 NA 
HETATM    8  C   UNL     1     -11.196   8.010  70.666  1.00  0.00    -0.261 C  
HETATM    9  C   UNL     1     -10.921   9.506  70.506  1.00  0.00    -0.348 C  
HETATM   10  C   UNL     1      -9.475   9.768  70.074  1.00  0.00    -0.238 C  
HETATM   11  C   UNL     1      -8.517   9.051  71.030  1.00  0.00    -0.254 C  
HETATM   12  C   UNL     1      -8.878   7.565  71.140  1.00  0.00    -0.141 C  
BRANCH  10  13
HETATM   13  O   UNL     1      -9.154   9.279  68.764  1.00  0.00    -0.134 OA 
BRANCH  13  14
HETATM   14  C   UNL     1     -10.252   8.964  67.889  1.00  0.00    -0.222 C  
BRANCH  14  15
HETATM   15  C   UNL     1     -10.467  10.073  66.867  1.00  0.00    -0.284 A  
HETATM   16  C   UNL     1      -9.963   9.923  65.563  1.00  0.00    -0.363 A  
HETATM   17  C   UNL     1     -10.298  10.837  64.563  1.00  0.00    -0.401 A  
HETATM   18  C   UNL     1     -11.259  11.195  67.161  1.00  0.00    -0.320 A  
HETATM   19  C   UNL     1     -11.591  12.111  66.160  1.00  0.00    -0.418 A  
HETATM   20 CL   UNL     1     -11.613  12.992  63.610  1.00  0.00    -0.518 Cl 
HETATM   21  C   UNL     1     -11.127  11.916  64.862  1.00  0.00    -0.307 A  
ENDBRANCH  14  15
BRANCH  14  22
HETATM   22  C   UNL     1     -10.013   7.590  67.265  1.00  0.00    -0.210 A  
HETATM   23  C   UNL     1     -10.907   5.606  66.461  1.00  0.00    -0.165 A  
HETATM   24  C   UNL     1      -8.542   5.853  66.477  1.00  0.00    -0.123 A  
HETATM   25  C   UNL     1      -8.718   7.122  67.021  1.00  0.00    -0.123 A  
HETATM   26  N   UNL     1     -11.111   6.836  66.982  1.00  0.00    -0.390 NA 
HETATM   27  C   UNL     1      -9.657   5.076  66.192  1.00  0.00    -0.178 A  
ENDBRANCH  14  22
ENDBRANCH  13  14
ENDBRANCH  10  13
ENDBRANCH   6   7
ENDBRANCH   5   6
ENDBRANCH   4   5
TORSDOF 7
ENDMDL
MODEL       84
REMARK 921   NORMALIZED FREE ENERGY PREDICTED BY IDOCK:   -4.74 KCAL/MOL
REMARK 922        TOTAL FREE ENERGY PREDICTED BY IDOCK:   -8.14 KCAL/MOL
REMARK 923 INTER-LIGAND FREE ENERGY PREDICTED BY IDOCK:   -6.72 KCAL/MOL
REMARK 924 INTRA-LIGAND FREE ENERGY PREDICTED BY IDOCK:   -1.43 KCAL/MOL
REMARK 927      BINDING AFFINITY PREDICTED BY RF-SCORE:    0.00 PKD
ROOT
HETATM    1  O   UNL     1     -12.016  15.941  71.341  1.00  0.00    -0.390 OA 
HETATM    2  C   UNL     1     -12.295  14.806  70.657  1.00  0.00    -0.337 C  
HETATM    3  O   UNL     1     -13.011  13.929  71.109  1.00  0.00    -0.330 OA 
HETATM    4  C   UNL     1     -11.628  14.785  69.305  1.00  0.00    -0.331 C  
ENDROOT
BRANCH   4   5
HETATM    5  C   UNL     1     -11.949  13.517  68.511  1.00  0.00    -0.379 C  
BRANCH   5   6
HETATM    6  C   UNL     1     -10.718  12.606  68.475  1.00  0.00    -0.248 C  
BRANCH   6   7
HETATM    7  N   UNL     1     -10.989  11.192  68.193  1.00  0.00    -0.218 NA 
HETATM    8  C   UNL     1      -9.803  10.322  68.163  1.00  0.00    -0.148 C  
HETATM    9  C   UNL     1      -9.168  10.097  69.536  1.00  0.00    -0.223 C  
HETATM   10  C   UNL     1     -10.187   9.556  70.544  1.00  0.00    -0.287 C  
HETATM   11  C   UNL     1     -11.421  10.465  70.562  1.00  0.00    -0.431 C  
HETATM   12  C   UNL     1     -11.978  10.646  69.145  1.00  0.00    -0.158 C  
BRANCH  10  13
HETATM   13  O   UNL     1     -10.677   8.243  70.239  1.00  0.00    -0.228 OA 
BRANCH  13  14
HETATM   14  C   UNL     1      -9.708   7.186  70.127  1.00  0.00    -0.171 C  
BRANCH  14  15
HETATM   15  C   UNL     1      -9.997   6.075  71.128  1.00  0.00    -0.227 A  
HETATM   16  C   UNL     1     -11.056   6.222  72.042  1.00  0.00    -0.313 A  
HETATM   17  C   UNL     1     -11.454   5.152  72.845  1.00  0.00    -0.329 A  
HETATM   18  C   UNL     1      -9.305   4.854  71.086  1.00  0.00    -0.204 A  
HETATM   19  C   UNL     1      -9.701   3.785  71.893  1.00  0.00    -0.237 A  
HETATM   20 CL   UNL     1     -11.334   2.588  73.677  1.00  0.00    -0.321 Cl 
HETATM   21  C   UNL     1     -10.787   3.932  72.753  1.00  0.00    -0.028 A  
ENDBRANCH  14  15
BRANCH  14  22
HETATM   22  C   UNL     1      -9.658   6.708  68.676  1.00  0.00    -0.130 A  
HETATM   23  C   UNL     1      -8.397   6.338  66.764  1.00  0.00    -0.110 A  
HETATM   24  C   UNL     1     -10.732   5.895  66.680  1.00  0.00    -0.323 A  
HETATM   25  C   UNL     1     -10.816   6.295  68.010  1.00  0.00    -0.409 A  
HETATM   26  N   UNL     1      -8.445   6.728  68.056  1.00  0.00    -0.120 NA 
HETATM   27  C   UNL     1      -9.500   5.917  66.041  1.00  0.00    -0.087 A  
ENDBRANCH  14  22
ENDBRANCH  13  14
ENDBRANCH  10  13
ENDBRANCH   6   7
ENDBRANCH   5   6
ENDBRANCH   4   5
TORSDOF 7
ENDMDL
MODEL       85
REMARK 921   NORMALIZED FREE ENERGY PREDICTED BY IDOCK:   -4.70 KCAL/MOL
REMARK 922        TOTAL FREE ENERGY PREDICTED BY IDOCK:   -8.08 KCAL/MOL
REMARK 923 INTER-LIGAND FREE ENERGY PREDICTED BY IDOCK:   -7.02 KCAL/MOL
REMARK 924 INTRA-LIGAND FREE ENERGY PREDICTED BY IDOCK:   -1.06 KCAL/MOL
REMARK 927      BINDING AFFINITY PREDICTED BY RF-SCORE:    0.00 PKD
ROOT
HETATM    1  O   UNL     1     -12.053   8.932  71.211  1.00  0.00    -0.294 OA 
HETATM    2  C   UNL     1     -12.995   9.770  71.704  1.00  0.00    -0.419 C  
HETATM    3  O   UNL     1     -14.017   9.368  72.234  1.00  0.00    -0.412 OA 
HETATM    4  C   UNL     1     -12.612  11.217  71.520  1.00  0.00    -0.418 C  
ENDROOT
BRANCH   4   5
HETATM    5  C   UNL     1     -13.657  12.179  72.090  1.00  0.00    -0.285 C  
BRANCH   5   6
HETATM    6  C   UNL     1     -13.146  13.619  71.978  1.00  0.00    -0.393 C  
BRANCH   6   7
HETATM    7  N   UNL     1     -11.925  13.794  71.183  1.00  0.00    -0.182 NA 
HETATM    8  C   UNL     1     -12.124  13.811  69.726  1.00  0.00    -0.340 C  
HETATM    9  C   UNL     1     -12.833  15.066  69.216  1.00  0.00     0.448 C  
HETATM   10  C   UNL     1     -12.107  16.340  69.659  1.00  0.00     0.235 C  
HETATM   11  C   UNL     1     -11.898  16.309  71.176  1.00  0.00    -0.298 C  
HETATM   12  C   UNL     1     -11.198  15.011  71.598  1.00  0.00    -0.151 C  
BRANCH  10  13
HETATM   13  O   UNL     1     -10.800  16.502  69.091  1.00  0.00    -0.310 OA 
BRANCH  13  14
HETATM   14  C   UNL     1     -10.723  16.973  67.734  1.00  0.00    -0.318 C  
BRANCH  14  15
HETATM   15  C   UNL     1      -9.684  18.079  67.601  1.00  0.00    -0.291 A  
HETATM   16  C   UNL     1      -8.643  18.171  68.543  1.00  0.00    -0.307 A  
HETATM   17  C   UNL     1      -7.584  19.058  68.345  1.00  0.00    -0.343 A  
HETATM   18  C   UNL     1      -9.672  18.942  66.493  1.00  0.00    -0.391 A  
HETATM   19  C   UNL     1      -8.613  19.832  66.298  1.00  0.00    -0.397 A  
HETATM   20 CL   UNL     1      -6.215  20.898  66.924  1.00  0.00    -0.308 Cl 
HETATM   21  C   UNL     1      -7.564  19.870  67.213  1.00  0.00    -0.271 A  
ENDBRANCH  14  15
BRANCH  14  22
HETATM   22  C   UNL     1     -10.477  15.783  66.807  1.00  0.00    -0.305 A  
HETATM   23  C   UNL     1     -11.068  14.624  64.886  1.00  0.00    -0.401 A  
HETATM   24  C   UNL     1      -9.334  13.737  66.252  1.00  0.00    -0.166 A  
HETATM   25  C   UNL     1      -9.508  14.821  67.107  1.00  0.00    -0.233 A  
HETATM   26  N   UNL     1     -11.256  15.690  65.694  1.00  0.00    -0.178 NA 
HETATM   27  C   UNL     1     -10.130  13.633  65.118  1.00  0.00    -0.298 A  
ENDBRANCH  14  22
ENDBRANCH  13  14
ENDBRANCH  10  13
ENDBRANCH   6   7
ENDBRANCH   5   6
ENDBRANCH   4   5
TORSDOF 7
ENDMDL
MODEL       86
REMARK 921   NORMALIZED FREE ENERGY PREDICTED BY IDOCK:   -4.70 KCAL/MOL
REMARK 922        TOTAL FREE ENERGY PREDICTED BY IDOCK:   -8.08 KCAL/MOL
REMARK 923 INTER-LIGAND FREE ENERGY PREDICTED BY IDOCK:   -7.59 KCAL/MOL
REMARK 924 INTRA-LIGAND FREE ENERGY PREDICTED BY IDOCK:   -0.48 KCAL/MOL
REMARK 927      BINDING AFFINITY PREDICTED BY RF-SCORE:    0.00 PKD
ROOT
HETATM    1  O   UNL     1     -10.671   5.244  66.809  1.00  0.00    -0.273 OA 
HETATM    2  C   UNL     1     -10.811   6.336  67.598  1.00  0.00    -0.346 C  
HETATM    3  O   UNL     1     -11.145   6.259  68.769  1.00  0.00    -0.337 OA 
HETATM    4  C   UNL     1     -10.500   7.611  66.857  1.00  0.00    -0.388 C  
ENDROOT
BRANCH   4   5
HETATM    5  C   UNL     1     -10.634   8.853  67.740  1.00  0.00    -0.266 C  
BRANCH   5   6
HETATM    6  C   UNL     1     -10.946  10.074  66.868  1.00  0.00    -0.000 C  
BRANCH   6   7
HETATM    7  N   UNL     1      -9.931  11.133  66.882  1.00  0.00    -0.193 NA 
HETATM    8  C   UNL     1     -10.350  12.408  66.280  1.00  0.00    -0.244 C  
HETATM    9  C   UNL     1     -11.391  13.166  67.106  1.00  0.00    -0.354 C  
HETATM   10  C   UNL     1     -10.908  13.399  68.541  1.00  0.00    -0.265 C  
HETATM   11  C   UNL     1     -10.467  12.067  69.155  1.00  0.00    -0.005 C  
HETATM   12  C   UNL     1      -9.439  11.372  68.254  1.00  0.00    -0.187 C  
BRANCH  10  13
HETATM   13  O   UNL     1      -9.774  14.270  68.647  1.00  0.00    -0.225 OA 
BRANCH  13  14
HETATM   14  C   UNL     1      -9.948  15.497  69.376  1.00  0.00    -0.277 C  
BRANCH  14  15
HETATM   15  C   UNL     1      -9.997  16.690  68.429  1.00  0.00    -0.255 A  
HETATM   16  C   UNL     1     -10.151  16.474  67.048  1.00  0.00    -0.279 A  
HETATM   17  C   UNL     1     -10.377  17.546  66.183  1.00  0.00    -0.330 A  
HETATM   18  C   UNL     1     -10.008  18.008  68.913  1.00  0.00    -0.347 A  
HETATM   19  C   UNL     1     -10.230  19.081  68.046  1.00  0.00    -0.476 A  
HETATM   20 CL   UNL     1     -10.803  20.153  65.637  1.00  0.00    -0.317 Cl 
HETATM   21  C   UNL     1     -10.435  18.843  66.689  1.00  0.00    -0.428 A  
ENDBRANCH  14  15
BRANCH  14  22
HETATM   22  C   UNL     1     -11.179  15.374  70.273  1.00  0.00    -0.309 A  
HETATM   23  C   UNL     1     -13.491  15.408  70.466  1.00  0.00    -0.026 A  
HETATM   24  C   UNL     1     -12.198  15.107  72.439  1.00  0.00    -0.462 A  
HETATM   25  C   UNL     1     -11.052  15.185  71.653  1.00  0.00    -0.193 A  
HETATM   26  N   UNL     1     -12.398  15.482  69.675  1.00  0.00    -0.268 NA 
HETATM   27  C   UNL     1     -13.443  15.222  71.837  1.00  0.00    -0.547 A  
ENDBRANCH  14  22
ENDBRANCH  13  14
ENDBRANCH  10  13
ENDBRANCH   6   7
ENDBRANCH   5   6
ENDBRANCH   4   5
TORSDOF 7
ENDMDL
MODEL       87
REMARK 921   NORMALIZED FREE ENERGY PREDICTED BY IDOCK:   -4.68 KCAL/MOL
REMARK 922        TOTAL FREE ENERGY PREDICTED BY IDOCK:   -8.06 KCAL/MOL
REMARK 923 INTER-LIGAND FREE ENERGY PREDICTED BY IDOCK:   -7.26 KCAL/MOL
REMARK 924 INTRA-LIGAND FREE ENERGY PREDICTED BY IDOCK:   -0.80 KCAL/MOL
REMARK 927      BINDING AFFINITY PREDICTED BY RF-SCORE:    0.00 PKD
ROOT
HETATM    1  O   UNL     1     -10.980   6.284  71.982  1.00  0.00    -0.234 OA 
HETATM    2  C   UNL     1     -12.058   7.032  71.646  1.00  0.00    -0.347 C  
HETATM    3  O   UNL     1     -12.801   6.733  70.726  1.00  0.00    -0.205 OA 
HETATM    4  C   UNL     1     -12.209   8.237  72.540  1.00  0.00    -0.367 C  
ENDROOT
BRANCH   4   5
HETATM    5  C   UNL     1     -13.434   9.082  72.185  1.00  0.00    -0.514 C  
BRANCH   5   6
HETATM    6  C   UNL     1     -13.112   9.975  70.982  1.00  0.00    -0.356 C  
BRANCH   6   7
HETATM    7  N   UNL     1     -11.885  10.772  71.100  1.00  0.00    -0.262 NA 
HETATM    8  C   UNL     1     -10.775  10.342  70.235  1.00  0.00    -0.250 C  
HETATM    9  C   UNL     1     -11.010  10.619  68.749  1.00  0.00    -0.292 C  
HETATM   10  C   UNL     1     -11.327  12.096  68.496  1.00  0.00    -0.275 C  
HETATM   11  C   UNL     1     -12.478  12.535  69.407  1.00  0.00     0.241 C  
HETATM   12  C   UNL     1     -12.164  12.204  70.871  1.00  0.00    -0.211 C  
BRANCH  10  13
HETATM   13  O   UNL     1     -10.243  12.989  68.784  1.00  0.00    -0.195 OA 
BRANCH  13  14
HETATM   14  C   UNL     1      -9.700  13.744  67.687  1.00  0.00    -0.227 C  
BRANCH  14  15
HETATM   15  C   UNL     1     -10.414  13.401  66.385  1.00  0.00    -0.286 A  
HETATM   16  C   UNL     1      -9.967  12.315  65.613  1.00  0.00    -0.271 A  
HETATM   17  C   UNL     1     -10.708  11.871  64.516  1.00  0.00    -0.361 A  
HETATM   18  C   UNL     1     -11.583  14.074  65.993  1.00  0.00    -0.362 A  
HETATM   19  C   UNL     1     -12.322  13.631  64.894  1.00  0.00    -0.442 A  
HETATM   20 CL   UNL     1     -12.850  11.917  62.878  1.00  0.00    -0.081 Cl 
HETATM   21  C   UNL     1     -11.892  12.519  64.174  1.00  0.00    -0.411 A  
ENDBRANCH  14  15
BRANCH  14  22
HETATM   22  C   UNL     1      -9.740  15.232  68.037  1.00  0.00    -0.211 A  
HETATM   23  C   UNL     1     -10.595  16.920  69.379  1.00  0.00    -0.292 A  
HETATM   24  C   UNL     1      -9.103  17.517  67.626  1.00  0.00    -0.243 A  
HETATM   25  C   UNL     1      -9.017  16.169  67.293  1.00  0.00    -0.210 A  
HETATM   26  N   UNL     1     -10.527  15.603  69.084  1.00  0.00    -0.222 NA 
HETATM   27  C   UNL     1      -9.909  17.904  68.688  1.00  0.00    -0.375 A  
ENDBRANCH  14  22
ENDBRANCH  13  14
ENDBRANCH  10  13
ENDBRANCH   6   7
ENDBRANCH   5   6
ENDBRANCH   4   5
TORSDOF 7
ENDMDL
MODEL       88
REMARK 921   NORMALIZED FREE ENERGY PREDICTED BY IDOCK:   -4.67 KCAL/MOL
REMARK 922        TOTAL FREE ENERGY PREDICTED BY IDOCK:   -8.04 KCAL/MOL
REMARK 923 INTER-LIGAND FREE ENERGY PREDICTED BY IDOCK:   -6.64 KCAL/MOL
REMARK 924 INTRA-LIGAND FREE ENERGY PREDICTED BY IDOCK:   -1.40 KCAL/MOL
REMARK 927      BINDING AFFINITY PREDICTED BY RF-SCORE:    0.00 PKD
ROOT
HETATM    1  O   UNL     1      -9.018  16.879  67.664  1.00  0.00    -0.215 OA 
HETATM    2  C   UNL     1     -10.159  16.152  67.716  1.00  0.00    -0.250 C  
HETATM    3  O   UNL     1     -11.168  16.558  68.268  1.00  0.00    -0.356 OA 
HETATM    4  C   UNL     1     -10.015  14.826  67.014  1.00  0.00    -0.238 C  
ENDROOT
BRANCH   4   5
HETATM    5  C   UNL     1     -11.303  14.001  67.047  1.00  0.00    -0.346 C  
BRANCH   5   6
HETATM    6  C   UNL     1     -11.248  13.008  68.213  1.00  0.00    -0.275 C  
BRANCH   6   7
HETATM    7  N   UNL     1     -11.797  11.676  67.932  1.00  0.00    -0.596 NA 
HETATM    8  C   UNL     1     -11.266  11.023  66.725  1.00  0.00    -0.089 C  
HETATM    9  C   UNL     1      -9.809  10.577  66.857  1.00  0.00    -0.235 C  
HETATM   10  C   UNL     1      -9.607   9.669  68.074  1.00  0.00    -0.143 C  
HETATM   11  C   UNL     1     -10.170  10.354  69.323  1.00  0.00    -0.248 C  
HETATM   12  C   UNL     1     -11.625  10.781  69.094  1.00  0.00    -0.305 C  
BRANCH  10  13
HETATM   13  O   UNL     1     -10.283   8.407  67.985  1.00  0.00    -0.194 OA 
BRANCH  13  14
HETATM   14  C   UNL     1      -9.522   7.226  68.292  1.00  0.00    -0.141 C  
BRANCH  14  15
HETATM   15  C   UNL     1     -10.071   6.534  69.533  1.00  0.00    -0.203 A  
HETATM   16  C   UNL     1      -9.273   5.599  70.217  1.00  0.00    -0.178 A  
HETATM   17  C   UNL     1      -9.679   5.086  71.450  1.00  0.00    -0.231 A  
HETATM   18  C   UNL     1     -11.314   6.891  70.081  1.00  0.00    -0.364 A  
HETATM   19  C   UNL     1     -11.721   6.375  71.313  1.00  0.00    -0.359 A  
HETATM   20 CL   UNL     1     -11.352   4.930  73.562  1.00  0.00    -0.378 Cl 
HETATM   21  C   UNL     1     -10.893   5.492  72.002  1.00  0.00    -0.226 A  
ENDBRANCH  14  15
BRANCH  14  22
HETATM   22  C   UNL     1      -9.474   6.328  67.057  1.00  0.00    -0.131 A  
HETATM   23  C   UNL     1      -8.383   5.716  65.103  1.00  0.00    -0.146 A  
HETATM   24  C   UNL     1     -10.427   4.626  65.644  1.00  0.00    -0.260 A  
HETATM   25  C   UNL     1     -10.492   5.405  66.795  1.00  0.00    -0.347 A  
HETATM   26  N   UNL     1      -8.416   6.483  66.215  1.00  0.00    -0.123 NA 
HETATM   27  C   UNL     1      -9.353   4.783  64.778  1.00  0.00    -0.065 A  
ENDBRANCH  14  22
ENDBRANCH  13  14
ENDBRANCH  10  13
ENDBRANCH   6   7
ENDBRANCH   5   6
ENDBRANCH   4   5
TORSDOF 7
ENDMDL
MODEL       89
REMARK 921   NORMALIZED FREE ENERGY PREDICTED BY IDOCK:   -4.62 KCAL/MOL
REMARK 922        TOTAL FREE ENERGY PREDICTED BY IDOCK:   -7.97 KCAL/MOL
REMARK 923 INTER-LIGAND FREE ENERGY PREDICTED BY IDOCK:   -6.62 KCAL/MOL
REMARK 924 INTRA-LIGAND FREE ENERGY PREDICTED BY IDOCK:   -1.35 KCAL/MOL
REMARK 927      BINDING AFFINITY PREDICTED BY RF-SCORE:    0.00 PKD
ROOT
HETATM    1  O   UNL     1     -10.857   7.064  72.369  1.00  0.00    -0.222 OA 
HETATM    2  C   UNL     1     -11.957   7.586  71.778  1.00  0.00    -0.301 C  
HETATM    3  O   UNL     1     -12.683   6.929  71.049  1.00  0.00    -0.356 OA 
HETATM    4  C   UNL     1     -12.158   9.036  72.139  1.00  0.00    -0.412 C  
ENDROOT
BRANCH   4   5
HETATM    5  C   UNL     1     -13.409   9.635  71.494  1.00  0.00    -0.468 C  
BRANCH   5   6
HETATM    6  C   UNL     1     -13.011  10.444  70.255  1.00  0.00    -0.032 C  
BRANCH   6   7
HETATM    7  N   UNL     1     -11.742  11.174  70.360  1.00  0.00    -0.329 NA 
HETATM    8  C   UNL     1     -10.901  11.140  69.154  1.00  0.00    -0.238 C  
HETATM    9  C   UNL     1     -11.462  11.953  67.987  1.00  0.00    -0.389 C  
HETATM   10  C   UNL     1     -11.735  13.405  68.393  1.00  0.00    -0.355 C  
HETATM   11  C   UNL     1     -12.605  13.429  69.654  1.00  0.00     0.098 C  
HETATM   12  C   UNL     1     -11.975  12.576  70.761  1.00  0.00     0.018 C  
BRANCH  10  13
HETATM   13  O   UNL     1     -10.557  14.155  68.721  1.00  0.00    -0.245 OA 
BRANCH  13  14
HETATM   14  C   UNL     1      -9.699  14.546  67.635  1.00  0.00    -0.215 C  
BRANCH  14  15
HETATM   15  C   UNL     1      -9.764  16.050  67.405  1.00  0.00    -0.232 A  
HETATM   16  C   UNL     1     -10.543  16.850  68.259  1.00  0.00    -0.363 A  
HETATM   17  C   UNL     1     -10.480  18.243  68.181  1.00  0.00    -0.359 A  
HETATM   18  C   UNL     1      -8.972  16.676  66.428  1.00  0.00    -0.326 A  
HETATM   19  C   UNL     1      -8.912  18.069  66.348  1.00  0.00    -0.249 A  
HETATM   20 CL   UNL     1      -9.502  20.559  67.203  1.00  0.00    -0.556 Cl 
HETATM   21  C   UNL     1      -9.649  18.845  67.239  1.00  0.00    -0.307 A  
ENDBRANCH  14  15
BRANCH  14  22
HETATM   22  C   UNL     1      -8.287  14.026  67.904  1.00  0.00    -0.168 A  
HETATM   23  C   UNL     1      -6.686  12.387  67.539  1.00  0.00    -0.146 A  
HETATM   24  C   UNL     1      -6.155  14.176  69.014  1.00  0.00    -0.093 A  
HETATM   25  C   UNL     1      -7.423  14.698  68.774  1.00  0.00    -0.135 A  
HETATM   26  N   UNL     1      -7.920  12.871  67.281  1.00  0.00    -0.170 NA 
HETATM   27  C   UNL     1      -5.777  12.996  68.387  1.00  0.00    -0.074 A  
ENDBRANCH  14  22
ENDBRANCH  13  14
ENDBRANCH  10  13
ENDBRANCH   6   7
ENDBRANCH   5   6
ENDBRANCH   4   5
TORSDOF 7
ENDMDL
MODEL       90
REMARK 921   NORMALIZED FREE ENERGY PREDICTED BY IDOCK:   -4.61 KCAL/MOL
REMARK 922        TOTAL FREE ENERGY PREDICTED BY IDOCK:   -7.96 KCAL/MOL
REMARK 923 INTER-LIGAND FREE ENERGY PREDICTED BY IDOCK:   -6.88 KCAL/MOL
REMARK 924 INTRA-LIGAND FREE ENERGY PREDICTED BY IDOCK:   -1.08 KCAL/MOL
REMARK 927      BINDING AFFINITY PREDICTED BY RF-SCORE:    0.00 PKD
ROOT
HETATM    1  O   UNL     1     -10.661   5.474  74.301  1.00  0.00    -0.235 OA 
HETATM    2  C   UNL     1     -10.940   5.655  72.989  1.00  0.00    -0.284 C  
HETATM    3  O   UNL     1     -11.028   4.725  72.204  1.00  0.00    -0.087 OA 
HETATM    4  C   UNL     1     -11.129   7.111  72.648  1.00  0.00    -0.330 C  
ENDROOT
BRANCH   4   5
HETATM    5  C   UNL     1     -11.464   7.332  71.172  1.00  0.00    -0.312 C  
BRANCH   5   6
HETATM    6  C   UNL     1     -11.973   8.763  70.968  1.00  0.00    -0.251 C  
BRANCH   6   7
HETATM    7  N   UNL     1     -10.934   9.771  70.727  1.00  0.00    -0.315 NA 
HETATM    8  C   UNL     1      -9.965   9.432  69.674  1.00  0.00    -0.197 C  
HETATM    9  C   UNL     1     -10.554   9.462  68.263  1.00  0.00    -0.256 C  
HETATM   10  C   UNL     1     -11.208  10.813  67.955  1.00  0.00    -0.307 C  
HETATM   11  C   UNL     1     -12.209  11.160  69.062  1.00  0.00    -0.194 C  
HETATM   12  C   UNL     1     -11.537  11.088  70.438  1.00  0.00    -0.293 C  
BRANCH  10  13
HETATM   13  O   UNL     1     -10.290  11.913  67.903  1.00  0.00    -0.190 OA 
BRANCH  13  14
HETATM   14  C   UNL     1     -10.459  12.866  66.839  1.00  0.00    -0.246 C  
BRANCH  14  15
HETATM   15  C   UNL     1      -9.511  14.046  67.010  1.00  0.00    -0.253 A  
HETATM   16  C   UNL     1      -8.287  13.862  67.676  1.00  0.00    -0.183 A  
HETATM   17  C   UNL     1      -7.326  14.875  67.690  1.00  0.00    -0.208 A  
HETATM   18  C   UNL     1      -9.776  15.290  66.415  1.00  0.00    -0.308 A  
HETATM   19  C   UNL     1      -8.816  16.304  66.432  1.00  0.00    -0.346 A  
HETATM   20 CL   UNL     1      -6.371  17.299  66.990  1.00  0.00    -0.189 Cl 
HETATM   21  C   UNL     1      -7.588  16.084  67.050  1.00  0.00    -0.230 A  
ENDBRANCH  14  15
BRANCH  14  22
HETATM   22  C   UNL     1     -10.312  12.147  65.498  1.00  0.00    -0.263 A  
HETATM   23  C   UNL     1     -11.141  11.761  63.366  1.00  0.00    -0.365 A  
HETATM   24  C   UNL     1      -9.195  10.578  64.053  1.00  0.00    -0.286 A  
HETATM   25  C   UNL     1      -9.277  11.233  65.278  1.00  0.00    -0.191 A  
HETATM   26  N   UNL     1     -11.244  12.417  64.543  1.00  0.00    -0.308 NA 
HETATM   27  C   UNL     1     -10.145  10.844  63.076  1.00  0.00    -0.251 A  
ENDBRANCH  14  22
ENDBRANCH  13  14
ENDBRANCH  10  13
ENDBRANCH   6   7
ENDBRANCH   5   6
ENDBRANCH   4   5
TORSDOF 7
ENDMDL
MODEL       91
REMARK 921   NORMALIZED FREE ENERGY PREDICTED BY IDOCK:   -4.61 KCAL/MOL
REMARK 922        TOTAL FREE ENERGY PREDICTED BY IDOCK:   -7.95 KCAL/MOL
REMARK 923 INTER-LIGAND FREE ENERGY PREDICTED BY IDOCK:   -7.39 KCAL/MOL
REMARK 924 INTRA-LIGAND FREE ENERGY PREDICTED BY IDOCK:   -0.56 KCAL/MOL
REMARK 927      BINDING AFFINITY PREDICTED BY RF-SCORE:    0.00 PKD
ROOT
HETATM    1  O   UNL     1     -12.511  16.926  74.264  1.00  0.00    -0.588 OA 
HETATM    2  C   UNL     1     -12.755  15.653  73.873  1.00  0.00    -0.600 C  
HETATM    3  O   UNL     1     -12.189  14.695  74.373  1.00  0.00    -0.417 OA 
HETATM    4  C   UNL     1     -13.792  15.587  72.781  1.00  0.00    -0.606 C  
ENDROOT
BRANCH   4   5
HETATM    5  C   UNL     1     -14.094  14.153  72.342  1.00  0.00    -0.570 C  
BRANCH   5   6
HETATM    6  C   UNL     1     -13.585  13.934  70.913  1.00  0.00     0.104 C  
BRANCH   6   7
HETATM    7  N   UNL     1     -12.180  13.523  70.802  1.00  0.00    -0.356 NA 
HETATM    8  C   UNL     1     -11.888  12.590  69.703  1.00  0.00    -0.314 C  
HETATM    9  C   UNL     1     -11.984  13.225  68.315  1.00  0.00    -0.338 C  
HETATM   10  C   UNL     1     -11.091  14.464  68.200  1.00  0.00    -0.264 C  
HETATM   11  C   UNL     1     -11.398  15.424  69.353  1.00  0.00    -0.315 C  
HETATM   12  C   UNL     1     -11.294  14.700  70.701  1.00  0.00    -0.144 C  
BRANCH  10  13
HETATM   13  O   UNL     1      -9.686  14.188  68.289  1.00  0.00    -0.215 OA 
BRANCH  13  14
HETATM   14  C   UNL     1      -8.808  14.952  67.444  1.00  0.00    -0.193 C  
BRANCH  14  15
HETATM   15  C   UNL     1      -9.476  16.244  66.992  1.00  0.00    -0.237 A  
HETATM   16  C   UNL     1      -9.188  17.446  67.662  1.00  0.00    -0.234 A  
HETATM   17  C   UNL     1      -9.645  18.666  67.159  1.00  0.00    -0.315 A  
HETATM   18  C   UNL     1     -10.288  16.286  65.846  1.00  0.00    -0.381 A  
HETATM   19  C   UNL     1     -10.747  17.506  65.346  1.00  0.00    -0.008 A  
HETATM   20 CL   UNL     1     -10.893  20.200  65.324  1.00  0.00    -0.177 Cl 
HETATM   21  C   UNL     1     -10.406  18.691  65.993  1.00  0.00    -0.399 A  
ENDBRANCH  14  15
BRANCH  14  22
HETATM   22  C   UNL     1      -7.480  15.167  68.170  1.00  0.00    -0.114 A  
HETATM   23  C   UNL     1      -6.297  15.145  70.165  1.00  0.00    -0.130 A  
HETATM   24  C   UNL     1      -5.166  15.832  68.189  1.00  0.00    -0.117 A  
HETATM   25  C   UNL     1      -6.348  15.620  67.486  1.00  0.00    -0.181 A  
HETATM   26  N   UNL     1      -7.457  14.925  69.509  1.00  0.00    -0.181 NA 
HETATM   27  C   UNL     1      -5.136  15.592  69.556  1.00  0.00    -0.098 A  
ENDBRANCH  14  22
ENDBRANCH  13  14
ENDBRANCH  10  13
ENDBRANCH   6   7
ENDBRANCH   5   6
ENDBRANCH   4   5
TORSDOF 7
ENDMDL
MODEL       92
REMARK 921   NORMALIZED FREE ENERGY PREDICTED BY IDOCK:   -4.59 KCAL/MOL
REMARK 922        TOTAL FREE ENERGY PREDICTED BY IDOCK:   -7.93 KCAL/MOL
REMARK 923 INTER-LIGAND FREE ENERGY PREDICTED BY IDOCK:   -6.76 KCAL/MOL
REMARK 924 INTRA-LIGAND FREE ENERGY PREDICTED BY IDOCK:   -1.17 KCAL/MOL
REMARK 927      BINDING AFFINITY PREDICTED BY RF-SCORE:    0.00 PKD
ROOT
HETATM    1  O   UNL     1     -11.089  19.500  65.391  1.00  0.00    -0.415 OA 
HETATM    2  C   UNL     1     -10.325  18.568  66.008  1.00  0.00    -0.393 C  
HETATM    3  O   UNL     1      -9.534  18.851  66.893  1.00  0.00    -0.298 OA 
HETATM    4  C   UNL     1     -10.586  17.182  65.476  1.00  0.00    -0.160 C  
ENDROOT
BRANCH   4   5
HETATM    5  C   UNL     1      -9.745  16.114  66.177  1.00  0.00    -0.352 C  
BRANCH   5   6
HETATM    6  C   UNL     1     -10.540  14.806  66.261  1.00  0.00    -0.305 C  
BRANCH   6   7
HETATM    7  N   UNL     1     -10.671  14.235  67.606  1.00  0.00    -0.256 NA 
HETATM    8  C   UNL     1     -11.718  13.213  67.752  1.00  0.00    -0.358 C  
HETATM    9  C   UNL     1     -11.398  11.896  67.044  1.00  0.00    -0.392 C  
HETATM   10  C   UNL     1     -10.048  11.329  67.496  1.00  0.00    -0.183 C  
HETATM   11  C   UNL     1      -8.966  12.403  67.348  1.00  0.00    -0.185 C  
HETATM   12  C   UNL     1      -9.380  13.689  68.073  1.00  0.00    -0.208 C  
BRANCH  10  13
HETATM   13  O   UNL     1     -10.010  10.927  68.873  1.00  0.00    -0.189 OA 
BRANCH  13  14
HETATM   14  C   UNL     1     -10.361   9.566  69.174  1.00  0.00    -0.207 C  
BRANCH  14  15
HETATM   15  C   UNL     1      -9.129   8.762  69.570  1.00  0.00    -0.146 A  
HETATM   16  C   UNL     1      -8.179   9.330  70.437  1.00  0.00    -0.199 A  
HETATM   17  C   UNL     1      -7.139   8.556  70.955  1.00  0.00    -0.068 A  
HETATM   18  C   UNL     1      -8.975   7.421  69.183  1.00  0.00    -0.135 A  
HETATM   19  C   UNL     1      -7.932   6.648  69.698  1.00  0.00    -0.124 A  
HETATM   20 CL   UNL     1      -5.804   6.237  71.307  1.00  0.00    -0.026 Cl 
HETATM   21  C   UNL     1      -7.032   7.213  70.598  1.00  0.00    -0.058 A  
ENDBRANCH  14  15
BRANCH  14  22
HETATM   22  C   UNL     1     -11.466   9.557  70.230  1.00  0.00    -0.206 A  
HETATM   23  C   UNL     1     -13.127  10.721  71.356  1.00  0.00    -0.369 A  
HETATM   24  C   UNL     1     -12.716   8.461  71.972  1.00  0.00    -0.399 A  
HETATM   25  C   UNL     1     -11.720   8.419  71.001  1.00  0.00    -0.296 A  
HETATM   26  N   UNL     1     -12.171  10.710  70.402  1.00  0.00    -0.318 NA 
HETATM   27  C   UNL     1     -13.435   9.635  72.157  1.00  0.00    -0.516 A  
ENDBRANCH  14  22
ENDBRANCH  13  14
ENDBRANCH  10  13
ENDBRANCH   6   7
ENDBRANCH   5   6
ENDBRANCH   4   5
TORSDOF 7
ENDMDL
MODEL       93
REMARK 921   NORMALIZED FREE ENERGY PREDICTED BY IDOCK:   -4.55 KCAL/MOL
REMARK 922        TOTAL FREE ENERGY PREDICTED BY IDOCK:   -7.88 KCAL/MOL
REMARK 923 INTER-LIGAND FREE ENERGY PREDICTED BY IDOCK:   -6.88 KCAL/MOL
REMARK 924 INTRA-LIGAND FREE ENERGY PREDICTED BY IDOCK:   -0.99 KCAL/MOL
REMARK 927      BINDING AFFINITY PREDICTED BY RF-SCORE:    0.00 PKD
ROOT
HETATM    1  O   UNL     1      -9.459   4.039  65.081  1.00  0.00    -0.150 OA 
HETATM    2  C   UNL     1      -9.006   4.194  66.348  1.00  0.00    -0.124 C  
HETATM    3  O   UNL     1      -7.901   3.815  66.698  1.00  0.00    -0.087 OA 
HETATM    4  C   UNL     1     -10.017   4.884  67.228  1.00  0.00    -0.220 C  
ENDROOT
BRANCH   4   5
HETATM    5  C   UNL     1      -9.512   5.085  68.658  1.00  0.00    -0.188 C  
BRANCH   5   6
HETATM    6  C   UNL     1      -9.261   6.575  68.910  1.00  0.00    -0.129 C  
BRANCH   6   7
HETATM    7  N   UNL     1     -10.465   7.409  69.010  1.00  0.00    -0.211 NA 
HETATM    8  C   UNL     1     -10.624   8.128  70.283  1.00  0.00    -0.228 C  
HETATM    9  C   UNL     1      -9.620   9.265  70.478  1.00  0.00    -0.317 C  
HETATM   10  C   UNL     1      -9.660  10.255  69.310  1.00  0.00    -0.224 C  
HETATM   11  C   UNL     1      -9.501   9.496  67.989  1.00  0.00    -0.147 C  
HETATM   12  C   UNL     1     -10.535   8.367  67.888  1.00  0.00    -0.193 C  
BRANCH  10  13
HETATM   13  O   UNL     1     -10.891  10.981  69.194  1.00  0.00    -0.212 OA 
BRANCH  13  14
HETATM   14  C   UNL     1     -10.806  12.409  69.047  1.00  0.00    -0.148 C  
BRANCH  14  15
HETATM   15  C   UNL     1     -11.126  12.828  67.618  1.00  0.00    -0.294 A  
HETATM   16  C   UNL     1     -10.182  12.603  66.601  1.00  0.00    -0.246 A  
HETATM   17  C   UNL     1     -10.518  12.812  65.262  1.00  0.00    -0.312 A  
HETATM   18  C   UNL     1     -12.390  13.331  67.269  1.00  0.00    -0.126 A  
HETATM   19  C   UNL     1     -12.724  13.543  65.929  1.00  0.00    -0.382 A  
HETATM   20 CL   UNL     1     -12.236  13.434  63.277  1.00  0.00    -0.485 Cl 
HETATM   21  C   UNL     1     -11.794  13.262  64.931  1.00  0.00    -0.362 A  
ENDBRANCH  14  15
BRANCH  14  22
HETATM   22  C   UNL     1     -11.697  13.073  70.097  1.00  0.00    -0.170 A  
HETATM   23  C   UNL     1     -12.360  15.015  71.178  1.00  0.00    -0.327 A  
HETATM   24  C   UNL     1     -13.328  12.954  71.864  1.00  0.00    -0.530 A  
HETATM   25  C   UNL     1     -12.554  12.315  70.901  1.00  0.00    -0.334 A  
HETATM   26  N   UNL     1     -11.600  14.425  70.230  1.00  0.00    -0.268 NA 
HETATM   27  C   UNL     1     -13.230  14.332  72.010  1.00  0.00    -0.470 A  
ENDBRANCH  14  22
ENDBRANCH  13  14
ENDBRANCH  10  13
ENDBRANCH   6   7
ENDBRANCH   5   6
ENDBRANCH   4   5
TORSDOF 7
ENDMDL
MODEL       94
REMARK 921   NORMALIZED FREE ENERGY PREDICTED BY IDOCK:   -4.55 KCAL/MOL
REMARK 922        TOTAL FREE ENERGY PREDICTED BY IDOCK:   -7.88 KCAL/MOL
REMARK 923 INTER-LIGAND FREE ENERGY PREDICTED BY IDOCK:   -6.66 KCAL/MOL
REMARK 924 INTRA-LIGAND FREE ENERGY PREDICTED BY IDOCK:   -1.21 KCAL/MOL
REMARK 927      BINDING AFFINITY PREDICTED BY RF-SCORE:    0.00 PKD
ROOT
HETATM    1  O   UNL     1     -10.618   7.272  73.689  1.00  0.00    -0.375 OA 
HETATM    2  C   UNL     1      -9.864   6.687  72.728  1.00  0.00    -0.169 C  
HETATM    3  O   UNL     1      -8.696   6.984  72.542  1.00  0.00    -0.123 OA 
HETATM    4  C   UNL     1     -10.640   5.651  71.956  1.00  0.00    -0.283 C  
ENDROOT
BRANCH   4   5
HETATM    5  C   UNL     1      -9.796   4.966  70.879  1.00  0.00    -0.277 C  
BRANCH   5   6
HETATM    6  C   UNL     1     -10.246   5.441  69.494  1.00  0.00    -0.266 C  
BRANCH   6   7
HETATM    7  N   UNL     1      -9.253   6.217  68.741  1.00  0.00    -0.126 NA 
HETATM    8  C   UNL     1      -9.429   6.207  67.281  1.00  0.00    -0.114 C  
HETATM    9  C   UNL     1     -10.650   6.993  66.801  1.00  0.00    -0.297 C  
HETATM   10  C   UNL     1     -10.627   8.436  67.315  1.00  0.00    -0.257 C  
HETATM   11  C   UNL     1     -10.436   8.435  68.835  1.00  0.00    -0.208 C  
HETATM   12  C   UNL     1      -9.202   7.612  69.223  1.00  0.00    -0.145 C  
BRANCH  10  13
HETATM   13  O   UNL     1      -9.554   9.230  66.790  1.00  0.00    -0.158 OA 
BRANCH  13  14
HETATM   14  C   UNL     1      -9.565   9.506  65.378  1.00  0.00    -0.272 C  
BRANCH  14  15
HETATM   15  C   UNL     1     -10.400  10.743  65.072  1.00  0.00    -0.357 A  
HETATM   16  C   UNL     1     -10.884  11.533  66.130  1.00  0.00    -0.330 A  
HETATM   17  C   UNL     1     -11.495  12.762  65.876  1.00  0.00    -0.399 A  
HETATM   18  C   UNL     1     -10.602  11.181  63.753  1.00  0.00    -0.422 A  
HETATM   19  C   UNL     1     -11.217  12.409  63.499  1.00  0.00    -0.540 A  
HETATM   20 CL   UNL     1     -12.313  14.757  64.254  1.00  0.00    -0.472 Cl 
HETATM   21  C   UNL     1     -11.641  13.203  64.562  1.00  0.00    -0.364 A  
ENDBRANCH  14  15
BRANCH  14  22
HETATM   22  C   UNL     1      -8.124   9.596  64.876  1.00  0.00    -0.133 A  
HETATM   23  C   UNL     1      -6.537   8.957  63.309  1.00  0.00    -0.090 A  
HETATM   24  C   UNL     1      -5.854  10.369  65.098  1.00  0.00    -0.135 A  
HETATM   25  C   UNL     1      -7.162  10.334  65.572  1.00  0.00    -0.149 A  
HETATM   26  N   UNL     1      -7.817   8.909  63.742  1.00  0.00    -0.130 NA 
HETATM   27  C   UNL     1      -5.532   9.665  63.945  1.00  0.00    -0.075 A  
ENDBRANCH  14  22
ENDBRANCH  13  14
ENDBRANCH  10  13
ENDBRANCH   6   7
ENDBRANCH   5   6
ENDBRANCH   4   5
TORSDOF 7
ENDMDL
MODEL       95
REMARK 921   NORMALIZED FREE ENERGY PREDICTED BY IDOCK:   -4.55 KCAL/MOL
REMARK 922        TOTAL FREE ENERGY PREDICTED BY IDOCK:   -7.87 KCAL/MOL
REMARK 923 INTER-LIGAND FREE ENERGY PREDICTED BY IDOCK:   -6.72 KCAL/MOL
REMARK 924 INTRA-LIGAND FREE ENERGY PREDICTED BY IDOCK:   -1.16 KCAL/MOL
REMARK 927      BINDING AFFINITY PREDICTED BY RF-SCORE:    0.00 PKD
ROOT
HETATM    1  O   UNL     1     -14.218   9.217  72.707  1.00  0.00    -0.552 OA 
HETATM    2  C   UNL     1     -13.679   8.234  71.949  1.00  0.00    -0.369 C  
HETATM    3  O   UNL     1     -14.320   7.633  71.103  1.00  0.00    -0.352 OA 
HETATM    4  C   UNL     1     -12.227   8.000  72.278  1.00  0.00    -0.366 C  
ENDROOT
BRANCH   4   5
HETATM    5  C   UNL     1     -11.597   6.905  71.416  1.00  0.00    -0.340 C  
BRANCH   5   6
HETATM    6  C   UNL     1     -10.604   7.532  70.431  1.00  0.00    -0.229 C  
BRANCH   6   7
HETATM    7  N   UNL     1     -10.383   8.974  70.593  1.00  0.00    -0.212 NA 
HETATM    8  C   UNL     1      -8.976   9.400  70.551  1.00  0.00    -0.253 C  
HETATM    9  C   UNL     1      -8.340   9.290  69.164  1.00  0.00    -0.127 C  
HETATM   10  C   UNL     1      -9.150  10.057  68.113  1.00  0.00    -0.121 C  
HETATM   11  C   UNL     1     -10.614   9.612  68.171  1.00  0.00    -0.273 C  
HETATM   12  C   UNL     1     -11.161   9.739  69.598  1.00  0.00    -0.178 C  
BRANCH  10  13
HETATM   13  O   UNL     1      -9.168  11.478  68.305  1.00  0.00    -0.174 OA 
BRANCH  13  14
HETATM   14  C   UNL     1      -8.731  12.299  67.209  1.00  0.00    -0.188 C  
BRANCH  14  15
HETATM   15  C   UNL     1      -9.810  12.395  66.138  1.00  0.00    -0.263 A  
HETATM   16  C   UNL     1      -9.680  11.652  64.952  1.00  0.00    -0.232 A  
HETATM   17  C   UNL     1     -10.732  11.583  64.038  1.00  0.00    -0.445 A  
HETATM   18  C   UNL     1     -10.993  13.121  66.355  1.00  0.00    -0.305 A  
HETATM   19  C   UNL     1     -12.045  13.055  65.438  1.00  0.00    -0.490 A  
HETATM   20 CL   UNL     1     -13.247  12.112  63.214  1.00  0.00    -0.019 Cl 
HETATM   21  C   UNL     1     -11.917  12.269  64.295  1.00  0.00    -0.407 A  
ENDBRANCH  14  15
BRANCH  14  22
HETATM   22  C   UNL     1      -8.278  13.655  67.750  1.00  0.00    -0.179 A  
HETATM   23  C   UNL     1      -6.843  15.469  67.576  1.00  0.00    -0.195 A  
HETATM   24  C   UNL     1      -8.401  15.430  69.373  1.00  0.00    -0.250 A  
HETATM   25  C   UNL     1      -8.860  14.206  68.895  1.00  0.00     0.021 A  
HETATM   26  N   UNL     1      -7.272  14.286  67.085  1.00  0.00    -0.061 NA 
HETATM   27  C   UNL     1      -7.370  16.076  68.703  1.00  0.00    -0.159 A  
ENDBRANCH  14  22
ENDBRANCH  13  14
ENDBRANCH  10  13
ENDBRANCH   6   7
ENDBRANCH   5   6
ENDBRANCH   4   5
TORSDOF 7
ENDMDL
MODEL       96
REMARK 921   NORMALIZED FREE ENERGY PREDICTED BY IDOCK:   -4.55 KCAL/MOL
REMARK 922        TOTAL FREE ENERGY PREDICTED BY IDOCK:   -7.87 KCAL/MOL
REMARK 923 INTER-LIGAND FREE ENERGY PREDICTED BY IDOCK:   -7.57 KCAL/MOL
REMARK 924 INTRA-LIGAND FREE ENERGY PREDICTED BY IDOCK:   -0.30 KCAL/MOL
REMARK 927      BINDING AFFINITY PREDICTED BY RF-SCORE:    0.00 PKD
ROOT
HETATM    1  O   UNL     1      -8.744   3.388  68.471  1.00  0.00    -0.087 OA 
HETATM    2  C   UNL     1      -9.603   4.368  68.104  1.00  0.00    -0.142 C  
HETATM    3  O   UNL     1      -9.931   4.550  66.944  1.00  0.00    -0.208 OA 
HETATM    4  C   UNL     1     -10.086   5.167  69.288  1.00  0.00    -0.283 C  
ENDROOT
BRANCH   4   5
HETATM    5  C   UNL     1     -11.073   6.266  68.892  1.00  0.00    -0.434 C  
BRANCH   5   6
HETATM    6  C   UNL     1     -11.219   7.267  70.044  1.00  0.00    -0.209 C  
BRANCH   6   7
HETATM    7  N   UNL     1     -10.165   8.285  70.131  1.00  0.00    -0.196 NA 
HETATM    8  C   UNL     1      -9.670   8.783  68.838  1.00  0.00    -0.172 C  
HETATM    9  C   UNL     1     -10.679   9.652  68.086  1.00  0.00    -0.266 C  
HETATM   10  C   UNL     1     -11.163  10.824  68.947  1.00  0.00    -0.268 C  
HETATM   11  C   UNL     1     -11.669  10.295  70.292  1.00  0.00    -0.388 C  
HETATM   12  C   UNL     1     -10.602   9.423  70.965  1.00  0.00    -0.330 C  
BRANCH  10  13
HETATM   13  O   UNL     1     -10.144  11.782  69.264  1.00  0.00     0.034 OA 
BRANCH  13  14
HETATM   14  C   UNL     1     -10.225  13.069  68.629  1.00  0.00    -0.164 C  
BRANCH  14  15
HETATM   15  C   UNL     1     -10.794  12.944  67.221  1.00  0.00    -0.277 A  
HETATM   16  C   UNL     1     -12.084  13.432  66.946  1.00  0.00    -0.406 A  
HETATM   17  C   UNL     1     -12.556  13.492  65.634  1.00  0.00    -0.512 A  
HETATM   18  C   UNL     1     -10.015  12.457  66.158  1.00  0.00    -0.267 A  
HETATM   19  C   UNL     1     -10.489  12.515  64.845  1.00  0.00    -0.328 A  
HETATM   20 CL   UNL     1     -12.295  13.209  62.964  1.00  0.00    -0.276 Cl 
HETATM   21  C   UNL     1     -11.748  13.051  64.588  1.00  0.00    -0.361 A  
ENDBRANCH  14  15
BRANCH  14  22
HETATM   22  C   UNL     1     -11.014  14.021  69.528  1.00  0.00    -0.095 A  
HETATM   23  C   UNL     1     -11.195  16.119  70.500  1.00  0.00    -0.363 A  
HETATM   24  C   UNL     1     -12.848  14.489  71.016  1.00  0.00    -0.418 A  
HETATM   25  C   UNL     1     -12.175  13.600  70.183  1.00  0.00    -0.413 A  
HETATM   26  N   UNL     1     -10.523  15.281  69.681  1.00  0.00    -0.259 NA 
HETATM   27  C   UNL     1     -12.350  15.774  71.182  1.00  0.00    -0.480 A  
ENDBRANCH  14  22
ENDBRANCH  13  14
ENDBRANCH  10  13
ENDBRANCH   6   7
ENDBRANCH   5   6
ENDBRANCH   4   5
TORSDOF 7
ENDMDL
MODEL       97
REMARK 921   NORMALIZED FREE ENERGY PREDICTED BY IDOCK:   -4.51 KCAL/MOL
REMARK 922        TOTAL FREE ENERGY PREDICTED BY IDOCK:   -7.82 KCAL/MOL
REMARK 923 INTER-LIGAND FREE ENERGY PREDICTED BY IDOCK:   -6.54 KCAL/MOL
REMARK 924 INTRA-LIGAND FREE ENERGY PREDICTED BY IDOCK:   -1.28 KCAL/MOL
REMARK 927      BINDING AFFINITY PREDICTED BY RF-SCORE:    0.00 PKD
ROOT
HETATM    1  O   UNL     1      -6.219   8.127  63.175  1.00  0.00    -0.075 OA 
HETATM    2  C   UNL     1      -6.450   6.939  63.782  1.00  0.00    -0.043 C  
HETATM    3  O   UNL     1      -6.491   5.886  63.166  1.00  0.00    -0.027 OA 
HETATM    4  C   UNL     1      -6.634   7.092  65.270  1.00  0.00    -0.047 C  
ENDROOT
BRANCH   4   5
HETATM    5  C   UNL     1      -6.877   5.755  65.974  1.00  0.00    -0.058 C  
BRANCH   5   6
HETATM    6  C   UNL     1      -8.383   5.523  66.133  1.00  0.00    -0.119 C  
BRANCH   6   7
HETATM    7  N   UNL     1      -8.851   5.350  67.513  1.00  0.00    -0.106 NA 
HETATM    8  C   UNL     1      -8.380   6.367  68.465  1.00  0.00    -0.113 C  
HETATM    9  C   UNL     1      -9.005   7.747  68.251  1.00  0.00    -0.131 C  
HETATM   10  C   UNL     1     -10.535   7.680  68.272  1.00  0.00    -0.174 C  
HETATM   11  C   UNL     1     -11.014   6.613  67.284  1.00  0.00    -0.456 C  
HETATM   12  C   UNL     1     -10.325   5.271  67.562  1.00  0.00    -0.162 C  
BRANCH  10  13
HETATM   13  O   UNL     1     -11.091   7.311  69.542  1.00  0.00    -0.204 OA 
BRANCH  13  14
HETATM   14  C   UNL     1     -10.677   8.071  70.691  1.00  0.00    -0.228 C  
BRANCH  14  15
HETATM   15  C   UNL     1     -11.556   9.302  70.872  1.00  0.00    -0.364 A  
HETATM   16  C   UNL     1     -12.660   9.245  71.741  1.00  0.00    -0.461 A  
HETATM   17  C   UNL     1     -13.372  10.403  72.062  1.00  0.00    -0.440 A  
HETATM   18  C   UNL     1     -11.224  10.532  70.281  1.00  0.00    -0.391 A  
HETATM   19  C   UNL     1     -11.938  11.689  70.599  1.00  0.00    -0.356 A  
HETATM   20 CL   UNL     1     -13.815  13.062  71.969  1.00  0.00    -0.416 Cl 
HETATM   21  C   UNL     1     -12.995  11.623  71.504  1.00  0.00    -0.358 A  
ENDBRANCH  14  15
BRANCH  14  22
HETATM   22  C   UNL     1     -10.646   7.152  71.912  1.00  0.00    -0.213 A  
HETATM   23  C   UNL     1      -9.912   6.778  74.080  1.00  0.00    -0.342 A  
HETATM   24  C   UNL     1     -11.185   5.078  73.010  1.00  0.00    -0.383 A  
HETATM   25  C   UNL     1     -11.261   5.897  71.888  1.00  0.00    -0.323 A  
HETATM   26  N   UNL     1      -9.973   7.598  73.008  1.00  0.00    -0.257 NA 
HETATM   27  C   UNL     1     -10.496   5.524  74.130  1.00  0.00    -0.297 A  
ENDBRANCH  14  22
ENDBRANCH  13  14
ENDBRANCH  10  13
ENDBRANCH   6   7
ENDBRANCH   5   6
ENDBRANCH   4   5
TORSDOF 7
ENDMDL
MODEL       98
REMARK 921   NORMALIZED FREE ENERGY PREDICTED BY IDOCK:   -4.51 KCAL/MOL
REMARK 922        TOTAL FREE ENERGY PREDICTED BY IDOCK:   -7.82 KCAL/MOL
REMARK 923 INTER-LIGAND FREE ENERGY PREDICTED BY IDOCK:   -7.37 KCAL/MOL
REMARK 924 INTRA-LIGAND FREE ENERGY PREDICTED BY IDOCK:   -0.44 KCAL/MOL
REMARK 927      BINDING AFFINITY PREDICTED BY RF-SCORE:    0.00 PKD
ROOT
HETATM    1  O   UNL     1      -7.284   6.014  65.326  1.00  0.00    -0.066 OA 
HETATM    2  C   UNL     1      -7.299   7.223  64.717  1.00  0.00    -0.081 C  
HETATM    3  O   UNL     1      -7.550   7.355  63.531  1.00  0.00    -0.107 OA 
HETATM    4  C   UNL     1      -6.983   8.342  65.676  1.00  0.00    -0.067 C  
ENDROOT
BRANCH   4   5
HETATM    5  C   UNL     1      -7.015   9.718  65.007  1.00  0.00    -0.119 C  
BRANCH   5   6
HETATM    6  C   UNL     1      -8.142  10.560  65.616  1.00  0.00    -0.161 C  
BRANCH   6   7
HETATM    7  N   UNL     1      -8.831   9.954  66.761  1.00  0.00    -0.134 NA 
HETATM    8  C   UNL     1      -8.719  10.701  68.024  1.00  0.00    -0.126 C  
HETATM    9  C   UNL     1      -9.503  12.014  68.035  1.00  0.00    -0.199 C  
HETATM   10  C   UNL     1     -10.978  11.791  67.689  1.00  0.00    -0.233 C  
HETATM   11  C   UNL     1     -11.084  11.006  66.378  1.00  0.00    -0.137 C  
HETATM   12  C   UNL     1     -10.256   9.718  66.452  1.00  0.00    -0.217 C  
BRANCH  10  13
HETATM   13  O   UNL     1     -11.700  11.021  68.661  1.00  0.00    -0.316 OA 
BRANCH  13  14
HETATM   14  C   UNL     1     -11.414  11.271  70.048  1.00  0.00    -0.275 C  
BRANCH  14  15
HETATM   15  C   UNL     1     -12.264  12.419  70.579  1.00  0.00    -0.382 A  
HETATM   16  C   UNL     1     -13.100  12.208  71.689  1.00  0.00    -0.413 A  
HETATM   17  C   UNL     1     -13.750  13.280  72.303  1.00  0.00    -0.686 A  
HETATM   18  C   UNL     1     -12.146  13.718  70.059  1.00  0.00    -0.416 A  
HETATM   19  C   UNL     1     -12.798  14.791  70.672  1.00  0.00    -0.398 A  
HETATM   20 CL   UNL     1     -14.306  15.902  72.614  1.00  0.00    -0.374 Cl 
HETATM   21  C   UNL     1     -13.579  14.570  71.803  1.00  0.00    -0.391 A  
ENDBRANCH  14  15
BRANCH  14  22
HETATM   22  C   UNL     1     -11.578   9.971  70.833  1.00  0.00    -0.378 A  
HETATM   23  C   UNL     1     -12.999   8.352  71.696  1.00  0.00    -0.334 A  
HETATM   24  C   UNL     1     -10.669   8.160  72.135  1.00  0.00    -0.360 A  
HETATM   25  C   UNL     1     -10.475   9.327  71.403  1.00  0.00    -0.408 A  
HETATM   26  N   UNL     1     -12.842   9.484  70.975  1.00  0.00    -0.266 NA 
HETATM   27  C   UNL     1     -11.956   7.661  72.288  1.00  0.00    -0.329 A  
ENDBRANCH  14  22
ENDBRANCH  13  14
ENDBRANCH  10  13
ENDBRANCH   6   7
ENDBRANCH   5   6
ENDBRANCH   4   5
TORSDOF 7
ENDMDL
MODEL       99
REMARK 921   NORMALIZED FREE ENERGY PREDICTED BY IDOCK:   -4.51 KCAL/MOL
REMARK 922        TOTAL FREE ENERGY PREDICTED BY IDOCK:   -7.81 KCAL/MOL
REMARK 923 INTER-LIGAND FREE ENERGY PREDICTED BY IDOCK:   -7.41 KCAL/MOL
REMARK 924 INTRA-LIGAND FREE ENERGY PREDICTED BY IDOCK:   -0.41 KCAL/MOL
REMARK 927      BINDING AFFINITY PREDICTED BY RF-SCORE:    0.00 PKD
ROOT
HETATM    1  O   UNL     1     -11.039   4.517  73.894  1.00  0.00    -0.274 OA 
HETATM    2  C   UNL     1     -10.625   4.721  72.621  1.00  0.00    -0.211 C  
HETATM    3  O   UNL     1      -9.746   4.052  72.103  1.00  0.00    -0.141 OA 
HETATM    4  C   UNL     1     -11.382   5.842  71.955  1.00  0.00    -0.307 C  
ENDROOT
BRANCH   4   5
HETATM    5  C   UNL     1     -10.940   6.072  70.508  1.00  0.00    -0.388 C  
BRANCH   5   6
HETATM    6  C   UNL     1     -11.359   7.476  70.059  1.00  0.00    -0.096 C  
BRANCH   6   7
HETATM    7  N   UNL     1     -10.393   8.543  70.344  1.00  0.00    -0.198 NA 
HETATM    8  C   UNL     1      -9.559   8.951  69.204  1.00  0.00    -0.162 C  
HETATM    9  C   UNL     1     -10.326   9.709  68.119  1.00  0.00    -0.250 C  
HETATM   10  C   UNL     1     -11.057  10.927  68.695  1.00  0.00    -0.252 C  
HETATM   11  C   UNL     1     -11.916  10.491  69.886  1.00  0.00    -0.339 C  
HETATM   12  C   UNL     1     -11.070   9.727  70.911  1.00  0.00    -0.357 C  
BRANCH  10  13
HETATM   13  O   UNL     1     -10.189  11.952  69.197  1.00  0.00    -0.055 OA 
BRANCH  13  14
HETATM   14  C   UNL     1     -10.296  13.258  68.604  1.00  0.00    -0.196 C  
BRANCH  14  15
HETATM   15  C   UNL     1     -10.887  13.171  67.202  1.00  0.00    -0.271 A  
HETATM   16  C   UNL     1     -12.210  13.590  66.979  1.00  0.00    -0.351 A  
HETATM   17  C   UNL     1     -12.715  13.689  65.682  1.00  0.00    -0.505 A  
HETATM   18  C   UNL     1     -10.104  12.790  66.100  1.00  0.00    -0.274 A  
HETATM   19  C   UNL     1     -10.610  12.885  64.802  1.00  0.00    -0.362 A  
HETATM   20 CL   UNL     1     -12.497  13.562  62.996  1.00  0.00    -0.015 Cl 
HETATM   21  C   UNL     1     -11.905  13.354  64.598  1.00  0.00    -0.391 A  
ENDBRANCH  14  15
BRANCH  14  22
HETATM   22  C   UNL     1     -11.079  14.171  69.546  1.00  0.00    -0.178 A  
HETATM   23  C   UNL     1     -12.945  14.487  70.888  1.00  0.00    -0.361 A  
HETATM   24  C   UNL     1     -11.399  16.280  70.663  1.00  0.00    -0.321 A  
HETATM   25  C   UNL     1     -10.642  15.470  69.823  1.00  0.00    -0.301 A  
HETATM   26  N   UNL     1     -12.229  13.674  70.080  1.00  0.00    -0.345 NA 
HETATM   27  C   UNL     1     -12.576  15.782  71.207  1.00  0.00    -0.504 A  
ENDBRANCH  14  22
ENDBRANCH  13  14
ENDBRANCH  10  13
ENDBRANCH   6   7
ENDBRANCH   5   6
ENDBRANCH   4   5
TORSDOF 7
ENDMDL
MODEL      100
REMARK 921   NORMALIZED FREE ENERGY PREDICTED BY IDOCK:   -4.49 KCAL/MOL
REMARK 922        TOTAL FREE ENERGY PREDICTED BY IDOCK:   -7.79 KCAL/MOL
REMARK 923 INTER-LIGAND FREE ENERGY PREDICTED BY IDOCK:   -7.80 KCAL/MOL
REMARK 924 INTRA-LIGAND FREE ENERGY PREDICTED BY IDOCK:    0.01 KCAL/MOL
REMARK 927      BINDING AFFINITY PREDICTED BY RF-SCORE:    0.00 PKD
ROOT
HETATM    1  O   UNL     1     -10.112   4.481  68.439  1.00  0.00    -0.081 OA 
HETATM    2  C   UNL     1     -10.428   5.740  68.825  1.00  0.00    -0.242 C  
HETATM    3  O   UNL     1     -11.421   6.319  68.417  1.00  0.00    -0.201 OA 
HETATM    4  C   UNL     1      -9.424   6.300  69.800  1.00  0.00    -0.163 C  
ENDROOT
BRANCH   4   5
HETATM    5  C   UNL     1      -9.779   7.715  70.261  1.00  0.00    -0.179 C  
BRANCH   5   6
HETATM    6  C   UNL     1      -9.081   8.740  69.360  1.00  0.00    -0.145 C  
BRANCH   6   7
HETATM    7  N   UNL     1      -9.321  10.146  69.704  1.00  0.00    -0.214 NA 
HETATM    8  C   UNL     1      -8.586  11.123  68.886  1.00  0.00    -0.087 C  
HETATM    9  C   UNL     1      -9.085  11.218  67.443  1.00  0.00    -0.151 C  
HETATM   10  C   UNL     1     -10.587  11.514  67.386  1.00  0.00    -0.214 C  
HETATM   11  C   UNL     1     -11.341  10.496  68.247  1.00  0.00    -0.332 C  
HETATM   12  C   UNL     1     -10.764  10.457  69.667  1.00  0.00    -0.265 C  
BRANCH  10  13
HETATM   13  O   UNL     1     -10.953  12.803  67.899  1.00  0.00    -0.220 OA 
BRANCH  13  14
HETATM   14  C   UNL     1     -11.681  13.680  67.022  1.00  0.00    -0.384 C  
BRANCH  14  15
HETATM   15  C   UNL     1     -11.134  15.099  67.097  1.00  0.00    -0.335 A  
HETATM   16  C   UNL     1     -10.703  15.741  65.923  1.00  0.00    -0.320 A  
HETATM   17  C   UNL     1     -10.367  17.095  65.936  1.00  0.00    -0.294 A  
HETATM   18  C   UNL     1     -11.158  15.830  68.297  1.00  0.00    -0.342 A  
HETATM   19  C   UNL     1     -10.818  17.185  68.310  1.00  0.00    -0.314 A  
HETATM   20 CL   UNL     1     -10.118  19.505  67.124  1.00  0.00    -0.477 Cl 
HETATM   21  C   UNL     1     -10.445  17.816  67.126  1.00  0.00    -0.335 A  
ENDBRANCH  14  15
BRANCH  14  22
HETATM   22  C   UNL     1     -11.676  13.092  65.611  1.00  0.00    -0.364 A  
HETATM   23  C   UNL     1     -12.873  12.146  63.864  1.00  0.00    -0.306 A  
HETATM   24  C   UNL     1     -10.518  12.381  63.623  1.00  0.00    -0.460 A  
HETATM   25  C   UNL     1     -10.485  12.946  64.894  1.00  0.00    -0.351 A  
HETATM   26  N   UNL     1     -12.873  12.697  65.098  1.00  0.00    -0.743 NA 
HETATM   27  C   UNL     1     -11.735  11.969  63.095  1.00  0.00    -0.276 A  
ENDBRANCH  14  22
ENDBRANCH  13  14
ENDBRANCH  10  13
ENDBRANCH   6   7
ENDBRANCH   5   6
ENDBRANCH   4   5
TORSDOF 7
ENDMDL
MODEL      101
REMARK 921   NORMALIZED FREE ENERGY PREDICTED BY IDOCK:   -4.49 KCAL/MOL
REMARK 922        TOTAL FREE ENERGY PREDICTED BY IDOCK:   -7.79 KCAL/MOL
REMARK 923 INTER-LIGAND FREE ENERGY PREDICTED BY IDOCK:   -7.75 KCAL/MOL
REMARK 924 INTRA-LIGAND FREE ENERGY PREDICTED BY IDOCK:   -0.04 KCAL/MOL
REMARK 927      BINDING AFFINITY PREDICTED BY RF-SCORE:    0.00 PKD
ROOT
HETATM    1  O   UNL     1     -12.686  14.197  63.242  1.00  0.00    -0.714 OA 
HETATM    2  C   UNL     1     -12.180  13.445  64.247  1.00  0.00    -0.392 C  
HETATM    3  O   UNL     1     -12.818  12.554  64.783  1.00  0.00    -0.755 OA 
HETATM    4  C   UNL     1     -10.767  13.841  64.591  1.00  0.00    -0.427 C  
ENDROOT
BRANCH   4   5
HETATM    5  C   UNL     1     -10.173  12.987  65.713  1.00  0.00    -0.297 C  
BRANCH   5   6
HETATM    6  C   UNL     1     -10.192  13.776  67.026  1.00  0.00    -0.254 C  
BRANCH   6   7
HETATM    7  N   UNL     1     -10.175  12.964  68.249  1.00  0.00    -0.241 NA 
HETATM    8  C   UNL     1     -11.342  12.089  68.435  1.00  0.00    -0.279 C  
HETATM    9  C   UNL     1     -11.392  10.914  67.457  1.00  0.00    -0.309 C  
HETATM   10  C   UNL     1     -10.105  10.085  67.508  1.00  0.00    -0.198 C  
HETATM   11  C   UNL     1      -8.895  11.007  67.322  1.00  0.00    -0.135 C  
HETATM   12  C   UNL     1      -8.937  12.162  68.329  1.00  0.00    -0.186 C  
BRANCH  10  13
HETATM   13  O   UNL     1      -9.888   9.409  68.754  1.00  0.00    -0.156 OA 
BRANCH  13  14
HETATM   14  C   UNL     1     -10.626   8.196  68.985  1.00  0.00    -0.151 C  
BRANCH  14  15
HETATM   15  C   UNL     1     -10.081   7.058  68.132  1.00  0.00    -0.193 A  
HETATM   16  C   UNL     1     -10.950   6.344  67.289  1.00  0.00    -0.474 A  
HETATM   17  C   UNL     1     -10.448   5.421  66.369  1.00  0.00    -0.324 A  
HETATM   18  C   UNL     1      -8.705   6.778  68.079  1.00  0.00    -0.118 A  
HETATM   19  C   UNL     1      -8.204   5.852  67.161  1.00  0.00    -0.105 A  
HETATM   20 CL   UNL     1      -8.450   4.124  65.103  1.00  0.00    -0.112 Cl 
HETATM   21  C   UNL     1      -9.075   5.194  66.297  1.00  0.00    -0.136 A  
ENDBRANCH  14  15
BRANCH  14  22
HETATM   22  C   UNL     1     -10.633   7.894  70.483  1.00  0.00    -0.223 A  
HETATM   23  C   UNL     1     -11.711   6.928  72.295  1.00  0.00    -0.257 A  
HETATM   24  C   UNL     1      -9.673   8.091  72.683  1.00  0.00    -0.332 A  
HETATM   25  C   UNL     1      -9.616   8.363  71.320  1.00  0.00    -0.239 A  
HETATM   26  N   UNL     1     -11.681   7.172  70.967  1.00  0.00    -0.305 NA 
HETATM   27  C   UNL     1     -10.742   7.360  73.184  1.00  0.00    -0.436 A  
ENDBRANCH  14  22
ENDBRANCH  13  14
ENDBRANCH  10  13
ENDBRANCH   6   7
ENDBRANCH   5   6
ENDBRANCH   4   5
TORSDOF 7
ENDMDL
MODEL      102
REMARK 921   NORMALIZED FREE ENERGY PREDICTED BY IDOCK:   -4.47 KCAL/MOL
REMARK 922        TOTAL FREE ENERGY PREDICTED BY IDOCK:   -7.75 KCAL/MOL
REMARK 923 INTER-LIGAND FREE ENERGY PREDICTED BY IDOCK:   -6.36 KCAL/MOL
REMARK 924 INTRA-LIGAND FREE ENERGY PREDICTED BY IDOCK:   -1.40 KCAL/MOL
REMARK 927      BINDING AFFINITY PREDICTED BY RF-SCORE:    0.00 PKD
ROOT
HETATM    1  O   UNL     1      -9.039   3.529  70.909  1.00  0.00    -0.092 OA 
HETATM    2  C   UNL     1      -9.684   4.366  70.063  1.00  0.00    -0.216 C  
HETATM    3  O   UNL     1      -9.553   4.302  68.852  1.00  0.00    -0.160 OA 
HETATM    4  C   UNL     1     -10.562   5.346  70.800  1.00  0.00    -0.293 C  
ENDROOT
BRANCH   4   5
HETATM    5  C   UNL     1     -11.314   6.287  69.856  1.00  0.00    -0.504 C  
BRANCH   5   6
HETATM    6  C   UNL     1     -11.473   7.660  70.518  1.00  0.00    -0.218 C  
BRANCH   6   7
HETATM    7  N   UNL     1     -10.396   8.619  70.245  1.00  0.00    -0.193 NA 
HETATM    8  C   UNL     1     -10.015   8.744  68.830  1.00  0.00    -0.185 C  
HETATM    9  C   UNL     1     -11.072   9.434  67.966  1.00  0.00    -0.004 C  
HETATM   10  C   UNL     1     -11.449  10.807  68.529  1.00  0.00    -0.292 C  
HETATM   11  C   UNL     1     -11.837  10.666  70.005  1.00  0.00    -0.403 C  
HETATM   12  C   UNL     1     -10.729   9.951  70.787  1.00  0.00    -0.280 C  
BRANCH  10  13
HETATM   13  O   UNL     1     -10.386  11.769  68.498  1.00  0.00    -0.207 OA 
BRANCH  13  14
HETATM   14  C   UNL     1      -9.989  12.273  67.210  1.00  0.00    -0.204 C  
BRANCH  14  15
HETATM   15  C   UNL     1     -10.287  13.763  67.095  1.00  0.00    -0.261 A  
HETATM   16  C   UNL     1     -10.678  14.484  68.237  1.00  0.00    -0.243 A  
HETATM   17  C   UNL     1     -10.784  15.875  68.198  1.00  0.00    -0.302 A  
HETATM   18  C   UNL     1     -10.070  14.462  65.896  1.00  0.00    -0.344 A  
HETATM   19  C   UNL     1     -10.179  15.854  65.856  1.00  0.00    -0.373 A  
HETATM   20 CL   UNL     1     -10.556  18.275  66.986  1.00  0.00    -0.398 Cl 
HETATM   21  C   UNL     1     -10.514  16.555  67.012  1.00  0.00    -0.289 A  
ENDBRANCH  14  15
BRANCH  14  22
HETATM   22  C   UNL     1      -8.522  11.920  66.967  1.00  0.00    -0.177 A  
HETATM   23  C   UNL     1      -6.970  10.586  65.873  1.00  0.00    -0.131 A  
HETATM   24  C   UNL     1      -6.175  12.201  67.428  1.00  0.00    -0.142 A  
HETATM   25  C   UNL     1      -7.497  12.572  67.658  1.00  0.00    -0.139 A  
HETATM   26  N   UNL     1      -8.263  10.928  66.070  1.00  0.00    -0.164 NA 
HETATM   27  C   UNL     1      -5.904  11.186  66.520  1.00  0.00    -0.143 A  
ENDBRANCH  14  22
ENDBRANCH  13  14
ENDBRANCH  10  13
ENDBRANCH   6   7
ENDBRANCH   5   6
ENDBRANCH   4   5
TORSDOF 7
ENDMDL
MODEL      103
REMARK 921   NORMALIZED FREE ENERGY PREDICTED BY IDOCK:   -4.47 KCAL/MOL
REMARK 922        TOTAL FREE ENERGY PREDICTED BY IDOCK:   -7.75 KCAL/MOL
REMARK 923 INTER-LIGAND FREE ENERGY PREDICTED BY IDOCK:   -7.00 KCAL/MOL
REMARK 924 INTRA-LIGAND FREE ENERGY PREDICTED BY IDOCK:   -0.75 KCAL/MOL
REMARK 927      BINDING AFFINITY PREDICTED BY RF-SCORE:    0.00 PKD
ROOT
HETATM    1  O   UNL     1      -5.527   4.846  70.794  1.00  0.00    -0.007 OA 
HETATM    2  C   UNL     1      -5.831   6.146  70.571  1.00  0.00    -0.018 C  
HETATM    3  O   UNL     1      -5.823   6.982  71.459  1.00  0.00    -0.036 OA 
HETATM    4  C   UNL     1      -6.161   6.407  69.123  1.00  0.00    -0.029 C  
ENDROOT
BRANCH   4   5
HETATM    5  C   UNL     1      -6.488   7.876  68.850  1.00  0.00    -0.048 C  
BRANCH   5   6
HETATM    6  C   UNL     1      -8.006   8.082  68.896  1.00  0.00    -0.118 C  
BRANCH   6   7
HETATM    7  N   UNL     1      -8.455   9.302  69.579  1.00  0.00    -0.135 NA 
HETATM    8  C   UNL     1      -7.586  10.474  69.399  1.00  0.00    -0.145 C  
HETATM    9  C   UNL     1      -7.620  11.056  67.985  1.00  0.00    -0.092 C  
HETATM   10  C   UNL     1      -9.049  11.393  67.550  1.00  0.00    -0.157 C  
HETATM   11  C   UNL     1      -9.947  10.168  67.748  1.00  0.00    -0.198 C  
HETATM   12  C   UNL     1      -9.837   9.645  69.185  1.00  0.00    -0.186 C  
BRANCH  10  13
HETATM   13  O   UNL     1      -9.661  12.448  68.304  1.00  0.00    -0.212 OA 
BRANCH  13  14
HETATM   14  C   UNL     1     -11.084  12.615  68.174  1.00  0.00    -0.249 C  
BRANCH  14  15
HETATM   15  C   UNL     1     -11.655  13.355  69.377  1.00  0.00    -0.365 A  
HETATM   16  C   UNL     1     -11.788  14.754  69.333  1.00  0.00    -0.360 A  
HETATM   17  C   UNL     1     -12.469  15.435  70.344  1.00  0.00    -0.447 A  
HETATM   18  C   UNL     1     -12.164  12.662  70.488  1.00  0.00    -0.383 A  
HETATM   19  C   UNL     1     -12.843  13.344  71.500  1.00  0.00    -0.427 A  
HETATM   20 CL   UNL     1     -13.928  15.551  72.610  1.00  0.00    -0.635 Cl 
HETATM   21  C   UNL     1     -13.011  14.724  71.412  1.00  0.00    -0.342 A  
ENDBRANCH  14  15
BRANCH  14  22
HETATM   22  C   UNL     1     -11.387  13.289  66.837  1.00  0.00    -0.318 A  
HETATM   23  C   UNL     1     -12.659  13.340  64.898  1.00  0.00    -0.384 A  
HETATM   24  C   UNL     1     -10.919  14.942  65.149  1.00  0.00    -0.410 A  
HETATM   25  C   UNL     1     -10.630  14.374  66.386  1.00  0.00    -0.297 A  
HETATM   26  N   UNL     1     -12.406  12.771  66.097  1.00  0.00    -0.531 NA 
HETATM   27  C   UNL     1     -11.953  14.415  64.386  1.00  0.00    -0.471 A  
ENDBRANCH  14  22
ENDBRANCH  13  14
ENDBRANCH  10  13
ENDBRANCH   6   7
ENDBRANCH   5   6
ENDBRANCH   4   5
TORSDOF 7
ENDMDL
MODEL      104
REMARK 921   NORMALIZED FREE ENERGY PREDICTED BY IDOCK:   -4.45 KCAL/MOL
REMARK 922        TOTAL FREE ENERGY PREDICTED BY IDOCK:   -7.73 KCAL/MOL
REMARK 923 INTER-LIGAND FREE ENERGY PREDICTED BY IDOCK:   -7.18 KCAL/MOL
REMARK 924 INTRA-LIGAND FREE ENERGY PREDICTED BY IDOCK:   -0.55 KCAL/MOL
REMARK 927      BINDING AFFINITY PREDICTED BY RF-SCORE:    0.00 PKD
ROOT
HETATM    1  O   UNL     1      -8.418  20.004  66.173  1.00  0.00    -0.340 OA 
HETATM    2  C   UNL     1      -8.755  18.760  66.588  1.00  0.00    -0.303 C  
HETATM    3  O   UNL     1      -8.036  18.094  67.314  1.00  0.00    -0.216 OA 
HETATM    4  C   UNL     1     -10.100  18.333  66.056  1.00  0.00    -0.278 C  
ENDROOT
BRANCH   4   5
HETATM    5  C   UNL     1     -10.505  16.937  66.532  1.00  0.00    -0.253 C  
BRANCH   5   6
HETATM    6  C   UNL     1     -10.751  16.031  65.321  1.00  0.00    -0.399 C  
BRANCH   6   7
HETATM    7  N   UNL     1     -11.738  14.964  65.523  1.00  0.00    -0.269 NA 
HETATM    8  C   UNL     1     -11.695  13.877  64.533  1.00  0.00    -0.410 C  
HETATM    9  C   UNL     1     -10.460  12.983  64.653  1.00  0.00    -0.400 C  
HETATM   10  C   UNL     1     -10.317  12.409  66.066  1.00  0.00    -0.251 C  
HETATM   11  C   UNL     1     -10.371  13.548  67.089  1.00  0.00    -0.250 C  
HETATM   12  C   UNL     1     -11.630  14.399  66.883  1.00  0.00    -0.388 C  
BRANCH  10  13
HETATM   13  O   UNL     1     -11.361  11.501  66.441  1.00  0.00    -0.313 OA 
BRANCH  13  14
HETATM   14  C   UNL     1     -10.968  10.231  66.990  1.00  0.00    -0.119 C  
BRANCH  14  15
HETATM   15  C   UNL     1      -9.513   9.924  66.660  1.00  0.00    -0.220 A  
HETATM   16  C   UNL     1      -8.492  10.433  67.483  1.00  0.00    -0.115 A  
HETATM   17  C   UNL     1      -7.169  10.022  67.309  1.00  0.00    -0.086 A  
HETATM   18  C   UNL     1      -9.168   9.047  65.619  1.00  0.00    -0.288 A  
HETATM   19  C   UNL     1      -7.843   8.639  65.443  1.00  0.00    -0.101 A  
HETATM   20 CL   UNL     1      -5.240   8.538  66.146  1.00  0.00    -0.030 Cl 
HETATM   21  C   UNL     1      -6.854   9.112  66.302  1.00  0.00    -0.082 A  
ENDBRANCH  14  15
BRANCH  14  22
HETATM   22  C   UNL     1     -11.275  10.218  68.487  1.00  0.00    -0.214 A  
HETATM   23  C   UNL     1     -12.401  11.170  70.278  1.00  0.00    -0.315 A  
HETATM   24  C   UNL     1     -10.945   9.339  70.705  1.00  0.00    -0.336 A  
HETATM   25  C   UNL     1     -10.660   9.299  69.343  1.00  0.00    -0.234 A  
HETATM   26  N   UNL     1     -12.150  11.153  68.951  1.00  0.00    -0.519 NA 
HETATM   27  C   UNL     1     -11.831  10.294  71.185  1.00  0.00    -0.455 A  
ENDBRANCH  14  22
ENDBRANCH  13  14
ENDBRANCH  10  13
ENDBRANCH   6   7
ENDBRANCH   5   6
ENDBRANCH   4   5
TORSDOF 7
ENDMDL
MODEL      105
REMARK 921   NORMALIZED FREE ENERGY PREDICTED BY IDOCK:   -4.44 KCAL/MOL
REMARK 922        TOTAL FREE ENERGY PREDICTED BY IDOCK:   -7.72 KCAL/MOL
REMARK 923 INTER-LIGAND FREE ENERGY PREDICTED BY IDOCK:   -6.76 KCAL/MOL
REMARK 924 INTRA-LIGAND FREE ENERGY PREDICTED BY IDOCK:   -0.96 KCAL/MOL
REMARK 927      BINDING AFFINITY PREDICTED BY RF-SCORE:    0.00 PKD
ROOT
HETATM    1  O   UNL     1      -9.955   1.535  74.272  1.00  0.00    -0.076 OA 
HETATM    2  C   UNL     1     -10.378   2.465  73.384  1.00  0.00    -0.124 C  
HETATM    3  O   UNL     1     -10.327   2.288  72.178  1.00  0.00    -0.152 OA 
HETATM    4  C   UNL     1     -10.910   3.698  74.068  1.00  0.00    -0.269 C  
ENDROOT
BRANCH   4   5
HETATM    5  C   UNL     1     -11.411   4.751  73.078  1.00  0.00    -0.297 C  
BRANCH   5   6
HETATM    6  C   UNL     1     -10.336   5.824  72.879  1.00  0.00    -0.199 C  
BRANCH   6   7
HETATM    7  N   UNL     1     -10.833   7.199  72.759  1.00  0.00    -0.276 NA 
HETATM    8  C   UNL     1      -9.804   8.216  72.495  1.00  0.00    -0.293 C  
HETATM    9  C   UNL     1      -9.203   8.135  71.091  1.00  0.00    -0.185 C  
HETATM   10  C   UNL     1     -10.288   8.198  70.011  1.00  0.00    -0.215 C  
HETATM   11  C   UNL     1     -11.359   7.141  70.300  1.00  0.00    -0.305 C  
HETATM   12  C   UNL     1     -11.890   7.288  71.731  1.00  0.00    -0.295 C  
BRANCH  10  13
HETATM   13  O   UNL     1     -10.986   9.450  69.950  1.00  0.00    -0.234 OA 
BRANCH  13  14
HETATM   14  C   UNL     1     -11.280   9.978  68.645  1.00  0.00    -0.121 C  
BRANCH  14  15
HETATM   15  C   UNL     1     -11.662  11.451  68.730  1.00  0.00    -0.404 A  
HETATM   16  C   UNL     1     -11.867  12.044  69.987  1.00  0.00    -0.392 A  
HETATM   17  C   UNL     1     -12.041  13.424  70.102  1.00  0.00    -0.415 A  
HETATM   18  C   UNL     1     -11.700  12.263  67.584  1.00  0.00    -0.403 A  
HETATM   19  C   UNL     1     -11.877  13.644  67.699  1.00  0.00    -0.404 A  
HETATM   20 CL   UNL     1     -12.149  15.930  69.107  1.00  0.00    -0.275 Cl 
HETATM   21  C   UNL     1     -12.025  14.220  68.958  1.00  0.00    -0.325 A  
ENDBRANCH  14  15
BRANCH  14  22
HETATM   22  C   UNL     1     -10.099   9.701  67.716  1.00  0.00    -0.187 A  
HETATM   23  C   UNL     1      -7.896  10.145  67.140  1.00  0.00    -0.099 A  
HETATM   24  C   UNL     1      -9.132   8.625  65.791  1.00  0.00    -0.242 A  
HETATM   25  C   UNL     1     -10.223   8.829  66.630  1.00  0.00    -0.340 A  
HETATM   26  N   UNL     1      -8.936  10.359  67.976  1.00  0.00    -0.128 NA 
HETATM   27  C   UNL     1      -7.944   9.297  66.046  1.00  0.00    -0.110 A  
ENDBRANCH  14  22
ENDBRANCH  13  14
ENDBRANCH  10  13
ENDBRANCH   6   7
ENDBRANCH   5   6
ENDBRANCH   4   5
TORSDOF 7
ENDMDL
MODEL      106
REMARK 921   NORMALIZED FREE ENERGY PREDICTED BY IDOCK:   -4.43 KCAL/MOL
REMARK 922        TOTAL FREE ENERGY PREDICTED BY IDOCK:   -7.70 KCAL/MOL
REMARK 923 INTER-LIGAND FREE ENERGY PREDICTED BY IDOCK:   -6.95 KCAL/MOL
REMARK 924 INTRA-LIGAND FREE ENERGY PREDICTED BY IDOCK:   -0.75 KCAL/MOL
REMARK 927      BINDING AFFINITY PREDICTED BY RF-SCORE:    0.00 PKD
ROOT
HETATM    1  O   UNL     1     -11.252   2.973  63.334  1.00  0.00    -0.272 OA 
HETATM    2  C   UNL     1     -10.035   3.528  63.541  1.00  0.00    -0.169 C  
HETATM    3  O   UNL     1      -9.329   3.917  62.625  1.00  0.00    -0.102 OA 
HETATM    4  C   UNL     1      -9.691   3.603  65.007  1.00  0.00    -0.162 C  
ENDROOT
BRANCH   4   5
HETATM    5  C   UNL     1      -8.326   4.247  65.258  1.00  0.00    -0.110 C  
BRANCH   5   6
HETATM    6  C   UNL     1      -8.516   5.705  65.691  1.00  0.00    -0.147 C  
BRANCH   6   7
HETATM    7  N   UNL     1      -8.903   5.900  67.093  1.00  0.00    -0.108 NA 
HETATM    8  C   UNL     1      -7.981   6.728  67.886  1.00  0.00    -0.114 C  
HETATM    9  C   UNL     1      -7.998   8.208  67.502  1.00  0.00    -0.122 C  
HETATM   10  C   UNL     1      -9.414   8.790  67.571  1.00  0.00    -0.141 C  
HETATM   11  C   UNL     1     -10.367   7.916  66.749  1.00  0.00    -0.357 C  
HETATM   12  C   UNL     1     -10.270   6.451  67.189  1.00  0.00    -0.199 C  
BRANCH  10  13
HETATM   13  O   UNL     1      -9.970   8.833  68.892  1.00  0.00    -0.180 OA 
BRANCH  13  14
HETATM   14  C   UNL     1     -10.146  10.127  69.494  1.00  0.00    -0.235 C  
BRANCH  14  15
HETATM   15  C   UNL     1     -10.291  11.206  68.428  1.00  0.00    -0.201 A  
HETATM   16  C   UNL     1      -9.221  12.083  68.177  1.00  0.00    -0.195 A  
HETATM   17  C   UNL     1      -9.260  12.959  67.092  1.00  0.00    -0.225 A  
HETATM   18  C   UNL     1     -11.428  11.274  67.606  1.00  0.00    -0.341 A  
HETATM   19  C   UNL     1     -11.469  12.154  66.522  1.00  0.00    -0.430 A  
HETATM   20 CL   UNL     1     -10.387  13.991  64.868  1.00  0.00    -0.443 Cl 
HETATM   21  C   UNL     1     -10.376  12.976  66.257  1.00  0.00    -0.285 A  
ENDBRANCH  14  15
BRANCH  14  22
HETATM   22  C   UNL     1     -11.319  10.067  70.472  1.00  0.00    -0.335 A  
HETATM   23  C   UNL     1     -12.702   8.779  71.817  1.00  0.00    -0.359 A  
HETATM   24  C   UNL     1     -13.118  11.117  71.682  1.00  0.00    -0.529 A  
HETATM   25  C   UNL     1     -12.038  11.218  70.809  1.00  0.00    -0.450 A  
HETATM   26  N   UNL     1     -11.645   8.846  70.978  1.00  0.00    -0.284 NA 
HETATM   27  C   UNL     1     -13.460   9.873  72.196  1.00  0.00    -0.454 A  
ENDBRANCH  14  22
ENDBRANCH  13  14
ENDBRANCH  10  13
ENDBRANCH   6   7
ENDBRANCH   5   6
ENDBRANCH   4   5
TORSDOF 7
ENDMDL
MODEL      107
REMARK 921   NORMALIZED FREE ENERGY PREDICTED BY IDOCK:   -4.40 KCAL/MOL
REMARK 922        TOTAL FREE ENERGY PREDICTED BY IDOCK:   -7.66 KCAL/MOL
REMARK 923 INTER-LIGAND FREE ENERGY PREDICTED BY IDOCK:   -6.45 KCAL/MOL
REMARK 924 INTRA-LIGAND FREE ENERGY PREDICTED BY IDOCK:   -1.20 KCAL/MOL
REMARK 927      BINDING AFFINITY PREDICTED BY RF-SCORE:    0.00 PKD
ROOT
HETATM    1  O   UNL     1     -13.269  11.970  63.584  1.00  0.00    -0.737 OA 
HETATM    2  C   UNL     1     -12.042  12.320  64.036  1.00  0.00    -0.471 C  
HETATM    3  O   UNL     1     -11.085  12.458  63.292  1.00  0.00    -0.438 OA 
HETATM    4  C   UNL     1     -12.026  12.516  65.531  1.00  0.00    -0.500 C  
ENDROOT
BRANCH   4   5
HETATM    5  C   UNL     1     -10.650  12.932  66.055  1.00  0.00    -0.287 C  
BRANCH   5   6
HETATM    6  C   UNL     1      -9.765  11.692  66.216  1.00  0.00    -0.218 C  
BRANCH   6   7
HETATM    7  N   UNL     1      -9.793  11.066  67.544  1.00  0.00    -0.168 NA 
HETATM    8  C   UNL     1     -10.709   9.924  67.677  1.00  0.00    -0.281 C  
HETATM    9  C   UNL     1     -10.254   8.677  66.917  1.00  0.00    -0.367 C  
HETATM   10  C   UNL     1      -8.836   8.259  67.320  1.00  0.00    -0.130 C  
HETATM   11  C   UNL     1      -7.892   9.458  67.185  1.00  0.00    -0.098 C  
HETATM   12  C   UNL     1      -8.435  10.663  67.963  1.00  0.00    -0.119 C  
BRANCH  10  13
HETATM   13  O   UNL     1      -8.715   7.822  68.681  1.00  0.00    -0.128 OA 
BRANCH  13  14
HETATM   14  C   UNL     1      -9.629   6.807  69.132  1.00  0.00    -0.139 C  
BRANCH  14  15
HETATM   15  C   UNL     1      -8.958   5.439  69.144  1.00  0.00    -0.120 A  
HETATM   16  C   UNL     1      -7.597   5.330  68.810  1.00  0.00    -0.082 A  
HETATM   17  C   UNL     1      -6.917   4.123  68.984  1.00  0.00    -0.047 A  
HETATM   18  C   UNL     1      -9.638   4.295  69.593  1.00  0.00    -0.275 A  
HETATM   19  C   UNL     1      -8.959   3.087  69.764  1.00  0.00    -0.172 A  
HETATM   20 CL   UNL     1      -6.740   1.551  69.779  1.00  0.00    -0.029 Cl 
HETATM   21  C   UNL     1      -7.597   3.012  69.479  1.00  0.00    -0.044 A  
ENDBRANCH  14  15
BRANCH  14  22
HETATM   22  C   UNL     1     -10.205   7.221  70.486  1.00  0.00    -0.196 A  
HETATM   23  C   UNL     1     -12.032   7.961  71.709  1.00  0.00    -0.298 A  
HETATM   24  C   UNL     1      -9.958   7.680  72.837  1.00  0.00    -0.319 A  
HETATM   25  C   UNL     1      -9.401   7.270  71.629  1.00  0.00    -0.160 A  
HETATM   26  N   UNL     1     -11.523   7.562  70.523  1.00  0.00    -0.267 NA 
HETATM   27  C   UNL     1     -11.299   8.035  72.881  1.00  0.00    -0.364 A  
ENDBRANCH  14  22
ENDBRANCH  13  14
ENDBRANCH  10  13
ENDBRANCH   6   7
ENDBRANCH   5   6
ENDBRANCH   4   5
TORSDOF 7
ENDMDL
MODEL      108
REMARK 921   NORMALIZED FREE ENERGY PREDICTED BY IDOCK:   -4.39 KCAL/MOL
REMARK 922        TOTAL FREE ENERGY PREDICTED BY IDOCK:   -7.65 KCAL/MOL
REMARK 923 INTER-LIGAND FREE ENERGY PREDICTED BY IDOCK:   -6.76 KCAL/MOL
REMARK 924 INTRA-LIGAND FREE ENERGY PREDICTED BY IDOCK:   -0.89 KCAL/MOL
REMARK 927      BINDING AFFINITY PREDICTED BY RF-SCORE:    0.00 PKD
ROOT
HETATM    1  O   UNL     1      -8.841   4.707  64.429  1.00  0.00    -0.148 OA 
HETATM    2  C   UNL     1      -9.634   4.447  65.496  1.00  0.00    -0.186 C  
HETATM    3  O   UNL     1     -10.843   4.604  65.467  1.00  0.00    -0.278 OA 
HETATM    4  C   UNL     1      -8.842   3.946  66.677  1.00  0.00    -0.127 C  
ENDROOT
BRANCH   4   5
HETATM    5  C   UNL     1      -9.726   3.628  67.885  1.00  0.00    -0.108 C  
BRANCH   5   6
HETATM    6  C   UNL     1      -9.275   4.466  69.087  1.00  0.00    -0.140 C  
BRANCH   6   7
HETATM    7  N   UNL     1     -10.300   5.344  69.662  1.00  0.00    -0.273 NA 
HETATM    8  C   UNL     1      -9.827   6.243  70.725  1.00  0.00    -0.185 C  
HETATM    9  C   UNL     1      -8.914   7.363  70.224  1.00  0.00    -0.147 C  
HETATM   10  C   UNL     1      -9.582   8.176  69.110  1.00  0.00    -0.157 C  
HETATM   11  C   UNL     1     -10.077   7.229  68.013  1.00  0.00    -0.207 C  
HETATM   12  C   UNL     1     -10.969   6.133  68.608  1.00  0.00    -0.336 C  
BRANCH  10  13
HETATM   13  O   UNL     1     -10.735   8.918  69.532  1.00  0.00    -0.230 OA 
BRANCH  13  14
HETATM   14  C   UNL     1     -11.051  10.118  68.806  1.00  0.00    -0.203 C  
BRANCH  14  15
HETATM   15  C   UNL     1     -11.815  11.100  69.685  1.00  0.00    -0.419 A  
HETATM   16  C   UNL     1     -12.472  10.634  70.837  1.00  0.00    -0.495 A  
HETATM   17  C   UNL     1     -13.025  11.532  71.752  1.00  0.00    -0.500 A  
HETATM   18  C   UNL     1     -11.782  12.482  69.438  1.00  0.00    -0.383 A  
HETATM   19  C   UNL     1     -12.339  13.380  70.351  1.00  0.00    -0.382 A  
HETATM   20 CL   UNL     1     -13.540  14.011  72.683  1.00  0.00    -0.631 Cl 
HETATM   21  C   UNL     1     -12.938  12.902  71.513  1.00  0.00    -0.294 A  
ENDBRANCH  14  15
BRANCH  14  22
HETATM   22  C   UNL     1      -9.766  10.695  68.212  1.00  0.00    -0.161 A  
HETATM   23  C   UNL     1      -7.611  11.480  68.561  1.00  0.00    -0.130 A  
HETATM   24  C   UNL     1      -8.489  11.535  66.351  1.00  0.00    -0.138 A  
HETATM   25  C   UNL     1      -9.666  10.984  66.848  1.00  0.00    -0.215 A  
HETATM   26  N   UNL     1      -8.738  10.938  69.072  1.00  0.00    -0.139 NA 
HETATM   27  C   UNL     1      -7.439  11.791  67.223  1.00  0.00    -0.151 A  
ENDBRANCH  14  22
ENDBRANCH  13  14
ENDBRANCH  10  13
ENDBRANCH   6   7
ENDBRANCH   5   6
ENDBRANCH   4   5
TORSDOF 7
ENDMDL
MODEL      109
REMARK 921   NORMALIZED FREE ENERGY PREDICTED BY IDOCK:   -4.37 KCAL/MOL
REMARK 922        TOTAL FREE ENERGY PREDICTED BY IDOCK:   -7.62 KCAL/MOL
REMARK 923 INTER-LIGAND FREE ENERGY PREDICTED BY IDOCK:   -7.41 KCAL/MOL
REMARK 924 INTRA-LIGAND FREE ENERGY PREDICTED BY IDOCK:   -0.21 KCAL/MOL
REMARK 927      BINDING AFFINITY PREDICTED BY RF-SCORE:    0.00 PKD
ROOT
HETATM    1  O   UNL     1      -5.539  19.287  69.816  1.00  0.00    -0.205 OA 
HETATM    2  C   UNL     1      -5.766  19.489  68.497  1.00  0.00    -0.206 C  
HETATM    3  O   UNL     1      -5.136  20.300  67.841  1.00  0.00    -0.177 OA 
HETATM    4  C   UNL     1      -6.863  18.597  67.971  1.00  0.00    -0.236 C  
ENDROOT
BRANCH   4   5
HETATM    5  C   UNL     1      -7.119  18.799  66.477  1.00  0.00    -0.240 C  
BRANCH   5   6
HETATM    6  C   UNL     1      -8.009  17.669  65.950  1.00  0.00    -0.042 C  
BRANCH   6   7
HETATM    7  N   UNL     1      -9.119  17.280  66.828  1.00  0.00    -0.243 NA 
HETATM    8  C   UNL     1     -10.410  17.081  66.152  1.00  0.00    -0.319 C  
HETATM    9  C   UNL     1     -10.456  15.834  65.267  1.00  0.00    -0.427 C  
HETATM   10  C   UNL     1     -10.077  14.574  66.051  1.00  0.00    -0.318 C  
HETATM   11  C   UNL     1      -8.735  14.795  66.757  1.00  0.00    -0.255 C  
HETATM   12  C   UNL     1      -8.776  16.072  67.605  1.00  0.00    -0.173 C  
BRANCH  10  13
HETATM   13  O   UNL     1     -11.006  14.222  67.086  1.00  0.00    -0.291 OA 
BRANCH  13  14
HETATM   14  C   UNL     1     -10.464  13.696  68.310  1.00  0.00    -0.249 C  
BRANCH  14  15
HETATM   15  C   UNL     1     -11.271  14.174  69.510  1.00  0.00    -0.267 A  
HETATM   16  C   UNL     1     -12.230  13.323  70.086  1.00  0.00    -0.376 A  
HETATM   17  C   UNL     1     -12.853  13.665  71.288  1.00  0.00    -0.424 A  
HETATM   18  C   UNL     1     -10.999  15.404  70.131  1.00  0.00    -0.327 A  
HETATM   19  C   UNL     1     -11.624  15.747  71.332  1.00  0.00    -0.511 A  
HETATM   20 CL   UNL     1     -13.231  15.246  73.441  1.00  0.00    -0.576 Cl 
HETATM   21  C   UNL     1     -12.532  14.867  71.915  1.00  0.00    -0.333 A  
ENDBRANCH  14  15
BRANCH  14  22
HETATM   22  C   UNL     1     -10.369  12.174  68.200  1.00  0.00    -0.207 A  
HETATM   23  C   UNL     1      -9.345  10.208  68.883  1.00  0.00    -0.179 A  
HETATM   24  C   UNL     1     -11.028  10.082  67.207  1.00  0.00    -0.225 A  
HETATM   25  C   UNL     1     -11.166  11.463  67.298  1.00  0.00    -0.370 A  
HETATM   26  N   UNL     1      -9.459  11.549  68.997  1.00  0.00    -0.002 NA 
HETATM   27  C   UNL     1     -10.098   9.438  68.013  1.00  0.00    -0.230 A  
ENDBRANCH  14  22
ENDBRANCH  13  14
ENDBRANCH  10  13
ENDBRANCH   6   7
ENDBRANCH   5   6
ENDBRANCH   4   5
TORSDOF 7
ENDMDL
MODEL      110
REMARK 921   NORMALIZED FREE ENERGY PREDICTED BY IDOCK:   -4.36 KCAL/MOL
REMARK 922        TOTAL FREE ENERGY PREDICTED BY IDOCK:   -7.60 KCAL/MOL
REMARK 923 INTER-LIGAND FREE ENERGY PREDICTED BY IDOCK:   -7.04 KCAL/MOL
REMARK 924 INTRA-LIGAND FREE ENERGY PREDICTED BY IDOCK:   -0.56 KCAL/MOL
REMARK 927      BINDING AFFINITY PREDICTED BY RF-SCORE:    0.00 PKD
ROOT
HETATM    1  O   UNL     1      -7.002   1.662  69.836  1.00  0.00    -0.032 OA 
HETATM    2  C   UNL     1      -7.804   2.671  70.251  1.00  0.00    -0.042 C  
HETATM    3  O   UNL     1      -7.660   3.219  71.331  1.00  0.00    -0.046 OA 
HETATM    4  C   UNL     1      -8.853   3.016  69.225  1.00  0.00    -0.155 C  
ENDROOT
BRANCH   4   5
HETATM    5  C   UNL     1      -9.755   4.169  69.671  1.00  0.00    -0.269 C  
BRANCH   5   6
HETATM    6  C   UNL     1      -9.768   5.258  68.593  1.00  0.00    -0.145 C  
BRANCH   6   7
HETATM    7  N   UNL     1     -10.928   6.158  68.622  1.00  0.00    -0.333 NA 
HETATM    8  C   UNL     1     -11.056   6.973  69.839  1.00  0.00    -0.264 C  
HETATM    9  C   UNL     1      -9.995   8.068  69.962  1.00  0.00    -0.191 C  
HETATM   10  C   UNL     1      -9.976   8.973  68.726  1.00  0.00    -0.182 C  
HETATM   11  C   UNL     1      -9.850   8.114  67.464  1.00  0.00    -0.230 C  
HETATM   12  C   UNL     1     -10.940   7.036  67.434  1.00  0.00    -0.266 C  
BRANCH  10  13
HETATM   13  O   UNL     1     -11.167   9.752  68.548  1.00  0.00    -0.143 OA 
BRANCH  13  14
HETATM   14  C   UNL     1     -11.062  11.173  68.738  1.00  0.00    -0.236 C  
BRANCH  14  15
HETATM   15  C   UNL     1     -11.458  11.921  67.471  1.00  0.00    -0.396 A  
HETATM   16  C   UNL     1     -11.972  13.226  67.567  1.00  0.00    -0.371 A  
HETATM   17  C   UNL     1     -12.173  13.997  66.420  1.00  0.00    -0.492 A  
HETATM   18  C   UNL     1     -11.213  11.383  66.197  1.00  0.00    -0.203 A  
HETATM   19  C   UNL     1     -11.418  12.153  65.050  1.00  0.00    -0.377 A  
HETATM   20 CL   UNL     1     -12.038  14.442  63.763  1.00  0.00    -0.208 Cl 
HETATM   21  C   UNL     1     -11.876  13.462  65.168  1.00  0.00    -0.350 A  
ENDBRANCH  14  15
BRANCH  14  22
HETATM   22  C   UNL     1     -11.877  11.573  69.968  1.00  0.00    -0.355 A  
HETATM   23  C   UNL     1     -13.314  10.938  71.674  1.00  0.00    -0.263 A  
HETATM   24  C   UNL     1     -12.706  13.231  71.506  1.00  0.00    -0.376 A  
HETATM   25  C   UNL     1     -11.930  12.903  70.399  1.00  0.00    -0.329 A  
HETATM   26  N   UNL     1     -12.565  10.587  70.606  1.00  0.00    -0.353 NA 
HETATM   27  C   UNL     1     -13.415  12.231  72.158  1.00  0.00    -0.431 A  
ENDBRANCH  14  22
ENDBRANCH  13  14
ENDBRANCH  10  13
ENDBRANCH   6   7
ENDBRANCH   5   6
ENDBRANCH   4   5
TORSDOF 7
ENDMDL
MODEL      111
REMARK 921   NORMALIZED FREE ENERGY PREDICTED BY IDOCK:   -4.34 KCAL/MOL
REMARK 922        TOTAL FREE ENERGY PREDICTED BY IDOCK:   -7.58 KCAL/MOL
REMARK 923 INTER-LIGAND FREE ENERGY PREDICTED BY IDOCK:   -6.51 KCAL/MOL
REMARK 924 INTRA-LIGAND FREE ENERGY PREDICTED BY IDOCK:   -1.08 KCAL/MOL
REMARK 927      BINDING AFFINITY PREDICTED BY RF-SCORE:    0.00 PKD
ROOT
HETATM    1  O   UNL     1      -7.747  18.346  65.694  1.00  0.00    -0.518 OA 
HETATM    2  C   UNL     1      -8.944  18.246  66.318  1.00  0.00    -0.181 C  
HETATM    3  O   UNL     1      -9.704  19.193  66.434  1.00  0.00    -0.334 OA 
HETATM    4  C   UNL     1      -9.201  16.849  66.824  1.00  0.00    -0.266 C  
ENDROOT
BRANCH   4   5
HETATM    5  C   UNL     1     -10.560  16.714  67.514  1.00  0.00    -0.311 C  
BRANCH   5   6
HETATM    6  C   UNL     1     -11.280  15.465  66.994  1.00  0.00    -0.229 C  
BRANCH   6   7
HETATM    7  N   UNL     1     -11.548  14.429  67.998  1.00  0.00    -0.310 NA 
HETATM    8  C   UNL     1     -12.154  13.195  67.476  1.00  0.00    -0.248 C  
HETATM    9  C   UNL     1     -11.203  12.354  66.623  1.00  0.00    -0.366 C  
HETATM   10  C   UNL     1      -9.913  12.023  67.380  1.00  0.00    -0.191 C  
HETATM   11  C   UNL     1      -9.294  13.314  67.926  1.00  0.00    -0.214 C  
HETATM   12  C   UNL     1     -10.322  14.097  68.752  1.00  0.00    -0.229 C  
BRANCH  10  13
HETATM   13  O   UNL     1     -10.100  11.171  68.519  1.00  0.00    -0.186 OA 
BRANCH  13  14
HETATM   14  C   UNL     1      -8.999  10.329  68.902  1.00  0.00    -0.164 C  
BRANCH  14  15
HETATM   15  C   UNL     1      -9.398   9.401  70.043  1.00  0.00    -0.253 A  
HETATM   16  C   UNL     1      -8.453   9.066  71.028  1.00  0.00    -0.254 A  
HETATM   17  C   UNL     1      -8.838   8.367  72.173  1.00  0.00    -0.285 A  
HETATM   18  C   UNL     1     -10.723   8.961  70.199  1.00  0.00    -0.245 A  
HETATM   19  C   UNL     1     -11.107   8.259  71.344  1.00  0.00    -0.302 A  
HETATM   20 CL   UNL     1     -10.660   7.201  73.786  1.00  0.00    -0.387 Cl 
HETATM   21  C   UNL     1     -10.168   7.983  72.334  1.00  0.00    -0.280 A  
ENDBRANCH  14  15
BRANCH  14  22
HETATM   22  C   UNL     1      -8.477   9.596  67.667  1.00  0.00    -0.125 A  
HETATM   23  C   UNL     1      -6.790   9.330  66.098  1.00  0.00    -0.085 A  
HETATM   24  C   UNL     1      -8.750   8.001  65.883  1.00  0.00    -0.184 A  
HETATM   25  C   UNL     1      -9.249   8.625  67.023  1.00  0.00    -0.186 A  
HETATM   26  N   UNL     1      -7.245   9.949  67.209  1.00  0.00    -0.086 NA 
HETATM   27  C   UNL     1      -7.496   8.360  65.408  1.00  0.00    -0.085 A  
ENDBRANCH  14  22
ENDBRANCH  13  14
ENDBRANCH  10  13
ENDBRANCH   6   7
ENDBRANCH   5   6
ENDBRANCH   4   5
TORSDOF 7
ENDMDL
MODEL      112
REMARK 921   NORMALIZED FREE ENERGY PREDICTED BY IDOCK:   -4.31 KCAL/MOL
REMARK 922        TOTAL FREE ENERGY PREDICTED BY IDOCK:   -7.54 KCAL/MOL
REMARK 923 INTER-LIGAND FREE ENERGY PREDICTED BY IDOCK:   -7.02 KCAL/MOL
REMARK 924 INTRA-LIGAND FREE ENERGY PREDICTED BY IDOCK:   -0.52 KCAL/MOL
REMARK 927      BINDING AFFINITY PREDICTED BY RF-SCORE:    0.00 PKD
ROOT
HETATM    1  O   UNL     1     -10.502   4.500  65.467  1.00  0.00    -0.272 OA 
HETATM    2  C   UNL     1      -9.403   5.154  65.914  1.00  0.00    -0.159 C  
HETATM    3  O   UNL     1      -8.276   4.861  65.553  1.00  0.00    -0.110 OA 
HETATM    4  C   UNL     1      -9.758   6.259  66.876  1.00  0.00    -0.184 C  
ENDROOT
BRANCH   4   5
HETATM    5  C   UNL     1      -8.528   7.021  67.375  1.00  0.00    -0.122 C  
BRANCH   5   6
HETATM    6  C   UNL     1      -8.636   8.494  66.967  1.00  0.00    -0.121 C  
BRANCH   6   7
HETATM    7  N   UNL     1      -9.977   9.080  67.071  1.00  0.00    -0.209 NA 
HETATM    8  C   UNL     1     -10.289   9.699  68.368  1.00  0.00    -0.204 C  
HETATM    9  C   UNL     1      -9.522  10.996  68.632  1.00  0.00    -0.197 C  
HETATM   10  C   UNL     1      -9.730  12.012  67.504  1.00  0.00    -0.187 C  
HETATM   11  C   UNL     1      -9.410  11.354  66.158  1.00  0.00    -0.232 C  
HETATM   12  C   UNL     1     -10.209  10.057  65.988  1.00  0.00    -0.207 C  
BRANCH  10  13
HETATM   13  O   UNL     1     -11.075  12.496  67.389  1.00  0.00    -0.248 OA 
BRANCH  13  14
HETATM   14  C   UNL     1     -11.299  13.892  67.654  1.00  0.00    -0.309 C  
BRANCH  14  15
HETATM   15  C   UNL     1     -11.892  14.093  69.043  1.00  0.00    -0.384 A  
HETATM   16  C   UNL     1     -12.166  12.975  69.849  1.00  0.00    -0.271 A  
HETATM   17  C   UNL     1     -12.539  13.136  71.185  1.00  0.00    -0.403 A  
HETATM   18  C   UNL     1     -12.064  15.377  69.586  1.00  0.00    -0.354 A  
HETATM   19  C   UNL     1     -12.441  15.538  70.921  1.00  0.00    -0.494 A  
HETATM   20 CL   UNL     1     -13.027  14.615  73.388  1.00  0.00    -0.590 Cl 
HETATM   21  C   UNL     1     -12.656  14.418  71.720  1.00  0.00    -0.351 A  
ENDBRANCH  14  15
BRANCH  14  22
HETATM   22  C   UNL     1      -9.998  14.659  67.424  1.00  0.00    -0.231 A  
HETATM   23  C   UNL     1      -8.769  16.102  66.086  1.00  0.00    -0.323 A  
HETATM   24  C   UNL     1      -7.741  15.226  68.044  1.00  0.00    -0.133 A  
HETATM   25  C   UNL     1      -8.919  14.533  68.304  1.00  0.00    -0.184 A  
HETATM   26  N   UNL     1      -9.928  15.446  66.315  1.00  0.00    -0.269 NA 
HETATM   27  C   UNL     1      -7.660  16.026  66.912  1.00  0.00    -0.268 A  
ENDBRANCH  14  22
ENDBRANCH  13  14
ENDBRANCH  10  13
ENDBRANCH   6   7
ENDBRANCH   5   6
ENDBRANCH   4   5
TORSDOF 7
ENDMDL
MODEL      113
REMARK 921   NORMALIZED FREE ENERGY PREDICTED BY IDOCK:   -4.30 KCAL/MOL
REMARK 922        TOTAL FREE ENERGY PREDICTED BY IDOCK:   -7.51 KCAL/MOL
REMARK 923 INTER-LIGAND FREE ENERGY PREDICTED BY IDOCK:   -6.91 KCAL/MOL
REMARK 924 INTRA-LIGAND FREE ENERGY PREDICTED BY IDOCK:   -0.60 KCAL/MOL
REMARK 927      BINDING AFFINITY PREDICTED BY RF-SCORE:    0.00 PKD
ROOT
HETATM    1  O   UNL     1      -9.492   8.636  71.505  1.00  0.00    -0.200 OA 
HETATM    2  C   UNL     1      -9.061   8.637  70.221  1.00  0.00    -0.162 C  
HETATM    3  O   UNL     1      -9.212   7.681  69.479  1.00  0.00    -0.150 OA 
HETATM    4  C   UNL     1      -8.401   9.940  69.849  1.00  0.00    -0.200 C  
ENDROOT
BRANCH   4   5
HETATM    5  C   UNL     1      -7.926   9.965  68.395  1.00  0.00    -0.096 C  
BRANCH   5   6
HETATM    6  C   UNL     1      -6.960  11.137  68.189  1.00  0.00    -0.069 C  
BRANCH   6   7
HETATM    7  N   UNL     1      -7.397  12.151  67.222  1.00  0.00    -0.150 NA 
HETATM    8  C   UNL     1      -8.827  12.114  66.882  1.00  0.00    -0.202 C  
HETATM    9  C   UNL     1      -9.743  12.567  68.021  1.00  0.00    -0.215 C  
HETATM   10  C   UNL     1      -9.361  13.962  68.527  1.00  0.00    -0.164 C  
HETATM   11  C   UNL     1      -7.868  13.991  68.871  1.00  0.00    -0.045 C  
HETATM   12  C   UNL     1      -7.031  13.506  67.681  1.00  0.00    -0.167 C  
BRANCH  10  13
HETATM   13  O   UNL     1      -9.559  15.011  67.570  1.00  0.00    -0.202 OA 
BRANCH  13  14
HETATM   14  C   UNL     1     -10.657  15.912  67.794  1.00  0.00    -0.302 C  
BRANCH  14  15
HETATM   15  C   UNL     1     -11.370  15.585  69.100  1.00  0.00    -0.333 A  
HETATM   16  C   UNL     1     -12.328  14.556  69.129  1.00  0.00    -0.152 A  
HETATM   17  C   UNL     1     -12.864  14.118  70.341  1.00  0.00    -0.256 A  
HETATM   18  C   UNL     1     -11.011  16.208  70.306  1.00  0.00    -0.345 A  
HETATM   19  C   UNL     1     -11.550  15.772  71.519  1.00  0.00    -0.531 A  
HETATM   20 CL   UNL     1     -13.048  14.115  73.033  1.00  0.00    -0.563 Cl 
HETATM   21  C   UNL     1     -12.457  14.715  71.532  1.00  0.00    -0.346 A  
ENDBRANCH  14  15
BRANCH  14  22
HETATM   22  C   UNL     1     -10.146  17.351  67.717  1.00  0.00    -0.323 A  
HETATM   23  C   UNL     1     -10.583  19.575  67.222  1.00  0.00    -0.490 A  
HETATM   24  C   UNL     1      -8.382  18.980  67.900  1.00  0.00    -0.320 A  
HETATM   25  C   UNL     1      -8.815  17.662  68.011  1.00  0.00    -0.257 A  
HETATM   26  N   UNL     1     -11.034  18.306  67.325  1.00  0.00    -0.222 NA 
HETATM   27  C   UNL     1      -9.281  19.958  67.496  1.00  0.00    -0.448 A  
ENDBRANCH  14  22
ENDBRANCH  13  14
ENDBRANCH  10  13
ENDBRANCH   6   7
ENDBRANCH   5   6
ENDBRANCH   4   5
TORSDOF 7
ENDMDL
MODEL      114
REMARK 921   NORMALIZED FREE ENERGY PREDICTED BY IDOCK:   -4.29 KCAL/MOL
REMARK 922        TOTAL FREE ENERGY PREDICTED BY IDOCK:   -7.51 KCAL/MOL
REMARK 923 INTER-LIGAND FREE ENERGY PREDICTED BY IDOCK:   -6.28 KCAL/MOL
REMARK 924 INTRA-LIGAND FREE ENERGY PREDICTED BY IDOCK:   -1.23 KCAL/MOL
REMARK 927      BINDING AFFINITY PREDICTED BY RF-SCORE:    0.00 PKD
ROOT
HETATM    1  O   UNL     1      -6.885   3.919  63.515  1.00  0.00    -0.041 OA 
HETATM    2  C   UNL     1      -8.041   4.058  64.205  1.00  0.00    -0.090 C  
HETATM    3  O   UNL     1      -8.994   4.682  63.767  1.00  0.00    -0.143 OA 
HETATM    4  C   UNL     1      -7.992   3.354  65.537  1.00  0.00    -0.089 C  
ENDROOT
BRANCH   4   5
HETATM    5  C   UNL     1      -9.299   3.486  66.321  1.00  0.00    -0.177 C  
BRANCH   5   6
HETATM    6  C   UNL     1      -9.048   4.276  67.610  1.00  0.00    -0.134 C  
BRANCH   6   7
HETATM    7  N   UNL     1     -10.108   5.220  67.986  1.00  0.00    -0.162 NA 
HETATM    8  C   UNL     1      -9.809   6.063  69.153  1.00  0.00    -0.148 C  
HETATM    9  C   UNL     1      -8.734   7.119  68.890  1.00  0.00    -0.128 C  
HETATM   10  C   UNL     1      -9.092   7.998  67.688  1.00  0.00    -0.137 C  
HETATM   11  C   UNL     1      -9.410   7.110  66.481  1.00  0.00    -0.208 C  
HETATM   12  C   UNL     1     -10.481   6.074  66.840  1.00  0.00    -0.280 C  
BRANCH  10  13
HETATM   13  O   UNL     1     -10.253   8.818  67.882  1.00  0.00    -0.196 OA 
BRANCH  13  14
HETATM   14  C   UNL     1     -10.100  10.001  68.685  1.00  0.00    -0.172 C  
BRANCH  14  15
HETATM   15  C   UNL     1     -10.254  11.257  67.836  1.00  0.00    -0.201 A  
HETATM   16  C   UNL     1     -10.992  11.201  66.640  1.00  0.00    -0.289 A  
HETATM   17  C   UNL     1     -11.298  12.368  65.939  1.00  0.00    -0.399 A  
HETATM   18  C   UNL     1      -9.774  12.501  68.276  1.00  0.00    -0.220 A  
HETATM   19  C   UNL     1     -10.077  13.669  67.572  1.00  0.00    -0.237 A  
HETATM   20 CL   UNL     1     -11.308  15.045  65.605  1.00  0.00    -0.330 Cl 
HETATM   21  C   UNL     1     -10.855  13.599  66.419  1.00  0.00    -0.290 A  
ENDBRANCH  14  15
BRANCH  14  22
HETATM   22  C   UNL     1     -11.070   9.934  69.864  1.00  0.00    -0.275 A  
HETATM   23  C   UNL     1     -13.017  10.704  70.864  1.00  0.00    -0.340 A  
HETATM   24  C   UNL     1     -11.712   9.092  72.027  1.00  0.00    -0.417 A  
HETATM   25  C   UNL     1     -10.819   9.103  70.960  1.00  0.00    -0.362 A  
HETATM   26  N   UNL     1     -12.171  10.733  69.810  1.00  0.00    -0.320 NA 
HETATM   27  C   UNL     1     -12.834   9.909  71.982  1.00  0.00    -0.488 A  
ENDBRANCH  14  22
ENDBRANCH  13  14
ENDBRANCH  10  13
ENDBRANCH   6   7
ENDBRANCH   5   6
ENDBRANCH   4   5
TORSDOF 7
ENDMDL
MODEL      115
REMARK 921   NORMALIZED FREE ENERGY PREDICTED BY IDOCK:   -4.29 KCAL/MOL
REMARK 922        TOTAL FREE ENERGY PREDICTED BY IDOCK:   -7.50 KCAL/MOL
REMARK 923 INTER-LIGAND FREE ENERGY PREDICTED BY IDOCK:   -6.85 KCAL/MOL
REMARK 924 INTRA-LIGAND FREE ENERGY PREDICTED BY IDOCK:   -0.65 KCAL/MOL
REMARK 927      BINDING AFFINITY PREDICTED BY RF-SCORE:    0.00 PKD
ROOT
HETATM    1  O   UNL     1      -8.960   8.508  71.913  1.00  0.00    -0.192 OA 
HETATM    2  C   UNL     1      -9.528   8.672  70.695  1.00  0.00    -0.184 C  
HETATM    3  O   UNL     1      -9.146   8.067  69.707  1.00  0.00    -0.148 OA 
HETATM    4  C   UNL     1     -10.662   9.665  70.731  1.00  0.00    -0.401 C  
ENDROOT
BRANCH   4   5
HETATM    5  C   UNL     1     -11.328   9.848  69.366  1.00  0.00    -0.143 C  
BRANCH   5   6
HETATM    6  C   UNL     1     -12.113  11.164  69.348  1.00  0.00    -0.326 C  
BRANCH   6   7
HETATM    7  N   UNL     1     -12.004  11.945  68.111  1.00  0.00    -0.528 NA 
HETATM    8  C   UNL     1     -12.136  13.400  68.277  1.00  0.00    -0.236 C  
HETATM    9  C   UNL     1     -10.947  14.050  68.986  1.00  0.00    -0.287 C  
HETATM   10  C   UNL     1      -9.626  13.722  68.284  1.00  0.00    -0.219 C  
HETATM   11  C   UNL     1      -9.502  12.205  68.109  1.00  0.00    -0.205 C  
HETATM   12  C   UNL     1     -10.742  11.640  67.406  1.00  0.00    -0.234 C  
BRANCH  10  13
HETATM   13  O   UNL     1      -9.506  14.275  66.966  1.00  0.00    -0.234 OA 
BRANCH  13  14
HETATM   14  C   UNL     1      -8.393  15.150  66.715  1.00  0.00    -0.189 C  
BRANCH  14  15
HETATM   15  C   UNL     1      -8.840  16.606  66.694  1.00  0.00    -0.280 A  
HETATM   16  C   UNL     1     -10.125  16.945  67.155  1.00  0.00    -0.287 A  
HETATM   17  C   UNL     1     -10.493  18.282  67.313  1.00  0.00    -0.419 A  
HETATM   18  C   UNL     1      -7.958  17.638  66.333  1.00  0.00    -0.309 A  
HETATM   19  C   UNL     1      -8.327  18.976  66.489  1.00  0.00    -0.313 A  
HETATM   20 CL   UNL     1     -10.005  20.936  67.278  1.00  0.00    -0.401 Cl 
HETATM   21  C   UNL     1      -9.584  19.291  66.998  1.00  0.00    -0.324 A  
ENDBRANCH  14  15
BRANCH  14  22
HETATM   22  C   UNL     1      -7.291  14.860  67.733  1.00  0.00    -0.166 A  
HETATM   23  C   UNL     1      -5.349  13.707  68.263  1.00  0.00    -0.107 A  
HETATM   24  C   UNL     1      -6.304  15.129  69.913  1.00  0.00    -0.164 A  
HETATM   25  C   UNL     1      -7.310  15.441  69.005  1.00  0.00    -0.159 A  
HETATM   26  N   UNL     1      -6.309  13.995  67.357  1.00  0.00    -0.308 NA 
HETATM   27  C   UNL     1      -5.302  14.243  69.539  1.00  0.00    -0.090 A  
ENDBRANCH  14  22
ENDBRANCH  13  14
ENDBRANCH  10  13
ENDBRANCH   6   7
ENDBRANCH   5   6
ENDBRANCH   4   5
TORSDOF 7
ENDMDL
MODEL      116
REMARK 921   NORMALIZED FREE ENERGY PREDICTED BY IDOCK:   -4.28 KCAL/MOL
REMARK 922        TOTAL FREE ENERGY PREDICTED BY IDOCK:   -7.49 KCAL/MOL
REMARK 923 INTER-LIGAND FREE ENERGY PREDICTED BY IDOCK:   -6.86 KCAL/MOL
REMARK 924 INTRA-LIGAND FREE ENERGY PREDICTED BY IDOCK:   -0.63 KCAL/MOL
REMARK 927      BINDING AFFINITY PREDICTED BY RF-SCORE:    0.00 PKD
ROOT
HETATM    1  O   UNL     1     -13.720   9.387  72.457  1.00  0.00    -0.448 OA 
HETATM    2  C   UNL     1     -13.474   8.169  71.921  1.00  0.00    -0.324 C  
HETATM    3  O   UNL     1     -14.344   7.498  71.392  1.00  0.00    -0.441 OA 
HETATM    4  C   UNL     1     -12.025   7.776  72.058  1.00  0.00    -0.350 C  
ENDROOT
BRANCH   4   5
HETATM    5  C   UNL     1     -11.725   6.409  71.440  1.00  0.00    -0.364 C  
BRANCH   5   6
HETATM    6  C   UNL     1     -11.521   6.561  69.928  1.00  0.00    -0.403 C  
BRANCH   6   7
HETATM    7  N   UNL     1     -10.124   6.626  69.485  1.00  0.00    -0.173 NA 
HETATM    8  C   UNL     1      -9.909   6.354  68.056  1.00  0.00    -0.123 C  
HETATM    9  C   UNL     1     -10.425   7.460  67.134  1.00  0.00    -0.403 C  
HETATM   10  C   UNL     1      -9.829   8.823  67.503  1.00  0.00    -0.179 C  
HETATM   11  C   UNL     1     -10.051   9.092  68.994  1.00  0.00    -0.204 C  
HETATM   12  C   UNL     1      -9.520   7.926  69.838  1.00  0.00    -0.160 C  
BRANCH  10  13
HETATM   13  O   UNL     1      -8.413   8.921  67.298  1.00  0.00    -0.114 OA 
BRANCH  13  14
HETATM   14  C   UNL     1      -7.936  10.008  66.486  1.00  0.00    -0.115 C  
BRANCH  14  15
HETATM   15  C   UNL     1      -9.091  10.702  65.775  1.00  0.00    -0.208 A  
HETATM   16  C   UNL     1      -9.634  11.879  66.318  1.00  0.00    -0.243 A  
HETATM   17  C   UNL     1     -10.566  12.629  65.599  1.00  0.00    -0.299 A  
HETATM   18  C   UNL     1      -9.553  10.258  64.525  1.00  0.00    -0.378 A  
HETATM   19  C   UNL     1     -10.488  11.007  63.807  1.00  0.00    -0.408 A  
HETATM   20 CL   UNL     1     -12.054  13.169  63.414  1.00  0.00    -0.613 Cl 
HETATM   21  C   UNL     1     -10.974  12.199  64.338  1.00  0.00    -0.326 A  
ENDBRANCH  14  15
BRANCH  14  22
HETATM   22  C   UNL     1      -7.094  10.945  67.352  1.00  0.00    -0.093 A  
HETATM   23  C   UNL     1      -6.767  11.969  69.407  1.00  0.00    -0.070 A  
HETATM   24  C   UNL     1      -5.263  12.483  67.638  1.00  0.00    -0.107 A  
HETATM   25  C   UNL     1      -5.986  11.616  66.825  1.00  0.00    -0.137 A  
HETATM   26  N   UNL     1      -7.486  11.117  68.645  1.00  0.00    -0.110 NA 
HETATM   27  C   UNL     1      -5.660  12.667  68.956  1.00  0.00    -0.069 A  
ENDBRANCH  14  22
ENDBRANCH  13  14
ENDBRANCH  10  13
ENDBRANCH   6   7
ENDBRANCH   5   6
ENDBRANCH   4   5
TORSDOF 7
ENDMDL
MODEL      117
REMARK 921   NORMALIZED FREE ENERGY PREDICTED BY IDOCK:   -4.27 KCAL/MOL
REMARK 922        TOTAL FREE ENERGY PREDICTED BY IDOCK:   -7.47 KCAL/MOL
REMARK 923 INTER-LIGAND FREE ENERGY PREDICTED BY IDOCK:   -6.75 KCAL/MOL
REMARK 924 INTRA-LIGAND FREE ENERGY PREDICTED BY IDOCK:   -0.72 KCAL/MOL
REMARK 927      BINDING AFFINITY PREDICTED BY RF-SCORE:    0.00 PKD
ROOT
HETATM    1  O   UNL     1     -12.136  15.757  68.966  1.00  0.00    -0.349 OA 
HETATM    2  C   UNL     1     -11.878  14.516  68.492  1.00  0.00    -0.320 C  
HETATM    3  O   UNL     1     -11.769  13.545  69.222  1.00  0.00    -0.287 OA 
HETATM    4  C   UNL     1     -11.757  14.501  66.989  1.00  0.00    -0.412 C  
ENDROOT
BRANCH   4   5
HETATM    5  C   UNL     1     -11.484  13.101  66.435  1.00  0.00    -0.374 C  
BRANCH   5   6
HETATM    6  C   UNL     1      -9.972  12.871  66.338  1.00  0.00    -0.267 C  
BRANCH   6   7
HETATM    7  N   UNL     1      -9.555  11.470  66.206  1.00  0.00    -0.211 NA 
HETATM    8  C   UNL     1      -8.362  11.098  66.981  1.00  0.00    -0.144 C  
HETATM    9  C   UNL     1      -8.597  11.059  68.492  1.00  0.00    -0.158 C  
HETATM   10  C   UNL     1      -9.765  10.137  68.856  1.00  0.00    -0.187 C  
HETATM   11  C   UNL     1     -10.999  10.528  68.037  1.00  0.00    -0.345 C  
HETATM   12  C   UNL     1     -10.667  10.558  66.541  1.00  0.00    -0.121 C  
BRANCH  10  13
HETATM   13  O   UNL     1      -9.533   8.751  68.569  1.00  0.00    -0.144 OA 
BRANCH  13  14
HETATM   14  C   UNL     1     -10.530   7.810  69.002  1.00  0.00    -0.205 C  
BRANCH  14  15
HETATM   15  C   UNL     1     -10.360   6.473  68.292  1.00  0.00    -0.223 A  
HETATM   16  C   UNL     1     -10.896   6.297  67.004  1.00  0.00    -0.458 A  
HETATM   17  C   UNL     1     -10.603   5.151  66.264  1.00  0.00    -0.325 A  
HETATM   18  C   UNL     1      -9.579   5.444  68.846  1.00  0.00    -0.188 A  
HETATM   19  C   UNL     1      -9.289   4.296  68.105  1.00  0.00    -0.204 A  
HETATM   20 CL   UNL     1      -9.350   2.795  65.864  1.00  0.00    -0.083 Cl 
HETATM   21  C   UNL     1      -9.784   4.165  66.811  1.00  0.00    -0.210 A  
ENDBRANCH  14  15
BRANCH  14  22
HETATM   22  C   UNL     1     -10.489   7.706  70.527  1.00  0.00    -0.220 A  
HETATM   23  C   UNL     1      -9.220   7.676  72.468  1.00  0.00    -0.157 A  
HETATM   24  C   UNL     1     -11.573   7.381  72.652  1.00  0.00    -0.295 A  
HETATM   25  C   UNL     1     -11.656   7.498  71.268  1.00  0.00    -0.305 A  
HETATM   26  N   UNL     1      -9.269   7.799  71.124  1.00  0.00    -0.145 NA 
HETATM   27  C   UNL     1     -10.332   7.469  73.268  1.00  0.00    -0.412 A  
ENDBRANCH  14  22
ENDBRANCH  13  14
ENDBRANCH  10  13
ENDBRANCH   6   7
ENDBRANCH   5   6
ENDBRANCH   4   5
TORSDOF 7
ENDMDL
MODEL      118
REMARK 921   NORMALIZED FREE ENERGY PREDICTED BY IDOCK:   -4.26 KCAL/MOL
REMARK 922        TOTAL FREE ENERGY PREDICTED BY IDOCK:   -7.46 KCAL/MOL
REMARK 923 INTER-LIGAND FREE ENERGY PREDICTED BY IDOCK:   -6.62 KCAL/MOL
REMARK 924 INTRA-LIGAND FREE ENERGY PREDICTED BY IDOCK:   -0.84 KCAL/MOL
REMARK 927      BINDING AFFINITY PREDICTED BY RF-SCORE:    0.00 PKD
ROOT
HETATM    1  O   UNL     1     -14.354   9.054  72.615  1.00  0.00    -0.603 OA 
HETATM    2  C   UNL     1     -13.643   8.067  72.021  1.00  0.00    -0.248 C  
HETATM    3  O   UNL     1     -14.150   7.266  71.253  1.00  0.00    -0.384 OA 
HETATM    4  C   UNL     1     -12.189   8.102  72.418  1.00  0.00    -0.374 C  
ENDROOT
BRANCH   4   5
HETATM    5  C   UNL     1     -11.367   7.005  71.739  1.00  0.00    -0.291 C  
BRANCH   5   6
HETATM    6  C   UNL     1     -10.714   7.562  70.470  1.00  0.00    -0.235 C  
BRANCH   6   7
HETATM    7  N   UNL     1     -10.482   9.011  70.466  1.00  0.00    -0.209 NA 
HETATM    8  C   UNL     1      -9.074   9.418  70.343  1.00  0.00    -0.256 C  
HETATM    9  C   UNL     1      -8.474   9.151  68.962  1.00  0.00    -0.132 C  
HETATM   10  C   UNL     1      -9.305   9.804  67.853  1.00  0.00    -0.127 C  
HETATM   11  C   UNL     1     -10.770   9.380  67.995  1.00  0.00    -0.246 C  
HETATM   12  C   UNL     1     -11.280   9.669  69.411  1.00  0.00    -0.077 C  
BRANCH  10  13
HETATM   13  O   UNL     1      -9.310  11.238  67.887  1.00  0.00    -0.153 OA 
BRANCH  13  14
HETATM   14  C   UNL     1      -8.973  11.930  66.673  1.00  0.00    -0.198 C  
BRANCH  14  15
HETATM   15  C   UNL     1      -8.498  10.952  65.605  1.00  0.00    -0.139 A  
HETATM   16  C   UNL     1      -7.216  10.383  65.704  1.00  0.00    -0.146 A  
HETATM   17  C   UNL     1      -6.827   9.356  64.844  1.00  0.00    -0.093 A  
HETATM   18  C   UNL     1      -9.355  10.513  64.582  1.00  0.00    -0.294 A  
HETATM   19  C   UNL     1      -8.964   9.487  63.719  1.00  0.00    -0.211 A  
HETATM   20 CL   UNL     1      -7.264   7.573  62.866  1.00  0.00    -0.081 Cl 
HETATM   21  C   UNL     1      -7.710   8.899  63.867  1.00  0.00    -0.129 A  
ENDBRANCH  14  15
BRANCH  14  22
HETATM   22  C   UNL     1     -10.162  12.785  66.238  1.00  0.00    -0.253 A  
HETATM   23  C   UNL     1     -10.975  14.504  64.910  1.00  0.00    -0.410 A  
HETATM   24  C   UNL     1     -12.471  13.444  66.424  1.00  0.00    -0.297 A  
HETATM   25  C   UNL     1     -11.420  12.625  66.827  1.00  0.00    -0.410 A  
HETATM   26  N   UNL     1      -9.937  13.721  65.276  1.00  0.00    -0.263 NA 
HETATM   27  C   UNL     1     -12.247  14.405  65.447  1.00  0.00    -0.362 A  
ENDBRANCH  14  22
ENDBRANCH  13  14
ENDBRANCH  10  13
ENDBRANCH   6   7
ENDBRANCH   5   6
ENDBRANCH   4   5
TORSDOF 7
ENDMDL
MODEL      119
REMARK 921   NORMALIZED FREE ENERGY PREDICTED BY IDOCK:   -4.25 KCAL/MOL
REMARK 922        TOTAL FREE ENERGY PREDICTED BY IDOCK:   -7.45 KCAL/MOL
REMARK 923 INTER-LIGAND FREE ENERGY PREDICTED BY IDOCK:   -7.67 KCAL/MOL
REMARK 924 INTRA-LIGAND FREE ENERGY PREDICTED BY IDOCK:    0.21 KCAL/MOL
REMARK 927      BINDING AFFINITY PREDICTED BY RF-SCORE:    0.00 PKD
ROOT
HETATM    1  O   UNL     1     -11.962   6.260  72.040  1.00  0.00    -0.330 OA 
HETATM    2  C   UNL     1     -12.823   7.275  71.792  1.00  0.00    -0.331 C  
HETATM    3  O   UNL     1     -13.874   7.111  71.196  1.00  0.00    -0.293 OA 
HETATM    4  C   UNL     1     -12.322   8.586  72.343  1.00  0.00    -0.424 C  
ENDROOT
BRANCH   4   5
HETATM    5  C   UNL     1     -13.293   9.740  72.088  1.00  0.00    -0.527 C  
BRANCH   5   6
HETATM    6  C   UNL     1     -13.011  10.356  70.713  1.00  0.00    -0.341 C  
BRANCH   6   7
HETATM    7  N   UNL     1     -11.681  10.954  70.552  1.00  0.00    -0.337 NA 
HETATM    8  C   UNL     1     -10.655  10.057  69.998  1.00  0.00    -0.293 C  
HETATM    9  C   UNL     1     -10.865   9.721  68.520  1.00  0.00    -0.227 C  
HETATM   10  C   UNL     1     -10.969  10.988  67.665  1.00  0.00    -0.275 C  
HETATM   11  C   UNL     1     -12.033  11.918  68.256  1.00  0.00    -0.235 C  
HETATM   12  C   UNL     1     -11.753  12.185  69.740  1.00  0.00    -0.310 C  
BRANCH  10  13
HETATM   13  O   UNL     1      -9.763  11.763  67.612  1.00  0.00    -0.177 OA 
BRANCH  13  14
HETATM   14  C   UNL     1      -9.144  11.935  66.325  1.00  0.00    -0.188 C  
BRANCH  14  15
HETATM   15  C   UNL     1      -8.380  10.681  65.918  1.00  0.00    -0.161 A  
HETATM   16  C   UNL     1      -9.076   9.593  65.363  1.00  0.00    -0.265 A  
HETATM   17  C   UNL     1      -8.384   8.510  64.820  1.00  0.00    -0.163 A  
HETATM   18  C   UNL     1      -6.978  10.628  65.977  1.00  0.00    -0.128 A  
HETATM   19  C   UNL     1      -6.285   9.542  65.436  1.00  0.00    -0.067 A  
HETATM   20 CL   UNL     1      -6.136   7.206  64.093  1.00  0.00    -0.036 Cl 
HETATM   21  C   UNL     1      -6.991   8.498  64.842  1.00  0.00    -0.072 A  
ENDBRANCH  14  15
BRANCH  14  22
HETATM   22  C   UNL     1     -10.206  12.363  65.313  1.00  0.00    -0.282 A  
HETATM   23  C   UNL     1     -11.588  14.036  64.492  1.00  0.00    -0.391 A  
HETATM   24  C   UNL     1     -11.728  11.874  63.511  1.00  0.00    -0.550 A  
HETATM   25  C   UNL     1     -10.741  11.452  64.397  1.00  0.00    -0.405 A  
HETATM   26  N   UNL     1     -10.625  13.658  65.361  1.00  0.00    -0.304 NA 
HETATM   27  C   UNL     1     -12.163  13.192  63.558  1.00  0.00    -0.552 A  
ENDBRANCH  14  22
ENDBRANCH  13  14
ENDBRANCH  10  13
ENDBRANCH   6   7
ENDBRANCH   5   6
ENDBRANCH   4   5
TORSDOF 7
ENDMDL
MODEL      120
REMARK 921   NORMALIZED FREE ENERGY PREDICTED BY IDOCK:   -4.23 KCAL/MOL
REMARK 922        TOTAL FREE ENERGY PREDICTED BY IDOCK:   -7.42 KCAL/MOL
REMARK 923 INTER-LIGAND FREE ENERGY PREDICTED BY IDOCK:   -6.76 KCAL/MOL
REMARK 924 INTRA-LIGAND FREE ENERGY PREDICTED BY IDOCK:   -0.66 KCAL/MOL
REMARK 927      BINDING AFFINITY PREDICTED BY RF-SCORE:    0.00 PKD
ROOT
HETATM    1  O   UNL     1     -13.431  16.466  73.884  1.00  0.00    -0.560 OA 
HETATM    2  C   UNL     1     -12.807  15.471  73.211  1.00  0.00    -0.517 C  
HETATM    3  O   UNL     1     -11.617  15.237  73.344  1.00  0.00    -0.340 OA 
HETATM    4  C   UNL     1     -13.755  14.715  72.315  1.00  0.00    -0.565 C  
ENDROOT
BRANCH   4   5
HETATM    5  C   UNL     1     -13.069  13.574  71.561  1.00  0.00    -0.427 C  
BRANCH   5   6
HETATM    6  C   UNL     1     -12.872  13.971  70.094  1.00  0.00    -0.024 C  
BRANCH   6   7
HETATM    7  N   UNL     1     -11.496  13.870  69.594  1.00  0.00    -0.263 NA 
HETATM    8  C   UNL     1     -11.028  12.501  69.329  1.00  0.00    -0.080 C  
HETATM    9  C   UNL     1     -11.692  11.846  68.117  1.00  0.00    -0.388 C  
HETATM   10  C   UNL     1     -11.537  12.706  66.858  1.00  0.00    -0.373 C  
HETATM   11  C   UNL     1     -12.020  14.130  67.148  1.00  0.00    -0.460 C  
HETATM   12  C   UNL     1     -11.315  14.698  68.385  1.00  0.00    -0.292 C  
BRANCH  10  13
HETATM   13  O   UNL     1     -10.184  12.841  66.401  1.00  0.00    -0.244 OA 
BRANCH  13  14
HETATM   14  C   UNL     1      -9.207  11.940  66.951  1.00  0.00    -0.193 C  
BRANCH  14  15
HETATM   15  C   UNL     1      -8.704  10.970  65.890  1.00  0.00    -0.182 A  
HETATM   16  C   UNL     1      -9.580  10.523  64.885  1.00  0.00    -0.334 A  
HETATM   17  C   UNL     1      -9.103   9.780  63.804  1.00  0.00    -0.270 A  
HETATM   18  C   UNL     1      -7.351  10.599  65.820  1.00  0.00    -0.110 A  
HETATM   19  C   UNL     1      -6.874   9.853  64.740  1.00  0.00    -0.129 A  
HETATM   20 CL   UNL     1      -7.143   8.628  62.351  1.00  0.00    -0.097 Cl 
HETATM   21  C   UNL     1      -7.747   9.466  63.727  1.00  0.00    -0.120 A  
ENDBRANCH  14  15
BRANCH  14  22
HETATM   22  C   UNL     1      -8.097  12.753  67.617  1.00  0.00    -0.175 A  
HETATM   23  C   UNL     1      -6.369  12.837  69.162  1.00  0.00    -0.106 A  
HETATM   24  C   UNL     1      -6.897  14.814  67.950  1.00  0.00    -0.174 A  
HETATM   25  C   UNL     1      -7.900  14.101  67.301  1.00  0.00    -0.154 A  
HETATM   26  N   UNL     1      -7.331  12.116  68.545  1.00  0.00    -0.101 NA 
HETATM   27  C   UNL     1      -6.116  14.173  68.902  1.00  0.00    -0.085 A  
ENDBRANCH  14  22
ENDBRANCH  13  14
ENDBRANCH  10  13
ENDBRANCH   6   7
ENDBRANCH   5   6
ENDBRANCH   4   5
TORSDOF 7
ENDMDL
MODEL      121
REMARK 921   NORMALIZED FREE ENERGY PREDICTED BY IDOCK:   -4.22 KCAL/MOL
REMARK 922        TOTAL FREE ENERGY PREDICTED BY IDOCK:   -7.41 KCAL/MOL
REMARK 923 INTER-LIGAND FREE ENERGY PREDICTED BY IDOCK:   -6.67 KCAL/MOL
REMARK 924 INTRA-LIGAND FREE ENERGY PREDICTED BY IDOCK:   -0.73 KCAL/MOL
REMARK 927      BINDING AFFINITY PREDICTED BY RF-SCORE:    0.00 PKD
ROOT
HETATM    1  O   UNL     1      -9.203   3.998  71.552  1.00  0.00    -0.114 OA 
HETATM    2  C   UNL     1      -9.922   4.717  70.658  1.00  0.00    -0.223 C  
HETATM    3  O   UNL     1      -9.762   4.612  69.454  1.00  0.00    -0.171 OA 
HETATM    4  C   UNL     1     -10.916   5.625  71.335  1.00  0.00    -0.260 C  
ENDROOT
BRANCH   4   5
HETATM    5  C   UNL     1     -11.751   6.431  70.338  1.00  0.00    -0.389 C  
BRANCH   5   6
HETATM    6  C   UNL     1     -12.142   7.775  70.962  1.00  0.00    -0.244 C  
BRANCH   6   7
HETATM    7  N   UNL     1     -11.057   8.756  71.075  1.00  0.00    -0.256 NA 
HETATM    8  C   UNL     1     -10.061   8.714  69.994  1.00  0.00    -0.189 C  
HETATM    9  C   UNL     1     -10.592   9.211  68.648  1.00  0.00    -0.207 C  
HETATM   10  C   UNL     1     -11.181  10.620  68.762  1.00  0.00    -0.279 C  
HETATM   11  C   UNL     1     -12.210  10.655  69.895  1.00  0.00    -0.346 C  
HETATM   12  C   UNL     1     -11.597  10.126  71.197  1.00  0.00    -0.346 C  
BRANCH  10  13
HETATM   13  O   UNL     1     -10.219  11.636  69.080  1.00  0.00    -0.164 OA 
BRANCH  13  14
HETATM   14  C   UNL     1      -9.408  12.138  68.004  1.00  0.00    -0.197 C  
BRANCH  14  15
HETATM   15  C   UNL     1     -10.202  12.194  66.705  1.00  0.00    -0.223 A  
HETATM   16  C   UNL     1      -9.918  11.279  65.677  1.00  0.00    -0.292 A  
HETATM   17  C   UNL     1     -10.743  11.192  64.554  1.00  0.00    -0.368 A  
HETATM   18  C   UNL     1     -11.293  13.066  66.552  1.00  0.00    -0.359 A  
HETATM   19  C   UNL     1     -12.117  12.981  65.427  1.00  0.00    -0.490 A  
HETATM   20 CL   UNL     1     -12.919  11.862  63.106  1.00  0.00    -0.341 Cl 
HETATM   21  C   UNL     1     -11.851  12.031  64.445  1.00  0.00    -0.313 A  
ENDBRANCH  14  15
BRANCH  14  22
HETATM   22  C   UNL     1      -8.807  13.482  68.416  1.00  0.00    -0.146 A  
HETATM   23  C   UNL     1      -6.934  14.841  68.570  1.00  0.00    -0.108 A  
HETATM   24  C   UNL     1      -8.997  15.662  69.422  1.00  0.00    -0.265 A  
HETATM   25  C   UNL     1      -9.588  14.463  69.035  1.00  0.00    -0.059 A  
HETATM   26  N   UNL     1      -7.480  13.669  68.178  1.00  0.00    -0.110 NA 
HETATM   27  C   UNL     1      -7.643  15.857  69.187  1.00  0.00    -0.213 A  
ENDBRANCH  14  22
ENDBRANCH  13  14
ENDBRANCH  10  13
ENDBRANCH   6   7
ENDBRANCH   5   6
ENDBRANCH   4   5
TORSDOF 7
ENDMDL
MODEL      122
REMARK 921   NORMALIZED FREE ENERGY PREDICTED BY IDOCK:   -4.22 KCAL/MOL
REMARK 922        TOTAL FREE ENERGY PREDICTED BY IDOCK:   -7.40 KCAL/MOL
REMARK 923 INTER-LIGAND FREE ENERGY PREDICTED BY IDOCK:   -6.35 KCAL/MOL
REMARK 924 INTRA-LIGAND FREE ENERGY PREDICTED BY IDOCK:   -1.06 KCAL/MOL
REMARK 927      BINDING AFFINITY PREDICTED BY RF-SCORE:    0.00 PKD
ROOT
HETATM    1  O   UNL     1      -7.993   2.877  72.332  1.00  0.00    -0.054 OA 
HETATM    2  C   UNL     1      -7.983   4.101  72.910  1.00  0.00    -0.085 C  
HETATM    3  O   UNL     1      -6.950   4.666  73.229  1.00  0.00    -0.068 OA 
HETATM    4  C   UNL     1      -9.375   4.652  73.088  1.00  0.00    -0.134 C  
ENDROOT
BRANCH   4   5
HETATM    5  C   UNL     1      -9.379   6.045  73.721  1.00  0.00    -0.130 C  
BRANCH   5   6
HETATM    6  C   UNL     1     -10.685   6.766  73.369  1.00  0.00    -0.305 C  
BRANCH   6   7
HETATM    7  N   UNL     1     -11.024   6.792  71.942  1.00  0.00    -0.233 NA 
HETATM    8  C   UNL     1     -12.350   7.343  71.625  1.00  0.00    -0.341 C  
HETATM    9  C   UNL     1     -12.460   8.852  71.847  1.00  0.00    -0.445 C  
HETATM   10  C   UNL     1     -11.380   9.614  71.074  1.00  0.00    -0.374 C  
HETATM   11  C   UNL     1     -10.004   9.028  71.406  1.00  0.00    -0.388 C  
HETATM   12  C   UNL     1      -9.992   7.513  71.169  1.00  0.00    -0.180 C  
BRANCH  10  13
HETATM   13  O   UNL     1     -11.505   9.528  69.648  1.00  0.00    -0.108 OA 
BRANCH  13  14
HETATM   14  C   UNL     1     -10.441  10.086  68.857  1.00  0.00    -0.210 C  
BRANCH  14  15
HETATM   15  C   UNL     1      -9.828   9.027  67.949  1.00  0.00    -0.207 A  
HETATM   16  C   UNL     1     -10.592   7.909  67.570  1.00  0.00    -0.312 A  
HETATM   17  C   UNL     1     -10.120   7.021  66.602  1.00  0.00    -0.219 A  
HETATM   18  C   UNL     1      -8.553   9.197  67.384  1.00  0.00    -0.115 A  
HETATM   19  C   UNL     1      -8.079   8.306  66.418  1.00  0.00    -0.105 A  
HETATM   20 CL   UNL     1      -8.331   6.193  64.760  1.00  0.00    -0.112 Cl 
HETATM   21  C   UNL     1      -8.874   7.235  66.017  1.00  0.00    -0.136 A  
ENDBRANCH  14  15
BRANCH  14  22
HETATM   22  C   UNL     1     -10.966  11.310  68.107  1.00  0.00    -0.231 A  
HETATM   23  C   UNL     1     -11.868  13.445  68.203  1.00  0.00    -0.361 A  
HETATM   24  C   UNL     1     -11.558  12.445  66.067  1.00  0.00    -0.455 A  
HETATM   25  C   UNL     1     -11.048  11.322  66.711  1.00  0.00    -0.314 A  
HETATM   26  N   UNL     1     -11.372  12.371  68.856  1.00  0.00    -0.273 NA 
HETATM   27  C   UNL     1     -11.980  13.529  66.825  1.00  0.00    -0.453 A  
ENDBRANCH  14  22
ENDBRANCH  13  14
ENDBRANCH  10  13
ENDBRANCH   6   7
ENDBRANCH   5   6
ENDBRANCH   4   5
TORSDOF 7
ENDMDL
MODEL      123
REMARK 921   NORMALIZED FREE ENERGY PREDICTED BY IDOCK:   -4.21 KCAL/MOL
REMARK 922        TOTAL FREE ENERGY PREDICTED BY IDOCK:   -7.40 KCAL/MOL
REMARK 923 INTER-LIGAND FREE ENERGY PREDICTED BY IDOCK:   -6.14 KCAL/MOL
REMARK 924 INTRA-LIGAND FREE ENERGY PREDICTED BY IDOCK:   -1.25 KCAL/MOL
REMARK 927      BINDING AFFINITY PREDICTED BY RF-SCORE:    0.00 PKD
ROOT
HETATM    1  O   UNL     1      -9.661  11.248  62.668  1.00  0.00    -0.316 OA 
HETATM    2  C   UNL     1     -10.431  11.797  63.637  1.00  0.00    -0.439 C  
HETATM    3  O   UNL     1     -11.373  12.530  63.388  1.00  0.00    -0.466 OA 
HETATM    4  C   UNL     1      -9.982  11.382  65.015  1.00  0.00    -0.312 C  
ENDROOT
BRANCH   4   5
HETATM    5  C   UNL     1     -10.855  11.979  66.122  1.00  0.00    -0.325 C  
BRANCH   5   6
HETATM    6  C   UNL     1     -11.148  10.909  67.179  1.00  0.00    -0.240 C  
BRANCH   6   7
HETATM    7  N   UNL     1     -10.046  10.622  68.106  1.00  0.00    -0.155 NA 
HETATM    8  C   UNL     1     -10.380  10.751  69.532  1.00  0.00    -0.144 C  
HETATM    9  C   UNL     1     -11.318   9.658  70.047  1.00  0.00    -0.239 C  
HETATM   10  C   UNL     1     -10.759   8.260  69.766  1.00  0.00    -0.221 C  
HETATM   11  C   UNL     1     -10.408   8.138  68.280  1.00  0.00    -0.241 C  
HETATM   12  C   UNL     1      -9.481   9.281  67.850  1.00  0.00    -0.137 C  
BRANCH  10  13
HETATM   13  O   UNL     1      -9.551   7.955  70.477  1.00  0.00    -0.170 OA 
BRANCH  13  14
HETATM   14  C   UNL     1      -9.662   7.690  71.886  1.00  0.00    -0.164 C  
BRANCH  14  15
HETATM   15  C   UNL     1     -10.107   6.255  72.135  1.00  0.00    -0.203 A  
HETATM   16  C   UNL     1      -9.423   5.197  71.510  1.00  0.00    -0.197 A  
HETATM   17  C   UNL     1      -9.694   3.872  71.859  1.00  0.00    -0.239 A  
HETATM   18  C   UNL     1     -11.113   5.952  73.068  1.00  0.00    -0.289 A  
HETATM   19  C   UNL     1     -11.385   4.627  73.414  1.00  0.00    -0.394 A  
HETATM   20 CL   UNL     1     -10.930   1.969  73.318  1.00  0.00    -0.263 Cl 
HETATM   21  C   UNL     1     -10.660   3.595  72.823  1.00  0.00    -0.100 A  
ENDBRANCH  14  15
BRANCH  14  22
HETATM   22  C   UNL     1      -8.342   8.052  72.567  1.00  0.00    -0.157 A  
HETATM   23  C   UNL     1      -6.243   9.025  72.408  1.00  0.00     0.036 A  
HETATM   24  C   UNL     1      -6.858   7.999  74.463  1.00  0.00    -0.158 A  
HETATM   25  C   UNL     1      -8.084   7.675  73.888  1.00  0.00    -0.216 A  
HETATM   26  N   UNL     1      -7.425   8.731  71.824  1.00  0.00    -0.268 NA 
HETATM   27  C   UNL     1      -5.916   8.686  73.710  1.00  0.00    -0.126 A  
ENDBRANCH  14  22
ENDBRANCH  13  14
ENDBRANCH  10  13
ENDBRANCH   6   7
ENDBRANCH   5   6
ENDBRANCH   4   5
TORSDOF 7
ENDMDL
MODEL      124
REMARK 921   NORMALIZED FREE ENERGY PREDICTED BY IDOCK:   -4.20 KCAL/MOL
REMARK 922        TOTAL FREE ENERGY PREDICTED BY IDOCK:   -7.37 KCAL/MOL
REMARK 923 INTER-LIGAND FREE ENERGY PREDICTED BY IDOCK:   -6.35 KCAL/MOL
REMARK 924 INTRA-LIGAND FREE ENERGY PREDICTED BY IDOCK:   -1.02 KCAL/MOL
REMARK 927      BINDING AFFINITY PREDICTED BY RF-SCORE:    0.00 PKD
ROOT
HETATM    1  O   UNL     1      -6.316   5.519  64.651  1.00  0.00    -0.028 OA 
HETATM    2  C   UNL     1      -6.771   6.618  64.004  1.00  0.00    -0.044 C  
HETATM    3  O   UNL     1      -7.575   6.553  63.088  1.00  0.00    -0.068 OA 
HETATM    4  C   UNL     1      -6.175   7.886  64.559  1.00  0.00    -0.052 C  
ENDROOT
BRANCH   4   5
HETATM    5  C   UNL     1      -6.694   9.139  63.852  1.00  0.00    -0.089 C  
BRANCH   5   6
HETATM    6  C   UNL     1      -7.479  10.003  64.845  1.00  0.00    -0.140 C  
BRANCH   6   7
HETATM    7  N   UNL     1      -8.058   9.283  65.985  1.00  0.00    -0.109 NA 
HETATM    8  C   UNL     1      -7.863   9.925  67.294  1.00  0.00    -0.102 C  
HETATM    9  C   UNL     1      -8.677  11.207  67.479  1.00  0.00    -0.129 C  
HETATM   10  C   UNL     1     -10.169  10.966  67.232  1.00  0.00    -0.205 C  
HETATM   11  C   UNL     1     -10.360  10.291  65.870  1.00  0.00    -0.241 C  
HETATM   12  C   UNL     1      -9.497   9.027  65.769  1.00  0.00    -0.236 C  
BRANCH  10  13
HETATM   13  O   UNL     1     -10.791  10.096  68.187  1.00  0.00    -0.233 OA 
BRANCH  13  14
HETATM   14  C   UNL     1     -10.522  10.341  69.578  1.00  0.00    -0.244 C  
BRANCH  14  15
HETATM   15  C   UNL     1     -11.575  11.263  70.181  1.00  0.00    -0.393 A  
HETATM   16  C   UNL     1     -12.382  10.800  71.234  1.00  0.00    -0.470 A  
HETATM   17  C   UNL     1     -13.226  11.675  71.920  1.00  0.00    -0.475 A  
HETATM   18  C   UNL     1     -11.682  12.607  69.787  1.00  0.00    -0.354 A  
HETATM   19  C   UNL     1     -12.529  13.482  70.471  1.00  0.00    -0.373 A  
HETATM   20 CL   UNL     1     -14.253  14.114  72.448  1.00  0.00    -0.572 Cl 
HETATM   21  C   UNL     1     -13.281  13.017  71.547  1.00  0.00    -0.272 A  
ENDBRANCH  14  15
BRANCH  14  22
HETATM   22  C   UNL     1     -10.388   9.003  70.305  1.00  0.00    -0.209 A  
HETATM   23  C   UNL     1     -10.806   6.721  70.328  1.00  0.00    -0.270 A  
HETATM   24  C   UNL     1      -9.722   7.690  72.210  1.00  0.00    -0.226 A  
HETATM   25  C   UNL     1      -9.798   8.923  71.570  1.00  0.00    -0.384 A  
HETATM   26  N   UNL     1     -10.890   7.903  69.679  1.00  0.00    -0.218 NA 
HETATM   27  C   UNL     1     -10.237   6.565  71.580  1.00  0.00    -0.216 A  
ENDBRANCH  14  22
ENDBRANCH  13  14
ENDBRANCH  10  13
ENDBRANCH   6   7
ENDBRANCH   5   6
ENDBRANCH   4   5
TORSDOF 7
ENDMDL
MODEL      125
REMARK 921   NORMALIZED FREE ENERGY PREDICTED BY IDOCK:   -4.19 KCAL/MOL
REMARK 922        TOTAL FREE ENERGY PREDICTED BY IDOCK:   -7.36 KCAL/MOL
REMARK 923 INTER-LIGAND FREE ENERGY PREDICTED BY IDOCK:   -6.10 KCAL/MOL
REMARK 924 INTRA-LIGAND FREE ENERGY PREDICTED BY IDOCK:   -1.26 KCAL/MOL
REMARK 927      BINDING AFFINITY PREDICTED BY RF-SCORE:    0.00 PKD
ROOT
HETATM    1  O   UNL     1     -10.424  18.010  65.596  1.00  0.00    -0.619 OA 
HETATM    2  C   UNL     1      -9.732  17.131  66.359  1.00  0.00    -0.292 C  
HETATM    3  O   UNL     1      -9.154  17.463  67.380  1.00  0.00    -0.232 OA 
HETATM    4  C   UNL     1      -9.782  15.734  65.794  1.00  0.00    -0.372 C  
ENDROOT
BRANCH   4   5
HETATM    5  C   UNL     1      -9.020  14.724  66.656  1.00  0.00    -0.286 C  
BRANCH   5   6
HETATM    6  C   UNL     1      -9.670  13.342  66.524  1.00  0.00    -0.282 C  
BRANCH   6   7
HETATM    7  N   UNL     1      -9.613  12.503  67.726  1.00  0.00    -0.197 NA 
HETATM    8  C   UNL     1     -10.769  11.614  67.923  1.00  0.00    -0.202 C  
HETATM    9  C   UNL     1     -10.837  10.461  66.920  1.00  0.00    -0.229 C  
HETATM   10  C   UNL     1      -9.542   9.642  66.917  1.00  0.00    -0.167 C  
HETATM   11  C   UNL     1      -8.345  10.578  66.720  1.00  0.00    -0.128 C  
HETATM   12  C   UNL     1      -8.368  11.709  67.755  1.00  0.00    -0.143 C  
BRANCH  10  13
HETATM   13  O   UNL     1      -9.287   8.939  68.141  1.00  0.00    -0.142 OA 
BRANCH  13  14
HETATM   14  C   UNL     1     -10.015   7.719  68.367  1.00  0.00    -0.178 C  
BRANCH  14  15
HETATM   15  C   UNL     1      -9.139   6.505  68.085  1.00  0.00    -0.114 A  
HETATM   16  C   UNL     1      -9.389   5.718  66.947  1.00  0.00    -0.132 A  
HETATM   17  C   UNL     1      -8.498   4.712  66.570  1.00  0.00    -0.109 A  
HETATM   18  C   UNL     1      -8.013   6.216  68.872  1.00  0.00    -0.101 A  
HETATM   19  C   UNL     1      -7.123   5.207  68.497  1.00  0.00    -0.062 A  
HETATM   20 CL   UNL     1      -6.215   3.296  66.822  1.00  0.00    -0.027 Cl 
HETATM   21  C   UNL     1      -7.359   4.474  67.336  1.00  0.00    -0.073 A  
ENDBRANCH  14  15
BRANCH  14  22
HETATM   22  C   UNL     1     -10.600   7.741  69.778  1.00  0.00    -0.241 A  
HETATM   23  C   UNL     1     -10.709   8.773  71.853  1.00  0.00    -0.359 A  
HETATM   24  C   UNL     1     -11.955   6.775  71.520  1.00  0.00    -0.396 A  
HETATM   25  C   UNL     1     -11.466   6.735  70.217  1.00  0.00    -0.414 A  
HETATM   26  N   UNL     1     -10.222   8.765  70.593  1.00  0.00    -0.193 NA 
HETATM   27  C   UNL     1     -11.569   7.813  72.358  1.00  0.00    -0.410 A  
ENDBRANCH  14  22
ENDBRANCH  13  14
ENDBRANCH  10  13
ENDBRANCH   6   7
ENDBRANCH   5   6
ENDBRANCH   4   5
TORSDOF 7
ENDMDL
MODEL      126
REMARK 921   NORMALIZED FREE ENERGY PREDICTED BY IDOCK:   -4.17 KCAL/MOL
REMARK 922        TOTAL FREE ENERGY PREDICTED BY IDOCK:   -7.34 KCAL/MOL
REMARK 923 INTER-LIGAND FREE ENERGY PREDICTED BY IDOCK:   -6.37 KCAL/MOL
REMARK 924 INTRA-LIGAND FREE ENERGY PREDICTED BY IDOCK:   -0.97 KCAL/MOL
REMARK 927      BINDING AFFINITY PREDICTED BY RF-SCORE:    0.00 PKD
ROOT
HETATM    1  O   UNL     1     -12.268  15.376  69.075  1.00  0.00    -0.257 OA 
HETATM    2  C   UNL     1     -11.849  14.202  68.547  1.00  0.00    -0.355 C  
HETATM    3  O   UNL     1     -11.548  13.244  69.239  1.00  0.00    -0.279 OA 
HETATM    4  C   UNL     1     -11.816  14.241  67.040  1.00  0.00    -0.455 C  
ENDROOT
BRANCH   4   5
HETATM    5  C   UNL     1     -11.363  12.914  66.427  1.00  0.00    -0.361 C  
BRANCH   5   6
HETATM    6  C   UNL     1      -9.833  12.836  66.444  1.00  0.00    -0.269 C  
BRANCH   6   7
HETATM    7  N   UNL     1      -9.271  11.487  66.306  1.00  0.00    -0.207 NA 
HETATM    8  C   UNL     1      -8.132  11.191  67.188  1.00  0.00    -0.138 C  
HETATM    9  C   UNL     1      -8.514  11.060  68.664  1.00  0.00    -0.157 C  
HETATM   10  C   UNL     1      -9.617  10.017  68.868  1.00  0.00    -0.181 C  
HETATM   11  C   UNL     1     -10.795  10.330  67.939  1.00  0.00    -0.337 C  
HETATM   12  C   UNL     1     -10.317  10.460  66.488  1.00  0.00    -0.224 C  
BRANCH  10  13
HETATM   13  O   UNL     1      -9.224   8.674  68.556  1.00  0.00    -0.138 OA 
BRANCH  13  14
HETATM   14  C   UNL     1     -10.267   7.692  68.428  1.00  0.00    -0.198 C  
BRANCH  14  15
HETATM   15  C   UNL     1     -10.001   6.769  67.245  1.00  0.00    -0.206 A  
HETATM   16  C   UNL     1      -8.803   6.896  66.521  1.00  0.00    -0.148 A  
HETATM   17  C   UNL     1      -8.455   5.952  65.552  1.00  0.00    -0.154 A  
HETATM   18  C   UNL     1     -10.873   5.714  66.931  1.00  0.00    -0.287 A  
HETATM   19  C   UNL     1     -10.527   4.772  65.959  1.00  0.00    -0.332 A  
HETATM   20 CL   UNL     1      -8.841   3.673  64.161  1.00  0.00    -0.104 Cl 
HETATM   21  C   UNL     1      -9.310   4.884  65.290  1.00  0.00    -0.120 A  
ENDBRANCH  14  15
BRANCH  14  22
HETATM   22  C   UNL     1     -10.427   6.957  69.758  1.00  0.00    -0.217 A  
HETATM   23  C   UNL     1     -11.799   6.371  71.535  1.00  0.00    -0.298 A  
HETATM   24  C   UNL     1      -9.527   5.670  71.583  1.00  0.00    -0.173 A  
HETATM   25  C   UNL     1      -9.346   6.303  70.357  1.00  0.00    -0.171 A  
HETATM   26  N   UNL     1     -11.657   6.990  70.342  1.00  0.00    -0.309 NA 
HETATM   27  C   UNL     1     -10.776   5.705  72.188  1.00  0.00    -0.287 A  
ENDBRANCH  14  22
ENDBRANCH  13  14
ENDBRANCH  10  13
ENDBRANCH   6   7
ENDBRANCH   5   6
ENDBRANCH   4   5
TORSDOF 7
ENDMDL
MODEL      127
REMARK 921   NORMALIZED FREE ENERGY PREDICTED BY IDOCK:   -4.16 KCAL/MOL
REMARK 922        TOTAL FREE ENERGY PREDICTED BY IDOCK:   -7.32 KCAL/MOL
REMARK 923 INTER-LIGAND FREE ENERGY PREDICTED BY IDOCK:   -6.11 KCAL/MOL
REMARK 924 INTRA-LIGAND FREE ENERGY PREDICTED BY IDOCK:   -1.21 KCAL/MOL
REMARK 927      BINDING AFFINITY PREDICTED BY RF-SCORE:    0.00 PKD
ROOT
HETATM    1  O   UNL     1      -9.769  17.515  66.807  1.00  0.00    -0.271 OA 
HETATM    2  C   UNL     1      -9.030  16.473  67.255  1.00  0.00    -0.199 C  
HETATM    3  O   UNL     1      -8.258  16.573  68.194  1.00  0.00    -0.172 OA 
HETATM    4  C   UNL     1      -9.292  15.216  66.465  1.00  0.00    -0.308 C  
ENDROOT
BRANCH   4   5
HETATM    5  C   UNL     1      -8.479  14.023  66.971  1.00  0.00    -0.168 C  
BRANCH   5   6
HETATM    6  C   UNL     1      -9.383  12.790  67.073  1.00  0.00    -0.229 C  
BRANCH   6   7
HETATM    7  N   UNL     1      -9.641  12.309  68.435  1.00  0.00    -0.207 NA 
HETATM    8  C   UNL     1     -10.943  11.654  68.630  1.00  0.00    -0.220 C  
HETATM    9  C   UNL     1     -11.054  10.288  67.950  1.00  0.00    -0.341 C  
HETATM   10  C   UNL     1      -9.926   9.349  68.388  1.00  0.00    -0.170 C  
HETATM   11  C   UNL     1      -8.576  10.044  68.188  1.00  0.00    -0.118 C  
HETATM   12  C   UNL     1      -8.562  11.408  68.888  1.00  0.00    -0.014 C  
BRANCH  10  13
HETATM   13  O   UNL     1      -9.972   8.980  69.773  1.00  0.00    -0.184 OA 
BRANCH  13  14
HETATM   14  C   UNL     1     -10.752   7.824  70.125  1.00  0.00    -0.240 C  
BRANCH  14  15
HETATM   15  C   UNL     1      -9.884   6.767  70.796  1.00  0.00    -0.194 A  
HETATM   16  C   UNL     1      -9.258   5.782  70.012  1.00  0.00    -0.168 A  
HETATM   17  C   UNL     1      -8.321   4.916  70.577  1.00  0.00    -0.098 A  
HETATM   18  C   UNL     1      -9.599   6.820  72.171  1.00  0.00    -0.152 A  
HETATM   19  C   UNL     1      -8.664   5.950  72.736  1.00  0.00    -0.125 A  
HETATM   20 CL   UNL     1      -6.793   4.010  72.608  1.00  0.00    -0.048 Cl 
HETATM   21  C   UNL     1      -8.014   5.017  71.932  1.00  0.00    -0.111 A  
ENDBRANCH  14  15
BRANCH  14  22
HETATM   22  C   UNL     1     -11.947   8.267  70.969  1.00  0.00    -0.241 A  
HETATM   23  C   UNL     1     -13.992   7.733  71.924  1.00  0.00    -0.325 A  
HETATM   24  C   UNL     1     -13.164   9.946  72.192  1.00  0.00    -0.511 A  
HETATM   25  C   UNL     1     -12.046   9.575  71.451  1.00  0.00    -0.459 A  
HETATM   26  N   UNL     1     -12.916   7.341  71.207  1.00  0.00    -0.363 NA 
HETATM   27  C   UNL     1     -14.160   9.009  72.434  1.00  0.00    -0.478 A  
ENDBRANCH  14  22
ENDBRANCH  13  14
ENDBRANCH  10  13
ENDBRANCH   6   7
ENDBRANCH   5   6
ENDBRANCH   4   5
TORSDOF 7
ENDMDL
MODEL      128
REMARK 921   NORMALIZED FREE ENERGY PREDICTED BY IDOCK:   -4.14 KCAL/MOL
REMARK 922        TOTAL FREE ENERGY PREDICTED BY IDOCK:   -7.30 KCAL/MOL
REMARK 923 INTER-LIGAND FREE ENERGY PREDICTED BY IDOCK:   -5.99 KCAL/MOL
REMARK 924 INTRA-LIGAND FREE ENERGY PREDICTED BY IDOCK:   -1.31 KCAL/MOL
REMARK 927      BINDING AFFINITY PREDICTED BY RF-SCORE:    0.00 PKD
ROOT
HETATM    1  O   UNL     1     -10.113  17.760  66.125  1.00  0.00    -0.392 OA 
HETATM    2  C   UNL     1     -10.202  17.143  67.327  1.00  0.00    -0.316 C  
HETATM    3  O   UNL     1     -11.250  17.061  67.945  1.00  0.00    -0.222 OA 
HETATM    4  C   UNL     1      -8.875  16.585  67.774  1.00  0.00    -0.197 C  
ENDROOT
BRANCH   4   5
HETATM    5  C   UNL     1      -8.962  15.867  69.122  1.00  0.00    -0.256 C  
BRANCH   5   6
HETATM    6  C   UNL     1      -8.340  14.472  69.003  1.00  0.00    -0.061 C  
BRANCH   6   7
HETATM    7  N   UNL     1      -8.707  13.720  67.797  1.00  0.00    -0.170 NA 
HETATM    8  C   UNL     1      -7.921  12.500  67.558  1.00  0.00    -0.175 C  
HETATM    9  C   UNL     1      -8.217  11.373  68.550  1.00  0.00    -0.153 C  
HETATM   10  C   UNL     1      -9.710  11.035  68.588  1.00  0.00    -0.195 C  
HETATM   11  C   UNL     1     -10.519  12.313  68.829  1.00  0.00    -0.187 C  
HETATM   12  C   UNL     1     -10.146  13.389  67.801  1.00  0.00    -0.232 C  
BRANCH  10  13
HETATM   13  O   UNL     1     -10.219  10.478  67.368  1.00  0.00    -0.191 OA 
BRANCH  13  14
HETATM   14  C   UNL     1      -9.306   9.717  66.558  1.00  0.00    -0.162 C  
BRANCH  14  15
HETATM   15  C   UNL     1      -9.474   8.224  66.808  1.00  0.00    -0.256 A  
HETATM   16  C   UNL     1      -8.336   7.420  66.998  1.00  0.00    -0.121 A  
HETATM   17  C   UNL     1      -8.466   6.090  67.404  1.00  0.00    -0.104 A  
HETATM   18  C   UNL     1     -10.744   7.647  66.971  1.00  0.00    -0.340 A  
HETATM   19  C   UNL     1     -10.873   6.316  67.374  1.00  0.00    -0.448 A  
HETATM   20 CL   UNL     1      -9.892   3.941  68.197  1.00  0.00    -0.113 Cl 
HETATM   21  C   UNL     1      -9.734   5.551  67.609  1.00  0.00    -0.129 A  
ENDBRANCH  14  15
BRANCH  14  22
HETATM   22  C   UNL     1      -9.484  10.119  65.094  1.00  0.00    -0.260 A  
HETATM   23  C   UNL     1     -10.479  11.527  63.542  1.00  0.00    -0.428 A  
HETATM   24  C   UNL     1      -9.075   9.781  62.745  1.00  0.00    -0.286 A  
HETATM   25  C   UNL     1      -8.864   9.401  64.067  1.00  0.00    -0.210 A  
HETATM   26  N   UNL     1     -10.290  11.186  64.835  1.00  0.00    -0.296 NA 
HETATM   27  C   UNL     1      -9.900  10.864  62.473  1.00  0.00    -0.084 A  
ENDBRANCH  14  22
ENDBRANCH  13  14
ENDBRANCH  10  13
ENDBRANCH   6   7
ENDBRANCH   5   6
ENDBRANCH   4   5
TORSDOF 7
ENDMDL
MODEL      129
REMARK 921   NORMALIZED FREE ENERGY PREDICTED BY IDOCK:   -4.14 KCAL/MOL
REMARK 922        TOTAL FREE ENERGY PREDICTED BY IDOCK:   -7.29 KCAL/MOL
REMARK 923 INTER-LIGAND FREE ENERGY PREDICTED BY IDOCK:   -6.06 KCAL/MOL
REMARK 924 INTRA-LIGAND FREE ENERGY PREDICTED BY IDOCK:   -1.23 KCAL/MOL
REMARK 927      BINDING AFFINITY PREDICTED BY RF-SCORE:    0.00 PKD
ROOT
HETATM    1  O   UNL     1      -9.337   2.637  74.134  1.00  0.00    -0.080 OA 
HETATM    2  C   UNL     1      -9.830   3.372  73.110  1.00  0.00    -0.124 C  
HETATM    3  O   UNL     1      -9.722   3.027  71.945  1.00  0.00    -0.144 OA 
HETATM    4  C   UNL     1     -10.515   4.625  73.594  1.00  0.00    -0.281 C  
ENDROOT
BRANCH   4   5
HETATM    5  C   UNL     1     -11.096   5.457  72.449  1.00  0.00    -0.289 C  
BRANCH   5   6
HETATM    6  C   UNL     1     -10.071   6.505  72.003  1.00  0.00    -0.184 C  
BRANCH   6   7
HETATM    7  N   UNL     1     -10.594   7.867  71.842  1.00  0.00    -0.220 NA 
HETATM    8  C   UNL     1      -9.572   8.914  71.689  1.00  0.00    -0.293 C  
HETATM    9  C   UNL     1      -8.832   8.862  70.351  1.00  0.00    -0.204 C  
HETATM   10  C   UNL     1      -9.805   8.905  69.169  1.00  0.00    -0.180 C  
HETATM   11  C   UNL     1     -10.868   7.816  69.342  1.00  0.00    -0.121 C  
HETATM   12  C   UNL     1     -11.544   7.935  70.713  1.00  0.00    -0.247 C  
BRANCH  10  13
HETATM   13  O   UNL     1     -10.528  10.137  69.045  1.00  0.00    -0.194 OA 
BRANCH  13  14
HETATM   14  C   UNL     1      -9.837  11.252  68.455  1.00  0.00    -0.197 C  
BRANCH  14  15
HETATM   15  C   UNL     1      -9.653  11.047  66.957  1.00  0.00    -0.199 A  
HETATM   16  C   UNL     1     -10.756  11.190  66.096  1.00  0.00    -0.285 A  
HETATM   17  C   UNL     1     -10.581  11.185  64.711  1.00  0.00    -0.371 A  
HETATM   18  C   UNL     1      -8.383  10.832  66.398  1.00  0.00    -0.153 A  
HETATM   19  C   UNL     1      -8.208  10.823  65.013  1.00  0.00    -0.005 A  
HETATM   20 CL   UNL     1      -9.076  11.104  62.473  1.00  0.00    -0.373 Cl 
HETATM   21  C   UNL     1      -9.304  11.021  64.177  1.00  0.00    -0.210 A  
ENDBRANCH  14  15
BRANCH  14  22
HETATM   22  C   UNL     1     -10.574  12.542  68.814  1.00  0.00    -0.175 A  
HETATM   23  C   UNL     1     -10.667  14.857  68.703  1.00  0.00    -0.250 A  
HETATM   24  C   UNL     1     -12.360  13.717  69.923  1.00  0.00    -0.310 A  
HETATM   25  C   UNL     1     -11.734  12.518  69.594  1.00  0.00    -0.372 A  
HETATM   26  N   UNL     1     -10.040  13.710  68.363  1.00  0.00    -0.239 NA 
HETATM   27  C   UNL     1     -11.817  14.912  69.472  1.00  0.00    -0.360 A  
ENDBRANCH  14  22
ENDBRANCH  13  14
ENDBRANCH  10  13
ENDBRANCH   6   7
ENDBRANCH   5   6
ENDBRANCH   4   5
TORSDOF 7
ENDMDL
MODEL      130
REMARK 921   NORMALIZED FREE ENERGY PREDICTED BY IDOCK:   -4.12 KCAL/MOL
REMARK 922        TOTAL FREE ENERGY PREDICTED BY IDOCK:   -7.27 KCAL/MOL
REMARK 923 INTER-LIGAND FREE ENERGY PREDICTED BY IDOCK:   -5.75 KCAL/MOL
REMARK 924 INTRA-LIGAND FREE ENERGY PREDICTED BY IDOCK:   -1.52 KCAL/MOL
REMARK 927      BINDING AFFINITY PREDICTED BY RF-SCORE:    0.00 PKD
ROOT
HETATM    1  O   UNL     1     -11.570  15.718  68.394  1.00  0.00    -0.373 OA 
HETATM    2  C   UNL     1     -11.867  14.548  67.781  1.00  0.00    -0.357 C  
HETATM    3  O   UNL     1     -12.211  13.554  68.399  1.00  0.00    -0.315 OA 
HETATM    4  C   UNL     1     -11.728  14.645  66.283  1.00  0.00    -0.325 C  
ENDROOT
BRANCH   4   5
HETATM    5  C   UNL     1     -12.080  13.336  65.573  1.00  0.00    -0.480 C  
BRANCH   5   6
HETATM    6  C   UNL     1     -10.796  12.562  65.255  1.00  0.00    -0.286 C  
BRANCH   6   7
HETATM    7  N   UNL     1     -10.887  11.105  65.406  1.00  0.00    -0.194 NA 
HETATM    8  C   UNL     1      -9.847  10.338  64.702  1.00  0.00    -0.327 C  
HETATM    9  C   UNL     1      -8.454  10.481  65.317  1.00  0.00    -0.175 C  
HETATM   10  C   UNL     1      -8.456  10.115  66.804  1.00  0.00    -0.126 C  
HETATM   11  C   UNL     1      -9.547  10.913  67.526  1.00  0.00    -0.171 C  
HETATM   12  C   UNL     1     -10.901  10.723  66.833  1.00  0.00    -0.229 C  
BRANCH  10  13
HETATM   13  O   UNL     1      -8.743   8.736  67.071  1.00  0.00    -0.121 OA 
BRANCH  13  14
HETATM   14  C   UNL     1      -8.253   8.185  68.305  1.00  0.00    -0.129 C  
BRANCH  14  15
HETATM   15  C   UNL     1      -9.403   7.847  69.245  1.00  0.00    -0.148 A  
HETATM   16  C   UNL     1     -10.376   6.914  68.844  1.00  0.00    -0.198 A  
HETATM   17  C   UNL     1     -11.335   6.455  69.749  1.00  0.00    -0.494 A  
HETATM   18  C   UNL     1      -9.455   8.358  70.552  1.00  0.00    -0.186 A  
HETATM   19  C   UNL     1     -10.417   7.901  71.456  1.00  0.00    -0.251 A  
HETATM   20 CL   UNL     1     -12.462   6.305  72.195  1.00  0.00    -0.253 Cl 
HETATM   21  C   UNL     1     -11.338   6.937  71.056  1.00  0.00    -0.299 A  
ENDBRANCH  14  15
BRANCH  14  22
HETATM   22  C   UNL     1      -7.343   6.996  67.995  1.00  0.00    -0.097 A  
HETATM   23  C   UNL     1      -6.594   5.437  66.450  1.00  0.00    -0.056 A  
HETATM   24  C   UNL     1      -5.747   5.324  68.669  1.00  0.00    -0.016 A  
HETATM   25  C   UNL     1      -6.539   6.423  68.985  1.00  0.00    -0.048 A  
HETATM   26  N   UNL     1      -7.370   6.508  66.724  1.00  0.00    -0.077 NA 
HETATM   27  C   UNL     1      -5.774   4.817  67.377  1.00  0.00    -0.021 A  
ENDBRANCH  14  22
ENDBRANCH  13  14
ENDBRANCH  10  13
ENDBRANCH   6   7
ENDBRANCH   5   6
ENDBRANCH   4   5
TORSDOF 7
ENDMDL
MODEL      131
REMARK 921   NORMALIZED FREE ENERGY PREDICTED BY IDOCK:   -4.11 KCAL/MOL
REMARK 922        TOTAL FREE ENERGY PREDICTED BY IDOCK:   -7.25 KCAL/MOL
REMARK 923 INTER-LIGAND FREE ENERGY PREDICTED BY IDOCK:   -6.41 KCAL/MOL
REMARK 924 INTRA-LIGAND FREE ENERGY PREDICTED BY IDOCK:   -0.83 KCAL/MOL
REMARK 927      BINDING AFFINITY PREDICTED BY RF-SCORE:    0.00 PKD
ROOT
HETATM    1  O   UNL     1      -7.178   5.643  69.096  1.00  0.00    -0.066 OA 
HETATM    2  C   UNL     1      -8.082   6.035  68.168  1.00  0.00    -0.110 C  
HETATM    3  O   UNL     1      -9.285   5.974  68.359  1.00  0.00    -0.116 OA 
HETATM    4  C   UNL     1      -7.418   6.545  66.914  1.00  0.00    -0.084 C  
ENDROOT
BRANCH   4   5
HETATM    5  C   UNL     1      -8.426   7.010  65.862  1.00  0.00    -0.151 C  
BRANCH   5   6
HETATM    6  C   UNL     1      -8.483   8.542  65.845  1.00  0.00    -0.152 C  
BRANCH   6   7
HETATM    7  N   UNL     1      -9.775   9.128  66.220  1.00  0.00    -0.254 NA 
HETATM    8  C   UNL     1      -9.835   9.693  67.576  1.00  0.00    -0.169 C  
HETATM    9  C   UNL     1      -9.018  10.975  67.746  1.00  0.00    -0.140 C  
HETATM   10  C   UNL     1      -9.419  12.038  66.718  1.00  0.00    -0.208 C  
HETATM   11  C   UNL     1      -9.360  11.436  65.311  1.00  0.00    -0.192 C  
HETATM   12  C   UNL     1     -10.192  10.150  65.238  1.00  0.00    -0.191 C  
BRANCH  10  13
HETATM   13  O   UNL     1     -10.756  12.532  66.874  1.00  0.00    -0.237 OA 
BRANCH  13  14
HETATM   14  C   UNL     1     -10.913  13.859  67.407  1.00  0.00    -0.288 C  
BRANCH  14  15
HETATM   15  C   UNL     1     -11.518  13.815  68.804  1.00  0.00    -0.338 A  
HETATM   16  C   UNL     1     -11.929  15.009  69.421  1.00  0.00    -0.336 A  
HETATM   17  C   UNL     1     -12.646  14.980  70.618  1.00  0.00    -0.429 A  
HETATM   18  C   UNL     1     -11.785  12.595  69.448  1.00  0.00    -0.387 A  
HETATM   19  C   UNL     1     -12.499  12.566  70.647  1.00  0.00    -0.323 A  
HETATM   20 CL   UNL     1     -13.905  13.717  72.643  1.00  0.00    -0.603 Cl 
HETATM   21  C   UNL     1     -12.944  13.757  71.216  1.00  0.00    -0.334 A  
ENDBRANCH  14  15
BRANCH  14  22
HETATM   22  C   UNL     1      -9.570  14.585  67.341  1.00  0.00    -0.212 A  
HETATM   23  C   UNL     1      -7.522  15.038  68.333  1.00  0.00    -0.113 A  
HETATM   24  C   UNL     1      -8.042  16.112  66.275  1.00  0.00    -0.210 A  
HETATM   25  C   UNL     1      -9.265  15.447  66.284  1.00  0.00    -0.354 A  
HETATM   26  N   UNL     1      -8.698  14.375  68.366  1.00  0.00    -0.176 NA 
HETATM   27  C   UNL     1      -7.152  15.907  67.321  1.00  0.00    -0.242 A  
ENDBRANCH  14  22
ENDBRANCH  13  14
ENDBRANCH  10  13
ENDBRANCH   6   7
ENDBRANCH   5   6
ENDBRANCH   4   5
TORSDOF 7
ENDMDL
MODEL      132
REMARK 921   NORMALIZED FREE ENERGY PREDICTED BY IDOCK:   -4.10 KCAL/MOL
REMARK 922        TOTAL FREE ENERGY PREDICTED BY IDOCK:   -7.24 KCAL/MOL
REMARK 923 INTER-LIGAND FREE ENERGY PREDICTED BY IDOCK:   -6.40 KCAL/MOL
REMARK 924 INTRA-LIGAND FREE ENERGY PREDICTED BY IDOCK:   -0.84 KCAL/MOL
REMARK 927      BINDING AFFINITY PREDICTED BY RF-SCORE:    0.00 PKD
ROOT
HETATM    1  O   UNL     1      -8.123  18.076  66.625  1.00  0.00    -0.239 OA 
HETATM    2  C   UNL     1      -9.404  17.682  66.819  1.00  0.00    -0.278 C  
HETATM    3  O   UNL     1     -10.291  18.464  67.116  1.00  0.00    -0.358 OA 
HETATM    4  C   UNL     1      -9.574  16.198  66.614  1.00  0.00    -0.263 C  
ENDROOT
BRANCH   4   5
HETATM    5  C   UNL     1     -11.020  15.739  66.810  1.00  0.00    -0.192 C  
BRANCH   5   6
HETATM    6  C   UNL     1     -11.436  14.836  65.643  1.00  0.00    -0.327 C  
BRANCH   6   7
HETATM    7  N   UNL     1     -11.702  13.437  65.995  1.00  0.00    -0.346 NA 
HETATM    8  C   UNL     1     -12.329  12.634  64.934  1.00  0.00    -0.498 C  
HETATM    9  C   UNL     1     -11.398  12.334  63.757  1.00  0.00    -0.534 C  
HETATM   10  C   UNL     1     -10.102  11.664  64.223  1.00  0.00    -0.287 C  
HETATM   11  C   UNL     1      -9.462  12.503  65.334  1.00  0.00     0.091 C  
HETATM   12  C   UNL     1     -10.470  12.768  66.459  1.00  0.00    -0.263 C  
BRANCH  10  13
HETATM   13  O   UNL     1     -10.284  10.355  64.782  1.00  0.00    -0.345 OA 
BRANCH  13  14
HETATM   14  C   UNL     1      -9.300   9.898  65.727  1.00  0.00    -0.204 C  
BRANCH  14  15
HETATM   15  C   UNL     1      -9.924   8.950  66.744  1.00  0.00    -0.338 A  
HETATM   16  C   UNL     1     -10.127   7.601  66.403  1.00  0.00    -0.097 A  
HETATM   17  C   UNL     1     -10.528   6.677  67.369  1.00  0.00    -0.325 A  
HETATM   18  C   UNL     1     -10.197   9.364  68.058  1.00  0.00    -0.248 A  
HETATM   19  C   UNL     1     -10.602   8.439  69.024  1.00  0.00    -0.172 A  
HETATM   20 CL   UNL     1     -11.151   5.944  69.890  1.00  0.00    -0.445 Cl 
HETATM   21  C   UNL     1     -10.744   7.098  68.680  1.00  0.00    -0.163 A  
ENDBRANCH  14  15
BRANCH  14  22
HETATM   22  C   UNL     1      -8.121   9.293  64.966  1.00  0.00    -0.127 A  
HETATM   23  C   UNL     1      -5.848   8.832  64.894  1.00  0.00    -0.059 A  
HETATM   24  C   UNL     1      -7.182   8.233  63.018  1.00  0.00    -0.097 A  
HETATM   25  C   UNL     1      -8.287   8.747  63.690  1.00  0.00    -0.146 A  
HETATM   26  N   UNL     1      -6.903   9.334  65.573  1.00  0.00    -0.073 NA 
HETATM   27  C   UNL     1      -5.936   8.276  63.629  1.00  0.00    -0.071 A  
ENDBRANCH  14  22
ENDBRANCH  13  14
ENDBRANCH  10  13
ENDBRANCH   6   7
ENDBRANCH   5   6
ENDBRANCH   4   5
TORSDOF 7
ENDMDL
MODEL      133
REMARK 921   NORMALIZED FREE ENERGY PREDICTED BY IDOCK:   -4.10 KCAL/MOL
REMARK 922        TOTAL FREE ENERGY PREDICTED BY IDOCK:   -7.24 KCAL/MOL
REMARK 923 INTER-LIGAND FREE ENERGY PREDICTED BY IDOCK:   -6.10 KCAL/MOL
REMARK 924 INTRA-LIGAND FREE ENERGY PREDICTED BY IDOCK:   -1.14 KCAL/MOL
REMARK 927      BINDING AFFINITY PREDICTED BY RF-SCORE:    0.00 PKD
ROOT
HETATM    1  O   UNL     1     -13.285  12.299  64.039  1.00  0.00    -0.757 OA 
HETATM    2  C   UNL     1     -12.668  13.292  64.722  1.00  0.00    -0.274 C  
HETATM    3  O   UNL     1     -13.262  14.015  65.503  1.00  0.00    -0.710 OA 
HETATM    4  C   UNL     1     -11.197  13.369  64.399  1.00  0.00    -0.408 C  
ENDROOT
BRANCH   4   5
HETATM    5  C   UNL     1     -10.482  14.474  65.178  1.00  0.00    -0.439 C  
BRANCH   5   6
HETATM    6  C   UNL     1      -9.980  13.919  66.515  1.00  0.00    -0.285 C  
BRANCH   6   7
HETATM    7  N   UNL     1      -9.350  12.595  66.451  1.00  0.00    -0.226 NA 
HETATM    8  C   UNL     1      -8.078  12.472  67.178  1.00  0.00    -0.156 C  
HETATM    9  C   UNL     1      -8.233  12.506  68.700  1.00  0.00     0.001 C  
HETATM   10  C   UNL     1      -9.220  11.442  69.189  1.00  0.00     0.179 C  
HETATM   11  C   UNL     1     -10.538  11.574  68.419  1.00  0.00    -0.227 C  
HETATM   12  C   UNL     1     -10.285  11.546  66.907  1.00  0.00    -0.217 C  
BRANCH  10  13
HETATM   13  O   UNL     1      -8.782  10.092  68.979  1.00  0.00    -0.140 OA 
BRANCH  13  14
HETATM   14  C   UNL     1      -9.373   9.070  69.800  1.00  0.00    -0.171 C  
BRANCH  14  15
HETATM   15  C   UNL     1      -9.766   7.860  68.963  1.00  0.00    -0.162 A  
HETATM   16  C   UNL     1      -9.993   8.014  67.584  1.00  0.00    -0.234 A  
HETATM   17  C   UNL     1     -10.178   6.898  66.766  1.00  0.00    -0.276 A  
HETATM   18  C   UNL     1      -9.796   6.568  69.513  1.00  0.00    -0.167 A  
HETATM   19  C   UNL     1      -9.985   5.452  68.695  1.00  0.00    -0.232 A  
HETATM   20 CL   UNL     1     -10.292   4.243  66.302  1.00  0.00    -0.140 Cl 
HETATM   21  C   UNL     1     -10.154   5.621  67.323  1.00  0.00    -0.177 A  
ENDBRANCH  14  15
BRANCH  14  22
HETATM   22  C   UNL     1      -8.419   8.740  70.949  1.00  0.00    -0.175 A  
HETATM   23  C   UNL     1      -8.125   8.341  73.215  1.00  0.00    -0.160 A  
HETATM   24  C   UNL     1      -6.206   8.340  71.809  1.00  0.00    -0.050 A  
HETATM   25  C   UNL     1      -7.044   8.613  70.732  1.00  0.00    -0.061 A  
HETATM   26  N   UNL     1      -8.964   8.600  72.189  1.00  0.00    -0.330 NA 
HETATM   27  C   UNL     1      -6.754   8.202  73.077  1.00  0.00    -0.109 A  
ENDBRANCH  14  22
ENDBRANCH  13  14
ENDBRANCH  10  13
ENDBRANCH   6   7
ENDBRANCH   5   6
ENDBRANCH   4   5
TORSDOF 7
ENDMDL
MODEL      134
REMARK 921   NORMALIZED FREE ENERGY PREDICTED BY IDOCK:   -4.04 KCAL/MOL
REMARK 922        TOTAL FREE ENERGY PREDICTED BY IDOCK:   -7.16 KCAL/MOL
REMARK 923 INTER-LIGAND FREE ENERGY PREDICTED BY IDOCK:   -6.07 KCAL/MOL
REMARK 924 INTRA-LIGAND FREE ENERGY PREDICTED BY IDOCK:   -1.08 KCAL/MOL
REMARK 927      BINDING AFFINITY PREDICTED BY RF-SCORE:    0.00 PKD
ROOT
HETATM    1  O   UNL     1      -9.903   4.027  70.839  1.00  0.00    -0.185 OA 
HETATM    2  C   UNL     1      -9.661   5.052  71.690  1.00  0.00    -0.170 C  
HETATM    3  O   UNL     1      -8.765   5.019  72.516  1.00  0.00    -0.119 OA 
HETATM    4  C   UNL     1     -10.616   6.199  71.475  1.00  0.00    -0.288 C  
ENDROOT
BRANCH   4   5
HETATM    5  C   UNL     1     -10.344   7.374  72.417  1.00  0.00    -0.263 C  
BRANCH   5   6
HETATM    6  C   UNL     1     -10.107   8.646  71.596  1.00  0.00    -0.294 C  
BRANCH   6   7
HETATM    7  N   UNL     1     -10.510   8.571  70.187  1.00  0.00    -0.215 NA 
HETATM    8  C   UNL     1     -11.561   9.518  69.786  1.00  0.00     0.077 C  
HETATM    9  C   UNL     1     -11.096  10.975  69.747  1.00  0.00    -0.303 C  
HETATM   10  C   UNL     1      -9.867  11.148  68.849  1.00  0.00    -0.162 C  
HETATM   11  C   UNL     1      -8.782  10.152  69.270  1.00  0.00    -0.186 C  
HETATM   12  C   UNL     1      -9.341   8.724  69.297  1.00  0.00    -0.149 C  
BRANCH  10  13
HETATM   13  O   UNL     1     -10.112  10.890  67.459  1.00  0.00    -0.177 OA 
BRANCH  13  14
HETATM   14  C   UNL     1      -9.450  11.737  66.504  1.00  0.00    -0.214 C  
BRANCH  14  15
HETATM   15  C   UNL     1      -8.685  10.907  65.481  1.00  0.00    -0.178 A  
HETATM   16  C   UNL     1      -7.346  10.558  65.730  1.00  0.00    -0.137 A  
HETATM   17  C   UNL     1      -6.681   9.654  64.900  1.00  0.00    -0.104 A  
HETATM   18  C   UNL     1      -9.320  10.381  64.344  1.00  0.00    -0.321 A  
HETATM   19  C   UNL     1      -8.653   9.479  63.511  1.00  0.00    -0.221 A  
HETATM   20 CL   UNL     1      -6.555   7.922  62.836  1.00  0.00    -0.079 Cl 
HETATM   21  C   UNL     1      -7.345   9.104  63.806  1.00  0.00    -0.100 A  
ENDBRANCH  14  15
BRANCH  14  22
HETATM   22  C   UNL     1     -10.475  12.686  65.883  1.00  0.00    -0.274 A  
HETATM   23  C   UNL     1     -11.016  14.839  65.210  1.00  0.00    -0.374 A  
HETATM   24  C   UNL     1     -12.662  13.138  64.982  1.00  0.00    -0.456 A  
HETATM   25  C   UNL     1     -11.747  12.236  65.517  1.00  0.00    -0.433 A  
HETATM   26  N   UNL     1     -10.104  13.987  65.727  1.00  0.00    -0.321 NA 
HETATM   27  C   UNL     1     -12.293  14.467  64.826  1.00  0.00    -0.427 A  
ENDBRANCH  14  22
ENDBRANCH  13  14
ENDBRANCH  10  13
ENDBRANCH   6   7
ENDBRANCH   5   6
ENDBRANCH   4   5
TORSDOF 7
ENDMDL
MODEL      135
REMARK 921   NORMALIZED FREE ENERGY PREDICTED BY IDOCK:   -4.01 KCAL/MOL
REMARK 922        TOTAL FREE ENERGY PREDICTED BY IDOCK:   -7.11 KCAL/MOL
REMARK 923 INTER-LIGAND FREE ENERGY PREDICTED BY IDOCK:   -6.60 KCAL/MOL
REMARK 924 INTRA-LIGAND FREE ENERGY PREDICTED BY IDOCK:   -0.50 KCAL/MOL
REMARK 927      BINDING AFFINITY PREDICTED BY RF-SCORE:    0.00 PKD
ROOT
HETATM    1  O   UNL     1     -11.421   3.656  73.487  1.00  0.00    -0.212 OA 
HETATM    2  C   UNL     1     -10.712   4.562  72.773  1.00  0.00    -0.186 C  
HETATM    3  O   UNL     1     -10.142   4.276  71.733  1.00  0.00    -0.184 OA 
HETATM    4  C   UNL     1     -10.732   5.926  73.415  1.00  0.00    -0.293 C  
ENDROOT
BRANCH   4   5
HETATM    5  C   UNL     1      -9.952   6.967  72.610  1.00  0.00    -0.196 C  
BRANCH   5   6
HETATM    6  C   UNL     1     -10.820   8.213  72.401  1.00  0.00    -0.339 C  
BRANCH   6   7
HETATM    7  N   UNL     1     -11.620   8.223  71.170  1.00  0.00    -0.276 NA 
HETATM    8  C   UNL     1     -11.950   9.559  70.651  1.00  0.00    -0.197 C  
HETATM    9  C   UNL     1     -10.749  10.310  70.073  1.00  0.00    -0.345 C  
HETATM   10  C   UNL     1     -10.041   9.489  68.991  1.00  0.00    -0.193 C  
HETATM   11  C   UNL     1      -9.709   8.097  69.540  1.00  0.00    -0.170 C  
HETATM   12  C   UNL     1     -10.965   7.429  70.111  1.00  0.00    -0.255 C  
BRANCH  10  13
HETATM   13  O   UNL     1     -10.828   9.263  67.813  1.00  0.00    -0.237 OA 
BRANCH  13  14
HETATM   14  C   UNL     1     -10.208   9.530  66.543  1.00  0.00    -0.237 C  
BRANCH  14  15
HETATM   15  C   UNL     1     -10.620  10.897  66.014  1.00  0.00    -0.254 A  
HETATM   16  C   UNL     1     -10.442  11.198  64.652  1.00  0.00    -0.400 A  
HETATM   17  C   UNL     1     -10.972  12.369  64.108  1.00  0.00    -0.416 A  
HETATM   18  C   UNL     1     -11.283  11.829  66.831  1.00  0.00    -0.387 A  
HETATM   19  C   UNL     1     -11.809  13.002  66.287  1.00  0.00    -0.466 A  
HETATM   20 CL   UNL     1     -12.400  14.655  64.237  1.00  0.00    -0.476 Cl 
HETATM   21  C   UNL     1     -11.670  13.256  64.925  1.00  0.00    -0.342 A  
ENDBRANCH  14  15
BRANCH  14  22
HETATM   22  C   UNL     1      -8.696   9.353  66.679  1.00  0.00    -0.131 A  
HETATM   23  C   UNL     1      -6.854   7.950  66.537  1.00  0.00    -0.070 A  
HETATM   24  C   UNL     1      -6.513  10.194  67.248  1.00  0.00    -0.068 A  
HETATM   25  C   UNL     1      -7.881  10.404  67.109  1.00  0.00    -0.110 A  
HETATM   26  N   UNL     1      -8.185   8.125  66.388  1.00  0.00    -0.105 NA 
HETATM   27  C   UNL     1      -5.985   8.943  66.958  1.00  0.00    -0.057 A  
ENDBRANCH  14  22
ENDBRANCH  13  14
ENDBRANCH  10  13
ENDBRANCH   6   7
ENDBRANCH   5   6
ENDBRANCH   4   5
TORSDOF 7
ENDMDL
MODEL      136
REMARK 921   NORMALIZED FREE ENERGY PREDICTED BY IDOCK:   -3.96 KCAL/MOL
REMARK 922        TOTAL FREE ENERGY PREDICTED BY IDOCK:   -7.04 KCAL/MOL
REMARK 923 INTER-LIGAND FREE ENERGY PREDICTED BY IDOCK:   -6.03 KCAL/MOL
REMARK 924 INTRA-LIGAND FREE ENERGY PREDICTED BY IDOCK:   -1.01 KCAL/MOL
REMARK 927      BINDING AFFINITY PREDICTED BY RF-SCORE:    0.00 PKD
ROOT
HETATM    1  O   UNL     1     -12.530   8.652  71.986  1.00  0.00    -0.326 OA 
HETATM    2  C   UNL     1     -13.063   9.622  71.206  1.00  0.00    -0.357 C  
HETATM    3  O   UNL     1     -14.229   9.609  70.849  1.00  0.00     0.060 OA 
HETATM    4  C   UNL     1     -12.052  10.686  70.860  1.00  0.00    -0.489 C  
ENDROOT
BRANCH   4   5
HETATM    5  C   UNL     1     -12.644  11.801  69.995  1.00  0.00    -0.007 C  
BRANCH   5   6
HETATM    6  C   UNL     1     -11.702  12.097  68.823  1.00  0.00    -0.321 C  
BRANCH   6   7
HETATM    7  N   UNL     1     -10.542  12.937  69.144  1.00  0.00    -0.037 NA 
HETATM    8  C   UNL     1      -9.482  12.953  68.125  1.00  0.00    -0.218 C  
HETATM    9  C   UNL     1      -9.870  13.691  66.843  1.00  0.00    -0.261 C  
HETATM   10  C   UNL     1     -10.335  15.121  67.136  1.00  0.00    -0.263 C  
HETATM   11  C   UNL     1     -11.433  15.093  68.203  1.00  0.00    -0.356 C  
HETATM   12  C   UNL     1     -10.963  14.321  69.442  1.00  0.00    -0.209 C  
BRANCH  10  13
HETATM   13  O   UNL     1      -9.310  15.978  67.657  1.00  0.00    -0.212 OA 
BRANCH  13  14
HETATM   14  C   UNL     1      -8.007  15.894  67.052  1.00  0.00    -0.235 C  
BRANCH  14  15
HETATM   15  C   UNL     1      -7.533  17.267  66.592  1.00  0.00    -0.287 A  
HETATM   16  C   UNL     1      -6.206  17.434  66.157  1.00  0.00    -0.204 A  
HETATM   17  C   UNL     1      -5.798  18.630  65.565  1.00  0.00    -0.252 A  
HETATM   18  C   UNL     1      -8.422  18.348  66.479  1.00  0.00    -0.287 A  
HETATM   19  C   UNL     1      -8.012  19.546  65.890  1.00  0.00    -0.233 A  
HETATM   20 CL   UNL     1      -6.230  21.114  64.606  1.00  0.00    -0.249 Cl 
HETATM   21  C   UNL     1      -6.709  19.674  65.416  1.00  0.00    -0.288 A  
ENDBRANCH  14  15
BRANCH  14  22
HETATM   22  C   UNL     1      -7.049  15.207  68.025  1.00  0.00    -0.128 A  
HETATM   23  C   UNL     1      -5.458  13.559  68.393  1.00  0.00    -0.095 A  
HETATM   24  C   UNL     1      -6.120  14.920  70.228  1.00  0.00    -0.158 A  
HETATM   25  C   UNL     1      -6.985  15.590  69.368  1.00  0.00    -0.187 A  
HETATM   26  N   UNL     1      -6.284  14.194  67.532  1.00  0.00    -0.337 NA 
HETATM   27  C   UNL     1      -5.341  13.882  69.734  1.00  0.00    -0.094 A  
ENDBRANCH  14  22
ENDBRANCH  13  14
ENDBRANCH  10  13
ENDBRANCH   6   7
ENDBRANCH   5   6
ENDBRANCH   4   5
TORSDOF 7
ENDMDL
MODEL      137
REMARK 921   NORMALIZED FREE ENERGY PREDICTED BY IDOCK:   -3.93 KCAL/MOL
REMARK 922        TOTAL FREE ENERGY PREDICTED BY IDOCK:   -7.00 KCAL/MOL
REMARK 923 INTER-LIGAND FREE ENERGY PREDICTED BY IDOCK:   -6.13 KCAL/MOL
REMARK 924 INTRA-LIGAND FREE ENERGY PREDICTED BY IDOCK:   -0.87 KCAL/MOL
REMARK 927      BINDING AFFINITY PREDICTED BY RF-SCORE:    0.00 PKD
ROOT
HETATM    1  O   UNL     1      -9.557   2.241  68.209  1.00  0.00    -0.211 OA 
HETATM    2  C   UNL     1      -9.407   3.191  67.257  1.00  0.00    -0.179 C  
HETATM    3  O   UNL     1      -9.322   2.922  66.071  1.00  0.00    -0.133 OA 
HETATM    4  C   UNL     1      -9.371   4.579  67.846  1.00  0.00    -0.178 C  
ENDROOT
BRANCH   4   5
HETATM    5  C   UNL     1      -9.222   5.667  66.781  1.00  0.00    -0.130 C  
BRANCH   5   6
HETATM    6  C   UNL     1      -9.913   6.949  67.255  1.00  0.00    -0.172 C  
BRANCH   6   7
HETATM    7  N   UNL     1      -9.022   8.084  67.521  1.00  0.00    -0.137 NA 
HETATM    8  C   UNL     1      -8.874   9.037  66.411  1.00  0.00    -0.146 C  
HETATM    9  C   UNL     1     -10.127   9.872  66.144  1.00  0.00    -0.315 C  
HETATM   10  C   UNL     1     -10.591  10.607  67.406  1.00  0.00    -0.256 C  
HETATM   11  C   UNL     1     -10.734   9.607  68.557  1.00  0.00    -0.239 C  
HETATM   12  C   UNL     1      -9.440   8.806  68.740  1.00  0.00    -0.142 C  
BRANCH  10  13
HETATM   13  O   UNL     1      -9.677  11.609  67.873  1.00  0.00    -0.170 OA 
BRANCH  13  14
HETATM   14  C   UNL     1     -10.174  12.953  67.992  1.00  0.00    -0.229 C  
BRANCH  14  15
HETATM   15  C   UNL     1      -9.049  13.919  68.341  1.00  0.00    -0.184 A  
HETATM   16  C   UNL     1      -9.320  15.295  68.439  1.00  0.00    -0.194 A  
HETATM   17  C   UNL     1      -8.355  16.176  68.930  1.00  0.00    -0.233 A  
HETATM   18  C   UNL     1      -7.768  13.456  68.684  1.00  0.00    -0.088 A  
HETATM   19  C   UNL     1      -6.801  14.339  69.172  1.00  0.00    -0.120 A  
HETATM   20 CL   UNL     1      -5.949  16.761  70.001  1.00  0.00    -0.218 Cl 
HETATM   21  C   UNL     1      -7.106  15.690  69.312  1.00  0.00    -0.189 A  
ENDBRANCH  14  15
BRANCH  14  22
HETATM   22  C   UNL     1     -10.926  13.322  66.713  1.00  0.00    -0.287 A  
HETATM   23  C   UNL     1     -10.897  13.551  64.405  1.00  0.00    -0.389 A  
HETATM   24  C   UNL     1     -12.881  14.145  65.574  1.00  0.00    -0.404 A  
HETATM   25  C   UNL     1     -12.241  13.793  66.758  1.00  0.00    -0.440 A  
HETATM   26  N   UNL     1     -10.251  13.196  65.537  1.00  0.00    -0.291 NA 
HETATM   27  C   UNL     1     -12.197  14.025  64.371  1.00  0.00    -0.457 A  
ENDBRANCH  14  22
ENDBRANCH  13  14
ENDBRANCH  10  13
ENDBRANCH   6   7
ENDBRANCH   5   6
ENDBRANCH   4   5
TORSDOF 7
ENDMDL
MODEL      138
REMARK 921   NORMALIZED FREE ENERGY PREDICTED BY IDOCK:   -3.92 KCAL/MOL
REMARK 922        TOTAL FREE ENERGY PREDICTED BY IDOCK:   -6.98 KCAL/MOL
REMARK 923 INTER-LIGAND FREE ENERGY PREDICTED BY IDOCK:   -5.77 KCAL/MOL
REMARK 924 INTRA-LIGAND FREE ENERGY PREDICTED BY IDOCK:   -1.21 KCAL/MOL
REMARK 927      BINDING AFFINITY PREDICTED BY RF-SCORE:    0.00 PKD
ROOT
HETATM    1  O   UNL     1      -6.734   9.455  63.601  1.00  0.00    -0.091 OA 
HETATM    2  C   UNL     1      -7.066   8.156  63.409  1.00  0.00    -0.087 C  
HETATM    3  O   UNL     1      -7.452   7.730  62.333  1.00  0.00    -0.090 OA 
HETATM    4  C   UNL     1      -6.890   7.338  64.664  1.00  0.00    -0.050 C  
ENDROOT
BRANCH   4   5
HETATM    5  C   UNL     1      -7.242   5.864  64.459  1.00  0.00    -0.063 C  
BRANCH   5   6
HETATM    6  C   UNL     1      -8.692   5.616  64.887  1.00  0.00    -0.033 C  
BRANCH   6   7
HETATM    7  N   UNL     1      -8.863   4.755  66.063  1.00  0.00    -0.120 NA 
HETATM    8  C   UNL     1      -8.106   5.166  67.254  1.00  0.00    -0.104 C  
HETATM    9  C   UNL     1      -8.633   6.444  67.909  1.00  0.00    -0.116 C  
HETATM   10  C   UNL     1     -10.122   6.328  68.250  1.00  0.00    -0.153 C  
HETATM   11  C   UNL     1     -10.900   5.891  67.005  1.00  0.00    -0.379 C  
HETATM   12  C   UNL     1     -10.293   4.616  66.408  1.00  0.00    -0.226 C  
BRANCH  10  13
HETATM   13  O   UNL     1     -10.421   5.350  69.256  1.00  0.00    -0.256 OA 
BRANCH  13  14
HETATM   14  C   UNL     1     -10.078   5.674  70.615  1.00  0.00    -0.211 C  
BRANCH  14  15
HETATM   15  C   UNL     1     -10.940   6.816  71.135  1.00  0.00    -0.298 A  
HETATM   16  C   UNL     1     -10.336   8.033  71.499  1.00  0.00    -0.258 A  
HETATM   17  C   UNL     1     -11.116   9.149  71.807  1.00  0.00    -0.437 A  
HETATM   18  C   UNL     1     -12.342   6.726  71.152  1.00  0.00    -0.386 A  
HETATM   19  C   UNL     1     -13.122   7.842  71.464  1.00  0.00    -0.356 A  
HETATM   20 CL   UNL     1     -13.466  10.451  72.060  1.00  0.00    -0.445 Cl 
HETATM   21  C   UNL     1     -12.506   9.053  71.769  1.00  0.00    -0.368 A  
ENDBRANCH  14  15
BRANCH  14  22
HETATM   22  C   UNL     1     -10.158   4.406  71.465  1.00  0.00    -0.151 A  
HETATM   23  C   UNL     1      -9.850   2.112  71.620  1.00  0.00    -0.147 A  
HETATM   24  C   UNL     1     -10.736   3.262  73.504  1.00  0.00    -0.306 A  
HETATM   25  C   UNL     1     -10.653   4.443  72.772  1.00  0.00    -0.254 A  
HETATM   26  N   UNL     1      -9.751   3.242  70.887  1.00  0.00    -0.162 NA 
HETATM   27  C   UNL     1     -10.329   2.071  72.918  1.00  0.00    -0.223 A  
ENDBRANCH  14  22
ENDBRANCH  13  14
ENDBRANCH  10  13
ENDBRANCH   6   7
ENDBRANCH   5   6
ENDBRANCH   4   5
TORSDOF 7
ENDMDL
MODEL      139
REMARK 921   NORMALIZED FREE ENERGY PREDICTED BY IDOCK:   -3.91 KCAL/MOL
REMARK 922        TOTAL FREE ENERGY PREDICTED BY IDOCK:   -6.97 KCAL/MOL
REMARK 923 INTER-LIGAND FREE ENERGY PREDICTED BY IDOCK:   -5.54 KCAL/MOL
REMARK 924 INTRA-LIGAND FREE ENERGY PREDICTED BY IDOCK:   -1.44 KCAL/MOL
REMARK 927      BINDING AFFINITY PREDICTED BY RF-SCORE:    0.00 PKD
ROOT
HETATM    1  O   UNL     1      -5.131   1.890  68.384  1.00  0.00    -0.010 OA 
HETATM    2  C   UNL     1      -6.424   2.260  68.541  1.00  0.00    -0.029 C  
HETATM    3  O   UNL     1      -6.790   2.993  69.445  1.00  0.00    -0.036 OA 
HETATM    4  C   UNL     1      -7.313   1.669  67.476  1.00  0.00    -0.054 C  
ENDROOT
BRANCH   4   5
HETATM    5  C   UNL     1      -8.775   2.094  67.628  1.00  0.00    -0.134 C  
BRANCH   5   6
HETATM    6  C   UNL     1      -9.038   3.343  66.781  1.00  0.00    -0.167 C  
BRANCH   6   7
HETATM    7  N   UNL     1     -10.040   4.270  67.320  1.00  0.00    -0.080 NA 
HETATM    8  C   UNL     1      -9.691   4.887  68.608  1.00  0.00    -0.160 C  
HETATM    9  C   UNL     1      -8.557   5.909  68.514  1.00  0.00    -0.110 C  
HETATM   10  C   UNL     1      -8.864   6.996  67.479  1.00  0.00    -0.119 C  
HETATM   11  C   UNL     1      -9.233   6.342  66.144  1.00  0.00    -0.143 C  
HETATM   12  C   UNL     1     -10.364   5.324  66.337  1.00  0.00    -0.268 C  
BRANCH  10  13
HETATM   13  O   UNL     1      -9.974   7.837  67.820  1.00  0.00    -0.157 OA 
BRANCH  13  14
HETATM   14  C   UNL     1      -9.737   8.895  68.764  1.00  0.00    -0.164 C  
BRANCH  14  15
HETATM   15  C   UNL     1     -10.267  10.222  68.237  1.00  0.00    -0.184 A  
HETATM   16  C   UNL     1     -10.250  10.477  66.854  1.00  0.00    -0.280 A  
HETATM   17  C   UNL     1     -10.889  11.603  66.332  1.00  0.00    -0.333 A  
HETATM   18  C   UNL     1     -10.882  11.155  69.089  1.00  0.00    -0.284 A  
HETATM   19  C   UNL     1     -11.519  12.283  68.565  1.00  0.00    -0.349 A  
HETATM   20 CL   UNL     1     -12.402  13.827  66.537  1.00  0.00    -0.459 Cl 
HETATM   21  C   UNL     1     -11.538  12.490  67.188  1.00  0.00    -0.368 A  
ENDBRANCH  14  15
BRANCH  14  22
HETATM   22  C   UNL     1     -10.320   8.495  70.119  1.00  0.00    -0.207 A  
HETATM   23  C   UNL     1     -10.107   8.474  72.429  1.00  0.00    -0.295 A  
HETATM   24  C   UNL     1     -11.994   7.400  71.460  1.00  0.00    -0.337 A  
HETATM   25  C   UNL     1     -11.512   7.770  70.208  1.00  0.00    -0.117 A  
HETATM   26  N   UNL     1      -9.616   8.852  71.229  1.00  0.00    -0.253 NA 
HETATM   27  C   UNL     1     -11.279   7.756  72.595  1.00  0.00    -0.438 A  
ENDBRANCH  14  22
ENDBRANCH  13  14
ENDBRANCH  10  13
ENDBRANCH   6   7
ENDBRANCH   5   6
ENDBRANCH   4   5
TORSDOF 7
ENDMDL
MODEL      140
REMARK 921   NORMALIZED FREE ENERGY PREDICTED BY IDOCK:   -3.91 KCAL/MOL
REMARK 922        TOTAL FREE ENERGY PREDICTED BY IDOCK:   -6.97 KCAL/MOL
REMARK 923 INTER-LIGAND FREE ENERGY PREDICTED BY IDOCK:   -6.41 KCAL/MOL
REMARK 924 INTRA-LIGAND FREE ENERGY PREDICTED BY IDOCK:   -0.56 KCAL/MOL
REMARK 927      BINDING AFFINITY PREDICTED BY RF-SCORE:    0.00 PKD
ROOT
HETATM    1  O   UNL     1     -13.369  16.546  73.824  1.00  0.00    -0.576 OA 
HETATM    2  C   UNL     1     -13.069  15.404  73.160  1.00  0.00    -0.530 C  
HETATM    3  O   UNL     1     -12.494  14.470  73.692  1.00  0.00    -0.382 OA 
HETATM    4  C   UNL     1     -13.538  15.445  71.728  1.00  0.00    -0.596 C  
ENDROOT
BRANCH   4   5
HETATM    5  C   UNL     1     -13.224  14.154  70.969  1.00  0.00    -0.337 C  
BRANCH   5   6
HETATM    6  C   UNL     1     -12.459  14.486  69.684  1.00  0.00    -0.168 C  
BRANCH   6   7
HETATM    7  N   UNL     1     -11.188  13.773  69.506  1.00  0.00    -0.208 NA 
HETATM    8  C   UNL     1     -11.230  12.335  69.810  1.00  0.00     0.030 C  
HETATM    9  C   UNL     1     -12.024  11.513  68.792  1.00  0.00    -0.335 C  
HETATM   10  C   UNL     1     -11.505  11.731  67.368  1.00  0.00    -0.305 C  
HETATM   11  C   UNL     1     -11.457  13.232  67.064  1.00  0.00    -0.378 C  
HETATM   12  C   UNL     1     -10.659  13.975  68.142  1.00  0.00    -0.248 C  
BRANCH  10  13
HETATM   13  O   UNL     1     -10.173  11.248  67.145  1.00  0.00    -0.192 OA 
BRANCH  13  14
HETATM   14  C   UNL     1      -9.516  10.593  68.244  1.00  0.00    -0.159 C  
BRANCH  14  15
HETATM   15  C   UNL     1      -9.757   9.089  68.203  1.00  0.00    -0.172 A  
HETATM   16  C   UNL     1     -10.226   8.493  67.019  1.00  0.00    -0.371 A  
HETATM   17  C   UNL     1     -10.285   7.104  66.898  1.00  0.00    -0.330 A  
HETATM   18  C   UNL     1      -9.413   8.263  69.285  1.00  0.00    -0.155 A  
HETATM   19  C   UNL     1      -9.476   6.873  69.166  1.00  0.00    -0.142 A  
HETATM   20 CL   UNL     1      -9.878   4.589  67.786  1.00  0.00    -0.195 Cl 
HETATM   21  C   UNL     1      -9.891   6.300  67.966  1.00  0.00    -0.125 A  
ENDBRANCH  14  15
BRANCH  14  22
HETATM   22  C   UNL     1      -8.037  10.978  68.242  1.00  0.00    -0.128 A  
HETATM   23  C   UNL     1      -6.177  11.670  69.444  1.00  0.00    -0.100 A  
HETATM   24  C   UNL     1      -5.966  11.409  67.090  1.00  0.00    -0.098 A  
HETATM   25  C   UNL     1      -7.304  11.026  67.053  1.00  0.00    -0.123 A  
HETATM   26  N   UNL     1      -7.475  11.296  69.441  1.00  0.00    -0.043 NA 
HETATM   27  C   UNL     1      -5.389  11.741  68.308  1.00  0.00    -0.043 A  
ENDBRANCH  14  22
ENDBRANCH  13  14
ENDBRANCH  10  13
ENDBRANCH   6   7
ENDBRANCH   5   6
ENDBRANCH   4   5
TORSDOF 7
ENDMDL
MODEL      141
REMARK 921   NORMALIZED FREE ENERGY PREDICTED BY IDOCK:   -3.90 KCAL/MOL
REMARK 922        TOTAL FREE ENERGY PREDICTED BY IDOCK:   -6.95 KCAL/MOL
REMARK 923 INTER-LIGAND FREE ENERGY PREDICTED BY IDOCK:   -6.57 KCAL/MOL
REMARK 924 INTRA-LIGAND FREE ENERGY PREDICTED BY IDOCK:   -0.38 KCAL/MOL
REMARK 927      BINDING AFFINITY PREDICTED BY RF-SCORE:    0.00 PKD
ROOT
HETATM    1  O   UNL     1     -10.551   5.473  66.387  1.00  0.00    -0.264 OA 
HETATM    2  C   UNL     1      -9.549   6.308  66.751  1.00  0.00    -0.153 C  
HETATM    3  O   UNL     1      -9.170   7.224  66.042  1.00  0.00    -0.133 OA 
HETATM    4  C   UNL     1      -8.995   5.964  68.111  1.00  0.00    -0.115 C  
ENDROOT
BRANCH   4   5
HETATM    5  C   UNL     1      -7.874   6.910  68.546  1.00  0.00    -0.118 C  
BRANCH   5   6
HETATM    6  C   UNL     1      -8.265   8.355  68.217  1.00  0.00    -0.124 C  
BRANCH   6   7
HETATM    7  N   UNL     1      -8.891   9.103  69.314  1.00  0.00    -0.140 NA 
HETATM    8  C   UNL     1      -8.293  10.416  69.597  1.00  0.00    -0.068 C  
HETATM    9  C   UNL     1      -8.559  11.461  68.512  1.00  0.00    -0.150 C  
HETATM   10  C   UNL     1     -10.058  11.618  68.239  1.00  0.00    -0.202 C  
HETATM   11  C   UNL     1     -10.673  10.244  67.953  1.00  0.00    -0.310 C  
HETATM   12  C   UNL     1     -10.341   9.260  69.082  1.00  0.00    -0.211 C  
BRANCH  10  13
HETATM   13  O   UNL     1     -10.804  12.155  69.339  1.00  0.00    -0.122 OA 
BRANCH  13  14
HETATM   14  C   UNL     1     -10.959  13.584  69.398  1.00  0.00    -0.050 C  
BRANCH  14  15
HETATM   15  C   UNL     1     -11.268  14.154  68.019  1.00  0.00    -0.302 A  
HETATM   16  C   UNL     1     -10.475  15.194  67.504  1.00  0.00    -0.258 A  
HETATM   17  C   UNL     1     -10.622  15.610  66.179  1.00  0.00    -0.325 A  
HETATM   18  C   UNL     1     -12.257  13.586  67.198  1.00  0.00    -0.328 A  
HETATM   19  C   UNL     1     -12.406  14.006  65.874  1.00  0.00    -0.515 A  
HETATM   20 CL   UNL     1     -11.695  15.450  63.709  1.00  0.00     0.303 Cl 
HETATM   21  C   UNL     1     -11.575  15.000  65.365  1.00  0.00    -0.229 A  
ENDBRANCH  14  15
BRANCH  14  22
HETATM   22  C   UNL     1     -12.007  13.929  70.455  1.00  0.00    -0.314 A  
HETATM   23  C   UNL     1     -13.502  13.188  72.067  1.00  0.00    -0.507 A  
HETATM   24  C   UNL     1     -13.384  15.522  71.625  1.00  0.00    -0.585 A  
HETATM   25  C   UNL     1     -12.406  15.252  70.673  1.00  0.00    -0.427 A  
HETATM   26  N   UNL     1     -12.551  12.894  71.153  1.00  0.00    -0.344 NA 
HETATM   27  C   UNL     1     -13.947  14.471  72.336  1.00  0.00    -0.580 A  
ENDBRANCH  14  22
ENDBRANCH  13  14
ENDBRANCH  10  13
ENDBRANCH   6   7
ENDBRANCH   5   6
ENDBRANCH   4   5
TORSDOF 7
ENDMDL
MODEL      142
REMARK 921   NORMALIZED FREE ENERGY PREDICTED BY IDOCK:   -3.87 KCAL/MOL
REMARK 922        TOTAL FREE ENERGY PREDICTED BY IDOCK:   -6.92 KCAL/MOL
REMARK 923 INTER-LIGAND FREE ENERGY PREDICTED BY IDOCK:   -6.04 KCAL/MOL
REMARK 924 INTRA-LIGAND FREE ENERGY PREDICTED BY IDOCK:   -0.88 KCAL/MOL
REMARK 927      BINDING AFFINITY PREDICTED BY RF-SCORE:    0.00 PKD
ROOT
HETATM    1  O   UNL     1      -9.027  17.388  65.741  1.00  0.00    -0.521 OA 
HETATM    2  C   UNL     1      -8.428  17.075  66.914  1.00  0.00    -0.216 C  
HETATM    3  O   UNL     1      -9.048  16.969  67.959  1.00  0.00    -0.227 OA 
HETATM    4  C   UNL     1      -6.942  16.874  66.752  1.00  0.00    -0.270 C  
ENDROOT
BRANCH   4   5
HETATM    5  C   UNL     1      -6.252  16.500  68.066  1.00  0.00    -0.138 C  
BRANCH   5   6
HETATM    6  C   UNL     1      -5.592  15.124  67.927  1.00  0.00    -0.127 C  
BRANCH   6   7
HETATM    7  N   UNL     1      -6.114  14.082  68.818  1.00  0.00    -0.082 NA 
HETATM    8  C   UNL     1      -7.581  14.004  68.897  1.00  0.00    -0.080 C  
HETATM    9  C   UNL     1      -8.239  13.475  67.622  1.00  0.00    -0.178 C  
HETATM   10  C   UNL     1      -7.664  12.114  67.216  1.00  0.00    -0.168 C  
HETATM   11  C   UNL     1      -6.136  12.204  67.145  1.00  0.00    -0.143 C  
HETATM   12  C   UNL     1      -5.567  12.759  68.457  1.00  0.00    -0.058 C  
BRANCH  10  13
HETATM   13  O   UNL     1      -7.947  11.056  68.142  1.00  0.00    -0.109 OA 
BRANCH  13  14
HETATM   14  C   UNL     1      -8.806   9.994  67.690  1.00  0.00    -0.121 C  
BRANCH  14  15
HETATM   15  C   UNL     1      -9.879   9.686  68.727  1.00  0.00    -0.173 A  
HETATM   16  C   UNL     1     -10.193   8.348  69.025  1.00  0.00    -0.217 A  
HETATM   17  C   UNL     1     -11.038   8.038  70.091  1.00  0.00    -0.191 A  
HETATM   18  C   UNL     1     -10.485  10.706  69.479  1.00  0.00    -0.236 A  
HETATM   19  C   UNL     1     -11.334  10.395  70.543  1.00  0.00    -0.424 A  
HETATM   20 CL   UNL     1     -12.558   8.678  72.227  1.00  0.00    -0.444 Cl 
HETATM   21  C   UNL     1     -11.589   9.063  70.858  1.00  0.00    -0.290 A  
ENDBRANCH  14  15
BRANCH  14  22
HETATM   22  C   UNL     1      -9.366  10.357  66.315  1.00  0.00    -0.166 A  
HETATM   23  C   UNL     1     -10.961  11.493  65.071  1.00  0.00    -0.241 A  
HETATM   24  C   UNL     1      -9.367  10.159  63.915  1.00  0.00    -0.336 A  
HETATM   25  C   UNL     1      -8.811   9.827  65.146  1.00  0.00    -0.213 A  
HETATM   26  N   UNL     1     -10.440  11.194  66.281  1.00  0.00    -0.253 NA 
HETATM   27  C   UNL     1     -10.466  11.007  63.873  1.00  0.00    -0.422 A  
ENDBRANCH  14  22
ENDBRANCH  13  14
ENDBRANCH  10  13
ENDBRANCH   6   7
ENDBRANCH   5   6
ENDBRANCH   4   5
TORSDOF 7
ENDMDL
MODEL      143
REMARK 921   NORMALIZED FREE ENERGY PREDICTED BY IDOCK:   -3.86 KCAL/MOL
REMARK 922        TOTAL FREE ENERGY PREDICTED BY IDOCK:   -6.89 KCAL/MOL
REMARK 923 INTER-LIGAND FREE ENERGY PREDICTED BY IDOCK:   -5.78 KCAL/MOL
REMARK 924 INTRA-LIGAND FREE ENERGY PREDICTED BY IDOCK:   -1.11 KCAL/MOL
REMARK 927      BINDING AFFINITY PREDICTED BY RF-SCORE:    0.00 PKD
ROOT
HETATM    1  O   UNL     1     -13.329  11.537  62.771  1.00  0.00     0.052 OA 
HETATM    2  C   UNL     1     -12.401  11.981  63.652  1.00  0.00    -0.539 C  
HETATM    3  O   UNL     1     -11.239  11.612  63.620  1.00  0.00    -0.402 OA 
HETATM    4  C   UNL     1     -12.982  12.966  64.635  1.00  0.00    -0.204 C  
ENDROOT
BRANCH   4   5
HETATM    5  C   UNL     1     -11.942  13.493  65.625  1.00  0.00    -0.429 C  
BRANCH   5   6
HETATM    6  C   UNL     1     -11.856  15.019  65.518  1.00  0.00    -0.071 C  
BRANCH   6   7
HETATM    7  N   UNL     1     -10.501  15.566  65.382  1.00  0.00    -0.379 NA 
HETATM    8  C   UNL     1     -10.418  17.034  65.365  1.00  0.00    -0.112 C  
HETATM    9  C   UNL     1     -10.723  17.684  66.716  1.00  0.00    -0.129 C  
HETATM   10  C   UNL     1      -9.826  17.122  67.824  1.00  0.00    -0.274 C  
HETATM   11  C   UNL     1      -9.914  15.593  67.827  1.00  0.00    -0.223 C  
HETATM   12  C   UNL     1      -9.611  15.032  66.433  1.00  0.00    -0.289 C  
BRANCH  10  13
HETATM   13  O   UNL     1      -8.434  17.430  67.669  1.00  0.00    -0.208 OA 
BRANCH  13  14
HETATM   14  C   UNL     1      -7.615  17.401  68.851  1.00  0.00    -0.224 C  
BRANCH  14  15
HETATM   15  C   UNL     1      -6.844  16.091  68.945  1.00  0.00    -0.143 A  
HETATM   16  C   UNL     1      -6.718  15.447  70.188  1.00  0.00     0.000 A  
HETATM   17  C   UNL     1      -6.174  14.164  70.272  1.00  0.00    -0.146 A  
HETATM   18  C   UNL     1      -6.353  15.447  67.797  1.00  0.00    -0.182 A  
HETATM   19  C   UNL     1      -5.806  14.165  67.882  1.00  0.00    -0.133 A  
HETATM   20 CL   UNL     1      -5.153  11.906  69.206  1.00  0.00    -0.052 Cl 
HETATM   21  C   UNL     1      -5.739  13.521  69.115  1.00  0.00    -0.078 A  
ENDBRANCH  14  15
BRANCH  14  22
HETATM   22  C   UNL     1      -6.723  18.642  68.870  1.00  0.00    -0.272 A  
HETATM   23  C   UNL     1      -5.380  20.087  70.090  1.00  0.00    -0.240 A  
HETATM   24  C   UNL     1      -5.739  20.555  67.786  1.00  0.00    -0.265 A  
HETATM   25  C   UNL     1      -6.536  19.416  67.720  1.00  0.00    -0.243 A  
HETATM   26  N   UNL     1      -6.143  18.973  70.057  1.00  0.00    -0.232 NA 
HETATM   27  C   UNL     1      -5.149  20.901  68.995  1.00  0.00    -0.357 A  
ENDBRANCH  14  22
ENDBRANCH  13  14
ENDBRANCH  10  13
ENDBRANCH   6   7
ENDBRANCH   5   6
ENDBRANCH   4   5
TORSDOF 7
ENDMDL
MODEL      144
REMARK 921   NORMALIZED FREE ENERGY PREDICTED BY IDOCK:   -3.83 KCAL/MOL
REMARK 922        TOTAL FREE ENERGY PREDICTED BY IDOCK:   -6.86 KCAL/MOL
REMARK 923 INTER-LIGAND FREE ENERGY PREDICTED BY IDOCK:   -7.14 KCAL/MOL
REMARK 924 INTRA-LIGAND FREE ENERGY PREDICTED BY IDOCK:    0.28 KCAL/MOL
REMARK 927      BINDING AFFINITY PREDICTED BY RF-SCORE:    0.00 PKD
ROOT
HETATM    1  O   UNL     1     -10.047   9.649  66.840  1.00  0.00    -0.199 OA 
HETATM    2  C   UNL     1     -10.147   9.597  68.190  1.00  0.00    -0.175 C  
HETATM    3  O   UNL     1      -9.328   9.020  68.885  1.00  0.00    -0.142 OA 
HETATM    4  C   UNL     1     -11.362  10.333  68.694  1.00  0.00    -0.226 C  
ENDROOT
BRANCH   4   5
HETATM    5  C   UNL     1     -11.479  10.301  70.219  1.00  0.00    -0.395 C  
BRANCH   5   6
HETATM    6  C   UNL     1     -11.794  11.707  70.740  1.00  0.00    -0.015 C  
BRANCH   6   7
HETATM    7  N   UNL     1     -12.304  12.650  69.738  1.00  0.00    -0.102 NA 
HETATM    8  C   UNL     1     -12.840  13.908  70.280  1.00  0.00    -0.072 C  
HETATM    9  C   UNL     1     -11.769  14.839  70.852  1.00  0.00    -0.360 C  
HETATM   10  C   UNL     1     -10.676  15.137  69.821  1.00  0.00    -0.274 C  
HETATM   11  C   UNL     1     -10.130  13.821  69.258  1.00  0.00     0.229 C  
HETATM   12  C   UNL     1     -11.272  12.948  68.724  1.00  0.00    -0.279 C  
BRANCH  10  13
HETATM   13  O   UNL     1     -11.126  15.888  68.685  1.00  0.00    -0.296 OA 
BRANCH  13  14
HETATM   14  C   UNL     1     -10.235  15.983  67.560  1.00  0.00    -0.275 C  
BRANCH  14  15
HETATM   15  C   UNL     1     -10.755  15.165  66.385  1.00  0.00    -0.317 A  
HETATM   16  C   UNL     1      -9.844  14.519  65.532  1.00  0.00    -0.320 A  
HETATM   17  C   UNL     1     -10.293  13.623  64.560  1.00  0.00    -0.355 A  
HETATM   18  C   UNL     1     -12.129  14.943  66.200  1.00  0.00     0.020 A  
HETATM   19  C   UNL     1     -12.579  14.048  65.225  1.00  0.00    -0.495 A  
HETATM   20 CL   UNL     1     -12.205  12.205  63.290  1.00  0.00    -0.589 Cl 
HETATM   21  C   UNL     1     -11.658  13.377  64.425  1.00  0.00    -0.384 A  
ENDBRANCH  14  15
BRANCH  14  22
HETATM   22  C   UNL     1     -10.005  17.458  67.229  1.00  0.00    -0.302 A  
HETATM   23  C   UNL     1     -10.788  19.640  67.301  1.00  0.00    -0.395 A  
HETATM   24  C   UNL     1      -8.708  19.221  66.225  1.00  0.00    -0.333 A  
HETATM   25  C   UNL     1      -8.867  17.873  66.533  1.00  0.00    -0.281 A  
HETATM   26  N   UNL     1     -10.967  18.340  67.619  1.00  0.00    -0.237 NA 
HETATM   27  C   UNL     1      -9.688  20.125  66.614  1.00  0.00    -0.568 A  
ENDBRANCH  14  22
ENDBRANCH  13  14
ENDBRANCH  10  13
ENDBRANCH   6   7
ENDBRANCH   5   6
ENDBRANCH   4   5
TORSDOF 7
ENDMDL
MODEL      145
REMARK 921   NORMALIZED FREE ENERGY PREDICTED BY IDOCK:   -3.82 KCAL/MOL
REMARK 922        TOTAL FREE ENERGY PREDICTED BY IDOCK:   -6.85 KCAL/MOL
REMARK 923 INTER-LIGAND FREE ENERGY PREDICTED BY IDOCK:   -6.54 KCAL/MOL
REMARK 924 INTRA-LIGAND FREE ENERGY PREDICTED BY IDOCK:   -0.30 KCAL/MOL
REMARK 927      BINDING AFFINITY PREDICTED BY RF-SCORE:    0.00 PKD
ROOT
HETATM    1  O   UNL     1      -9.608  20.403  66.003  1.00  0.00    -0.292 OA 
HETATM    2  C   UNL     1      -9.483  19.427  66.933  1.00  0.00    -0.333 C  
HETATM    3  O   UNL     1      -8.609  19.442  67.784  1.00  0.00    -0.296 OA 
HETATM    4  C   UNL     1     -10.542  18.365  66.782  1.00  0.00    -0.367 C  
ENDROOT
BRANCH   4   5
HETATM    5  C   UNL     1     -10.427  17.264  67.838  1.00  0.00    -0.382 C  
BRANCH   5   6
HETATM    6  C   UNL     1     -10.503  15.891  67.161  1.00  0.00    -0.313 C  
BRANCH   6   7
HETATM    7  N   UNL     1     -11.232  14.860  67.909  1.00  0.00    -0.302 NA 
HETATM    8  C   UNL     1     -11.867  13.822  67.084  1.00  0.00    -0.406 C  
HETATM    9  C   UNL     1     -10.873  12.870  66.418  1.00  0.00    -0.293 C  
HETATM   10  C   UNL     1      -9.940  12.222  67.446  1.00  0.00    -0.201 C  
HETATM   11  C   UNL     1      -9.289  13.312  68.305  1.00  0.00    -0.205 C  
HETATM   12  C   UNL     1     -10.358  14.226  68.917  1.00  0.00    -0.215 C  
BRANCH  10  13
HETATM   13  O   UNL     1     -10.599  11.344  68.369  1.00  0.00    -0.185 OA 
BRANCH  13  14
HETATM   14  C   UNL     1     -10.463   9.929  68.147  1.00  0.00    -0.215 C  
BRANCH  14  15
HETATM   15  C   UNL     1      -9.394   9.644  67.099  1.00  0.00    -0.168 A  
HETATM   16  C   UNL     1      -9.774   9.412  65.765  1.00  0.00    -0.354 A  
HETATM   17  C   UNL     1      -8.812   9.327  64.757  1.00  0.00    -0.225 A  
HETATM   18  C   UNL     1      -8.027   9.722  67.409  1.00  0.00    -0.102 A  
HETATM   19  C   UNL     1      -7.064   9.633  66.401  1.00  0.00    -0.093 A  
HETATM   20 CL   UNL     1      -6.282   9.442  63.825  1.00  0.00    -0.090 Cl 
HETATM   21  C   UNL     1      -7.462   9.457  65.078  1.00  0.00    -0.106 A  
ENDBRANCH  14  15
BRANCH  14  22
HETATM   22  C   UNL     1     -10.212   9.236  69.485  1.00  0.00    -0.207 A  
HETATM   23  C   UNL     1     -11.002   7.846  71.165  1.00  0.00    -0.239 A  
HETATM   24  C   UNL     1      -8.845   8.812  71.422  1.00  0.00    -0.292 A  
HETATM   25  C   UNL     1      -9.023   9.439  70.193  1.00  0.00    -0.256 A  
HETATM   26  N   UNL     1     -11.203   8.436  69.967  1.00  0.00    -0.154 NA 
HETATM   27  C   UNL     1      -9.853   8.000  71.922  1.00  0.00    -0.251 A  
ENDBRANCH  14  22
ENDBRANCH  13  14
ENDBRANCH  10  13
ENDBRANCH   6   7
ENDBRANCH   5   6
ENDBRANCH   4   5
TORSDOF 7
ENDMDL
MODEL      146
REMARK 921   NORMALIZED FREE ENERGY PREDICTED BY IDOCK:   -3.82 KCAL/MOL
REMARK 922        TOTAL FREE ENERGY PREDICTED BY IDOCK:   -6.84 KCAL/MOL
REMARK 923 INTER-LIGAND FREE ENERGY PREDICTED BY IDOCK:   -5.93 KCAL/MOL
REMARK 924 INTRA-LIGAND FREE ENERGY PREDICTED BY IDOCK:   -0.90 KCAL/MOL
REMARK 927      BINDING AFFINITY PREDICTED BY RF-SCORE:    0.00 PKD
ROOT
HETATM    1  O   UNL     1      -7.077   5.215  66.625  1.00  0.00    -0.066 OA 
HETATM    2  C   UNL     1      -7.703   5.937  65.665  1.00  0.00    -0.097 C  
HETATM    3  O   UNL     1      -8.702   5.536  65.092  1.00  0.00    -0.154 OA 
HETATM    4  C   UNL     1      -7.021   7.259  65.418  1.00  0.00    -0.060 C  
ENDROOT
BRANCH   4   5
HETATM    5  C   UNL     1      -7.727   8.095  64.350  1.00  0.00    -0.126 C  
BRANCH   5   6
HETATM    6  C   UNL     1      -7.950   9.518  64.874  1.00  0.00    -0.121 C  
BRANCH   6   7
HETATM    7  N   UNL     1      -8.760   9.620  66.093  1.00  0.00    -0.134 NA 
HETATM    8  C   UNL     1      -8.255  10.564  67.102  1.00  0.00    -0.123 C  
HETATM    9  C   UNL     1      -8.388  12.031  66.693  1.00  0.00    -0.085 C  
HETATM   10  C   UNL     1      -9.832  12.384  66.324  1.00  0.00    -0.247 C  
HETATM   11  C   UNL     1     -10.351  11.390  65.280  1.00  0.00    -0.336 C  
HETATM   12  C   UNL     1     -10.163   9.948  65.766  1.00  0.00    -0.181 C  
BRANCH  10  13
HETATM   13  O   UNL     1     -10.755  12.310  67.420  1.00  0.00    -0.221 OA 
BRANCH  13  14
HETATM   14  C   UNL     1     -10.361  12.930  68.657  1.00  0.00    -0.188 C  
BRANCH  14  15
HETATM   15  C   UNL     1     -10.181  14.432  68.480  1.00  0.00    -0.243 A  
HETATM   16  C   UNL     1     -11.256  15.210  68.016  1.00  0.00    -0.329 A  
HETATM   17  C   UNL     1     -11.175  16.604  68.014  1.00  0.00    -0.164 A  
HETATM   18  C   UNL     1      -9.000  15.079  68.879  1.00  0.00    -0.202 A  
HETATM   19  C   UNL     1      -8.919  16.474  68.874  1.00  0.00    -0.245 A  
HETATM   20 CL   UNL     1      -9.947  18.947  68.544  1.00  0.00    -0.439 Cl 
HETATM   21  C   UNL     1     -10.013  17.229  68.462  1.00  0.00    -0.320 A  
ENDBRANCH  14  15
BRANCH  14  22
HETATM   22  C   UNL     1     -11.368  12.555  69.745  1.00  0.00    -0.040 A  
HETATM   23  C   UNL     1     -12.606  10.903  70.802  1.00  0.00    -0.377 A  
HETATM   24  C   UNL     1     -12.882  13.154  71.519  1.00  0.00    -0.401 A  
HETATM   25  C   UNL     1     -11.948  13.532  70.560  1.00  0.00    -0.344 A  
HETATM   26  N   UNL     1     -11.692  11.238  69.866  1.00  0.00    -0.322 NA 
HETATM   27  C   UNL     1     -13.222  11.813  71.644  1.00  0.00    -0.368 A  
ENDBRANCH  14  22
ENDBRANCH  13  14
ENDBRANCH  10  13
ENDBRANCH   6   7
ENDBRANCH   5   6
ENDBRANCH   4   5
TORSDOF 7
ENDMDL
MODEL      147
REMARK 921   NORMALIZED FREE ENERGY PREDICTED BY IDOCK:   -3.80 KCAL/MOL
REMARK 922        TOTAL FREE ENERGY PREDICTED BY IDOCK:   -6.81 KCAL/MOL
REMARK 923 INTER-LIGAND FREE ENERGY PREDICTED BY IDOCK:   -6.00 KCAL/MOL
REMARK 924 INTRA-LIGAND FREE ENERGY PREDICTED BY IDOCK:   -0.81 KCAL/MOL
REMARK 927      BINDING AFFINITY PREDICTED BY RF-SCORE:    0.00 PKD
ROOT
HETATM    1  O   UNL     1     -13.531  11.943  63.650  1.00  0.00    -0.517 OA 
HETATM    2  C   UNL     1     -12.297  12.418  63.940  1.00  0.00    -0.508 C  
HETATM    3  O   UNL     1     -11.554  12.875  63.087  1.00  0.00    -0.422 OA 
HETATM    4  C   UNL     1     -11.985  12.316  65.411  1.00  0.00    -0.395 C  
ENDROOT
BRANCH   4   5
HETATM    5  C   UNL     1     -10.601  12.867  65.759  1.00  0.00    -0.293 C  
BRANCH   5   6
HETATM    6  C   UNL     1      -9.534  11.811  65.450  1.00  0.00    -0.140 C  
BRANCH   6   7
HETATM    7  N   UNL     1      -8.785  11.316  66.611  1.00  0.00    -0.169 NA 
HETATM    8  C   UNL     1      -9.589  11.076  67.818  1.00  0.00    -0.170 C  
HETATM    9  C   UNL     1     -10.529   9.874  67.703  1.00  0.00    -0.296 C  
HETATM   10  C   UNL     1      -9.769   8.601  67.320  1.00  0.00    -0.185 C  
HETATM   11  C   UNL     1      -8.929   8.864  66.067  1.00  0.00    -0.235 C  
HETATM   12  C   UNL     1      -8.032  10.092  66.266  1.00  0.00    -0.111 C  
BRANCH  10  13
HETATM   13  O   UNL     1      -8.845   8.144  68.318  1.00  0.00    -0.133 OA 
BRANCH  13  14
HETATM   14  C   UNL     1      -9.028   8.629  69.660  1.00  0.00    -0.145 C  
BRANCH  14  15
HETATM   15  C   UNL     1      -9.843   7.643  70.487  1.00  0.00    -0.183 A  
HETATM   16  C   UNL     1      -9.836   6.279  70.147  1.00  0.00    -0.201 A  
HETATM   17  C   UNL     1     -10.426   5.334  70.988  1.00  0.00    -0.274 A  
HETATM   18  C   UNL     1     -10.510   8.045  71.656  1.00  0.00    -0.272 A  
HETATM   19  C   UNL     1     -11.103   7.100  72.496  1.00  0.00    -0.317 A  
HETATM   20 CL   UNL     1     -11.687   4.575  73.250  1.00  0.00    -0.283 Cl 
HETATM   21  C   UNL     1     -11.040   5.747  72.169  1.00  0.00    -0.271 A  
ENDBRANCH  14  15
BRANCH  14  22
HETATM   22  C   UNL     1      -7.662   8.956  70.262  1.00  0.00    -0.090 A  
HETATM   23  C   UNL     1      -5.825   8.244  71.487  1.00  0.00    -0.037 A  
HETATM   24  C   UNL     1      -5.881  10.503  70.746  1.00  0.00    -0.093 A  
HETATM   25  C   UNL     1      -7.114  10.238  70.158  1.00  0.00    -0.154 A  
HETATM   26  N   UNL     1      -7.018   7.954  70.923  1.00  0.00    -0.048 NA 
HETATM   27  C   UNL     1      -5.221   9.488  71.426  1.00  0.00    -0.058 A  
ENDBRANCH  14  22
ENDBRANCH  13  14
ENDBRANCH  10  13
ENDBRANCH   6   7
ENDBRANCH   5   6
ENDBRANCH   4   5
TORSDOF 7
ENDMDL
MODEL      148
REMARK 921   NORMALIZED FREE ENERGY PREDICTED BY IDOCK:   -3.80 KCAL/MOL
REMARK 922        TOTAL FREE ENERGY PREDICTED BY IDOCK:   -6.81 KCAL/MOL
REMARK 923 INTER-LIGAND FREE ENERGY PREDICTED BY IDOCK:   -5.77 KCAL/MOL
REMARK 924 INTRA-LIGAND FREE ENERGY PREDICTED BY IDOCK:   -1.04 KCAL/MOL
REMARK 927      BINDING AFFINITY PREDICTED BY RF-SCORE:    0.00 PKD
ROOT
HETATM    1  O   UNL     1      -6.746   5.925  72.386  1.00  0.00    -0.068 OA 
HETATM    2  C   UNL     1      -7.511   6.925  72.885  1.00  0.00    -0.082 C  
HETATM    3  O   UNL     1      -7.138   7.642  73.798  1.00  0.00    -0.087 OA 
HETATM    4  C   UNL     1      -8.836   7.029  72.173  1.00  0.00    -0.138 C  
ENDROOT
BRANCH   4   5
HETATM    5  C   UNL     1      -9.705   8.167  72.711  1.00  0.00    -0.351 C  
BRANCH   5   6
HETATM    6  C   UNL     1     -10.540   8.761  71.571  1.00  0.00    -0.309 C  
BRANCH   6   7
HETATM    7  N   UNL     1      -9.866   9.787  70.766  1.00  0.00    -0.144 NA 
HETATM    8  C   UNL     1      -8.847   9.280  69.834  1.00  0.00    -0.185 C  
HETATM    9  C   UNL     1      -9.427   8.499  68.654  1.00  0.00    -0.144 C  
HETATM   10  C   UNL     1     -10.469   9.324  67.892  1.00  0.00    -0.236 C  
HETATM   11  C   UNL     1     -11.520   9.853  68.873  1.00  0.00     0.022 C  
HETATM   12  C   UNL     1     -10.849  10.605  70.028  1.00  0.00    -0.217 C  
BRANCH  10  13
HETATM   13  O   UNL     1      -9.937  10.481  67.232  1.00  0.00    -0.174 OA 
BRANCH  13  14
HETATM   14  C   UNL     1     -10.393  10.748  65.894  1.00  0.00    -0.238 C  
BRANCH  14  15
HETATM   15  C   UNL     1     -10.742  12.220  65.723  1.00  0.00    -0.298 A  
HETATM   16  C   UNL     1      -9.758  13.198  65.951  1.00  0.00    -0.190 A  
HETATM   17  C   UNL     1      -9.998  14.536  65.631  1.00  0.00    -0.376 A  
HETATM   18  C   UNL     1     -11.993  12.623  65.229  1.00  0.00    -0.487 A  
HETATM   19  C   UNL     1     -12.234  13.962  64.911  1.00  0.00    -0.445 A  
HETATM   20 CL   UNL     1     -11.492  16.539  64.615  1.00  0.00    -0.179 Cl 
HETATM   21  C   UNL     1     -11.229  14.908  65.094  1.00  0.00    -0.386 A  
ENDBRANCH  14  15
BRANCH  14  22
HETATM   22  C   UNL     1      -9.347  10.244  64.901  1.00  0.00    -0.252 A  
HETATM   23  C   UNL     1      -8.826   9.635  62.724  1.00  0.00    -0.247 A  
HETATM   24  C   UNL     1      -7.139   9.428  64.388  1.00  0.00    -0.101 A  
HETATM   25  C   UNL     1      -8.055   9.911  65.319  1.00  0.00    -0.139 A  
HETATM   26  N   UNL     1      -9.735  10.111  63.603  1.00  0.00    -0.218 NA 
HETATM   27  C   UNL     1      -7.530   9.284  63.064  1.00  0.00    -0.105 A  
ENDBRANCH  14  22
ENDBRANCH  13  14
ENDBRANCH  10  13
ENDBRANCH   6   7
ENDBRANCH   5   6
ENDBRANCH   4   5
TORSDOF 7
ENDMDL
MODEL      149
REMARK 921   NORMALIZED FREE ENERGY PREDICTED BY IDOCK:   -3.79 KCAL/MOL
REMARK 922        TOTAL FREE ENERGY PREDICTED BY IDOCK:   -6.81 KCAL/MOL
REMARK 923 INTER-LIGAND FREE ENERGY PREDICTED BY IDOCK:   -6.68 KCAL/MOL
REMARK 924 INTRA-LIGAND FREE ENERGY PREDICTED BY IDOCK:   -0.13 KCAL/MOL
REMARK 927      BINDING AFFINITY PREDICTED BY RF-SCORE:    0.00 PKD
ROOT
HETATM    1  O   UNL     1     -11.936  11.446  63.210  1.00  0.00    -0.200 OA 
HETATM    2  C   UNL     1     -12.305  12.653  63.701  1.00  0.00    -0.492 C  
HETATM    3  O   UNL     1     -12.489  13.623  62.985  1.00  0.00    -0.719 OA 
HETATM    4  C   UNL     1     -12.461  12.628  65.200  1.00  0.00    -0.531 C  
ENDROOT
BRANCH   4   5
HETATM    5  C   UNL     1     -12.898  13.979  65.769  1.00  0.00    -0.416 C  
BRANCH   5   6
HETATM    6  C   UNL     1     -11.711  14.948  65.762  1.00  0.00    -0.179 C  
BRANCH   6   7
HETATM    7  N   UNL     1     -11.143  15.258  67.079  1.00  0.00    -0.325 NA 
HETATM    8  C   UNL     1     -10.302  14.201  67.661  1.00  0.00    -0.241 C  
HETATM    9  C   UNL     1      -8.964  14.014  66.945  1.00  0.00    -0.243 C  
HETATM   10  C   UNL     1      -8.177  15.327  66.872  1.00  0.00    -0.228 C  
HETATM   11  C   UNL     1      -9.064  16.422  66.271  1.00  0.00    -0.362 C  
HETATM   12  C   UNL     1     -10.387  16.526  67.040  1.00  0.00    -0.301 C  
BRANCH  10  13
HETATM   13  O   UNL     1      -7.749  15.828  68.145  1.00  0.00    -0.124 OA 
BRANCH  13  14
HETATM   14  C   UNL     1      -6.334  15.862  68.401  1.00  0.00    -0.110 C  
BRANCH  14  15
HETATM   15  C   UNL     1      -5.949  17.126  69.159  1.00  0.00    -0.195 A  
HETATM   16  C   UNL     1      -6.259  18.385  68.613  1.00  0.00    -0.210 A  
HETATM   17  C   UNL     1      -6.080  19.548  69.364  1.00  0.00    -0.323 A  
HETATM   18  C   UNL     1      -5.395  17.066  70.448  1.00  0.00    -0.228 A  
HETATM   19  C   UNL     1      -5.213  18.230  71.198  1.00  0.00    -0.254 A  
HETATM   20 CL   UNL     1      -5.440  20.886  71.618  1.00  0.00    -0.061 Cl 
HETATM   21  C   UNL     1      -5.576  19.463  70.661  1.00  0.00    -0.233 A  
ENDBRANCH  14  15
BRANCH  14  22
HETATM   22  C   UNL     1      -5.924  14.571  69.109  1.00  0.00    -0.094 A  
HETATM   23  C   UNL     1      -5.203  12.373  68.942  1.00  0.00    -0.055 A  
HETATM   24  C   UNL     1      -5.620  13.262  71.108  1.00  0.00    -0.172 A  
HETATM   25  C   UNL     1      -5.975  14.464  70.502  1.00  0.00    -0.180 A  
HETATM   26  N   UNL     1      -5.535  13.528  68.325  1.00  0.00    -0.093 NA 
HETATM   27  C   UNL     1      -5.228  12.193  70.314  1.00  0.00    -0.106 A  
ENDBRANCH  14  22
ENDBRANCH  13  14
ENDBRANCH  10  13
ENDBRANCH   6   7
ENDBRANCH   5   6
ENDBRANCH   4   5
TORSDOF 7
ENDMDL
MODEL      150
REMARK 921   NORMALIZED FREE ENERGY PREDICTED BY IDOCK:   -3.79 KCAL/MOL
REMARK 922        TOTAL FREE ENERGY PREDICTED BY IDOCK:   -6.79 KCAL/MOL
REMARK 923 INTER-LIGAND FREE ENERGY PREDICTED BY IDOCK:   -5.94 KCAL/MOL
REMARK 924 INTRA-LIGAND FREE ENERGY PREDICTED BY IDOCK:   -0.86 KCAL/MOL
REMARK 927      BINDING AFFINITY PREDICTED BY RF-SCORE:    0.00 PKD
ROOT
HETATM    1  O   UNL     1     -12.796  13.993  63.304  1.00  0.00    -0.538 OA 
HETATM    2  C   UNL     1     -11.700  13.478  63.909  1.00  0.00    -0.368 C  
HETATM    3  O   UNL     1     -11.279  12.361  63.658  1.00  0.00    -0.407 OA 
HETATM    4  C   UNL     1     -11.092  14.446  64.892  1.00  0.00    -0.404 C  
ENDROOT
BRANCH   4   5
HETATM    5  C   UNL     1      -9.840  13.886  65.570  1.00  0.00    -0.213 C  
BRANCH   5   6
HETATM    6  C   UNL     1     -10.171  13.484  67.011  1.00  0.00    -0.249 C  
BRANCH   6   7
HETATM    7  N   UNL     1      -9.353  12.400  67.566  1.00  0.00    -0.176 NA 
HETATM    8  C   UNL     1     -10.068  11.465  68.448  1.00  0.00    -0.201 C  
HETATM    9  C   UNL     1     -11.061  10.562  67.713  1.00  0.00    -0.382 C  
HETATM   10  C   UNL     1     -10.384   9.792  66.575  1.00  0.00    -0.192 C  
HETATM   11  C   UNL     1      -9.636  10.774  65.668  1.00  0.00    -0.263 C  
HETATM   12  C   UNL     1      -8.679  11.646  66.489  1.00  0.00    -0.182 C  
BRANCH  10  13
HETATM   13  O   UNL     1      -9.403   8.841  67.009  1.00  0.00    -0.145 OA 
BRANCH  13  14
HETATM   14  C   UNL     1      -9.837   7.481  67.192  1.00  0.00    -0.201 C  
BRANCH  14  15
HETATM   15  C   UNL     1      -8.879   6.510  66.513  1.00  0.00    -0.142 A  
HETATM   16  C   UNL     1      -7.918   7.000  65.611  1.00  0.00    -0.123 A  
HETATM   17  C   UNL     1      -6.919   6.161  65.114  1.00  0.00    -0.056 A  
HETATM   18  C   UNL     1      -8.857   5.148  66.852  1.00  0.00    -0.110 A  
HETATM   19  C   UNL     1      -7.859   4.308  66.352  1.00  0.00    -0.094 A  
HETATM   20 CL   UNL     1      -5.600   3.812  64.962  1.00  0.00    -0.010 Cl 
HETATM   21  C   UNL     1      -6.883   4.823  65.503  1.00  0.00    -0.061 A  
ENDBRANCH  14  15
BRANCH  14  22
HETATM   22  C   UNL     1     -10.026   7.215  68.685  1.00  0.00    -0.159 A  
HETATM   23  C   UNL     1      -9.132   7.257  70.825  1.00  0.00    -0.152 A  
HETATM   24  C   UNL     1     -11.333   6.401  70.537  1.00  0.00    -0.438 A  
HETATM   25  C   UNL     1     -11.210   6.655  69.175  1.00  0.00    -0.305 A  
HETATM   26  N   UNL     1      -8.986   7.520  69.509  1.00  0.00    -0.144 NA 
HETATM   27  C   UNL     1     -10.274   6.705  71.382  1.00  0.00    -0.220 A  
ENDBRANCH  14  22
ENDBRANCH  13  14
ENDBRANCH  10  13
ENDBRANCH   6   7
ENDBRANCH   5   6
ENDBRANCH   4   5
TORSDOF 7
ENDMDL
MODEL      151
REMARK 921   NORMALIZED FREE ENERGY PREDICTED BY IDOCK:   -3.79 KCAL/MOL
REMARK 922        TOTAL FREE ENERGY PREDICTED BY IDOCK:   -6.79 KCAL/MOL
REMARK 923 INTER-LIGAND FREE ENERGY PREDICTED BY IDOCK:   -6.44 KCAL/MOL
REMARK 924 INTRA-LIGAND FREE ENERGY PREDICTED BY IDOCK:   -0.35 KCAL/MOL
REMARK 927      BINDING AFFINITY PREDICTED BY RF-SCORE:    0.00 PKD
ROOT
HETATM    1  O   UNL     1      -8.378   1.575  64.722  1.00  0.00    -0.073 OA 
HETATM    2  C   UNL     1      -8.289   2.447  65.754  1.00  0.00    -0.093 C  
HETATM    3  O   UNL     1      -8.668   2.170  66.880  1.00  0.00    -0.107 OA 
HETATM    4  C   UNL     1      -7.671   3.757  65.335  1.00  0.00    -0.082 C  
ENDROOT
BRANCH   4   5
HETATM    5  C   UNL     1      -7.546   4.746  66.494  1.00  0.00    -0.087 C  
BRANCH   5   6
HETATM    6  C   UNL     1      -8.740   5.707  66.483  1.00  0.00    -0.121 C  
BRANCH   6   7
HETATM    7  N   UNL     1      -8.399   7.134  66.489  1.00  0.00    -0.113 NA 
HETATM    8  C   UNL     1      -9.519   8.045  66.208  1.00  0.00    -0.172 C  
HETATM    9  C   UNL     1     -10.553   8.117  67.333  1.00  0.00    -0.325 C  
HETATM   10  C   UNL     1      -9.903   8.486  68.670  1.00  0.00    -0.170 C  
HETATM   11  C   UNL     1      -8.734   7.537  68.950  1.00  0.00    -0.132 C  
HETATM   12  C   UNL     1      -7.760   7.516  67.765  1.00  0.00    -0.115 C  
BRANCH  10  13
HETATM   13  O   UNL     1      -9.348   9.808  68.710  1.00  0.00    -0.143 OA 
BRANCH  13  14
HETATM   14  C   UNL     1     -10.081  10.811  69.435  1.00  0.00    -0.139 C  
BRANCH  14  15
HETATM   15  C   UNL     1     -10.839  11.725  68.481  1.00  0.00    -0.261 A  
HETATM   16  C   UNL     1     -11.043  13.072  68.825  1.00  0.00    -0.311 A  
HETATM   17  C   UNL     1     -11.575  13.970  67.897  1.00  0.00    -0.377 A  
HETATM   18  C   UNL     1     -11.241  11.283  67.209  1.00  0.00    -0.364 A  
HETATM   19  C   UNL     1     -11.775  12.181  66.282  1.00  0.00    -0.389 A  
HETATM   20 CL   UNL     1     -12.490  14.646  65.451  1.00  0.00    -0.230 Cl 
HETATM   21  C   UNL     1     -11.920  13.523  66.623  1.00  0.00    -0.404 A  
ENDBRANCH  14  15
BRANCH  14  22
HETATM   22  C   UNL     1     -10.972  10.127  70.470  1.00  0.00    -0.310 A  
HETATM   23  C   UNL     1     -11.145   8.692  72.285  1.00  0.00    -0.325 A  
HETATM   24  C   UNL     1     -13.140   9.635  71.398  1.00  0.00    -0.471 A  
HETATM   25  C   UNL     1     -12.360  10.298  70.455  1.00  0.00    -0.371 A  
HETATM   26  N   UNL     1     -10.360   9.327  71.387  1.00  0.00    -0.335 NA 
HETATM   27  C   UNL     1     -12.523   8.813  72.332  1.00  0.00    -0.421 A  
ENDBRANCH  14  22
ENDBRANCH  13  14
ENDBRANCH  10  13
ENDBRANCH   6   7
ENDBRANCH   5   6
ENDBRANCH   4   5
TORSDOF 7
ENDMDL
MODEL      152
REMARK 921   NORMALIZED FREE ENERGY PREDICTED BY IDOCK:   -3.78 KCAL/MOL
REMARK 922        TOTAL FREE ENERGY PREDICTED BY IDOCK:   -6.79 KCAL/MOL
REMARK 923 INTER-LIGAND FREE ENERGY PREDICTED BY IDOCK:   -5.87 KCAL/MOL
REMARK 924 INTRA-LIGAND FREE ENERGY PREDICTED BY IDOCK:   -0.92 KCAL/MOL
REMARK 927      BINDING AFFINITY PREDICTED BY RF-SCORE:    0.00 PKD
ROOT
HETATM    1  O   UNL     1     -10.444  17.629  69.376  1.00  0.00    -0.242 OA 
HETATM    2  C   UNL     1      -9.835  17.368  68.196  1.00  0.00    -0.301 C  
HETATM    3  O   UNL     1      -8.915  18.047  67.770  1.00  0.00    -0.250 OA 
HETATM    4  C   UNL     1     -10.424  16.161  67.511  1.00  0.00    -0.302 C  
ENDROOT
BRANCH   4   5
HETATM    5  C   UNL     1      -9.733  15.841  66.185  1.00  0.00    -0.351 C  
BRANCH   5   6
HETATM    6  C   UNL     1     -10.527  14.765  65.437  1.00  0.00    -0.380 C  
BRANCH   6   7
HETATM    7  N   UNL     1      -9.877  13.452  65.346  1.00  0.00    -0.172 NA 
HETATM    8  C   UNL     1      -9.063  13.076  66.512  1.00  0.00    -0.127 C  
HETATM    9  C   UNL     1      -9.886  12.766  67.764  1.00  0.00    -0.220 C  
HETATM   10  C   UNL     1     -10.939  11.687  67.491  1.00  0.00    -0.259 C  
HETATM   11  C   UNL     1     -11.775  12.085  66.271  1.00  0.00    -0.319 C  
HETATM   12  C   UNL     1     -10.869  12.392  65.073  1.00  0.00    -0.295 C  
BRANCH  10  13
HETATM   13  O   UNL     1     -10.394  10.397  67.184  1.00  0.00    -0.213 OA 
BRANCH  13  14
HETATM   14  C   UNL     1      -9.342   9.904  68.032  1.00  0.00    -0.130 C  
BRANCH  14  15
HETATM   15  C   UNL     1      -9.913   9.102  69.195  1.00  0.00    -0.189 A  
HETATM   16  C   UNL     1     -10.107   9.726  70.440  1.00  0.00    -0.313 A  
HETATM   17  C   UNL     1     -10.791   9.069  71.464  1.00  0.00    -0.416 A  
HETATM   18  C   UNL     1     -10.361   7.782  69.023  1.00  0.00    -0.219 A  
HETATM   19  C   UNL     1     -11.042   7.124  70.050  1.00  0.00    -0.288 A  
HETATM   20 CL   UNL     1     -12.192   7.003  72.488  1.00  0.00    -0.048 Cl 
HETATM   21  C   UNL     1     -11.272   7.778  71.257  1.00  0.00    -0.255 A  
ENDBRANCH  14  15
BRANCH  14  22
HETATM   22  C   UNL     1      -8.339   9.125  67.182  1.00  0.00    -0.117 A  
HETATM   23  C   UNL     1      -6.123   8.639  66.696  1.00  0.00    -0.057 A  
HETATM   24  C   UNL     1      -7.819   7.622  65.374  1.00  0.00    -0.115 A  
HETATM   25  C   UNL     1      -8.765   8.291  66.143  1.00  0.00    -0.174 A  
HETATM   26  N   UNL     1      -7.018   9.298  67.464  1.00  0.00    -0.077 NA 
HETATM   27  C   UNL     1      -6.470   7.798  65.652  1.00  0.00    -0.042 A  
ENDBRANCH  14  22
ENDBRANCH  13  14
ENDBRANCH  10  13
ENDBRANCH   6   7
ENDBRANCH   5   6
ENDBRANCH   4   5
TORSDOF 7
ENDMDL
MODEL      153
REMARK 921   NORMALIZED FREE ENERGY PREDICTED BY IDOCK:   -3.74 KCAL/MOL
REMARK 922        TOTAL FREE ENERGY PREDICTED BY IDOCK:   -6.74 KCAL/MOL
REMARK 923 INTER-LIGAND FREE ENERGY PREDICTED BY IDOCK:   -5.44 KCAL/MOL
REMARK 924 INTRA-LIGAND FREE ENERGY PREDICTED BY IDOCK:   -1.29 KCAL/MOL
REMARK 927      BINDING AFFINITY PREDICTED BY RF-SCORE:    0.00 PKD
ROOT
HETATM    1  O   UNL     1      -9.378   1.981  74.525  1.00  0.00    -0.071 OA 
HETATM    2  C   UNL     1      -9.423   3.277  74.137  1.00  0.00    -0.092 C  
HETATM    3  O   UNL     1      -8.438   3.997  74.146  1.00  0.00    -0.093 OA 
HETATM    4  C   UNL     1     -10.806   3.689  73.701  1.00  0.00    -0.326 C  
ENDROOT
BRANCH   4   5
HETATM    5  C   UNL     1     -10.869   5.146  73.241  1.00  0.00    -0.352 C  
BRANCH   5   6
HETATM    6  C   UNL     1     -10.641   5.218  71.727  1.00  0.00    -0.201 C  
BRANCH   6   7
HETATM    7  N   UNL     1      -9.676   6.231  71.283  1.00  0.00    -0.174 NA 
HETATM    8  C   UNL     1      -9.219   6.091  69.892  1.00  0.00    -0.148 C  
HETATM    9  C   UNL     1     -10.293   6.422  68.855  1.00  0.00    -0.237 C  
HETATM   10  C   UNL     1     -10.875   7.822  69.076  1.00  0.00    -0.021 C  
HETATM   11  C   UNL     1     -11.340   7.959  70.529  1.00  0.00    -0.242 C  
HETATM   12  C   UNL     1     -10.207   7.592  71.495  1.00  0.00    -0.184 C  
BRANCH  10  13
HETATM   13  O   UNL     1      -9.940   8.888  68.866  1.00  0.00    -0.179 OA 
BRANCH  13  14
HETATM   14  C   UNL     1      -9.536   9.156  67.512  1.00  0.00    -0.139 C  
BRANCH  14  15
HETATM   15  C   UNL     1     -10.200  10.422  66.986  1.00  0.00    -0.277 A  
HETATM   16  C   UNL     1     -10.202  10.684  65.605  1.00  0.00    -0.319 A  
HETATM   17  C   UNL     1     -10.954  11.738  65.083  1.00  0.00    -0.351 A  
HETATM   18  C   UNL     1     -10.914  11.281  67.838  1.00  0.00    -0.302 A  
HETATM   19  C   UNL     1     -11.663  12.338  67.316  1.00  0.00    -0.394 A  
HETATM   20 CL   UNL     1     -12.693  13.790  65.288  1.00  0.00    -0.502 Cl 
HETATM   21  C   UNL     1     -11.696  12.548  65.939  1.00  0.00    -0.426 A  
ENDBRANCH  14  15
BRANCH  14  22
HETATM   22  C   UNL     1      -8.009   9.189  67.444  1.00  0.00    -0.103 A  
HETATM   23  C   UNL     1      -6.043  10.360  67.822  1.00  0.00    -0.052 A  
HETATM   24  C   UNL     1      -5.899   8.202  66.833  1.00  0.00    -0.048 A  
HETATM   25  C   UNL     1      -7.286   8.121  66.902  1.00  0.00    -0.087 A  
HETATM   26  N   UNL     1      -7.390  10.309  67.909  1.00  0.00    -0.086 NA 
HETATM   27  C   UNL     1      -5.261   9.344  67.299  1.00  0.00    -0.036 A  
ENDBRANCH  14  22
ENDBRANCH  13  14
ENDBRANCH  10  13
ENDBRANCH   6   7
ENDBRANCH   5   6
ENDBRANCH   4   5
TORSDOF 7
ENDMDL
MODEL      154
REMARK 921   NORMALIZED FREE ENERGY PREDICTED BY IDOCK:   -3.74 KCAL/MOL
REMARK 922        TOTAL FREE ENERGY PREDICTED BY IDOCK:   -6.73 KCAL/MOL
REMARK 923 INTER-LIGAND FREE ENERGY PREDICTED BY IDOCK:   -5.31 KCAL/MOL
REMARK 924 INTRA-LIGAND FREE ENERGY PREDICTED BY IDOCK:   -1.43 KCAL/MOL
REMARK 927      BINDING AFFINITY PREDICTED BY RF-SCORE:    0.00 PKD
ROOT
HETATM    1  O   UNL     1      -7.667   3.819  72.816  1.00  0.00    -0.066 OA 
HETATM    2  C   UNL     1      -6.838   4.862  72.574  1.00  0.00    -0.069 C  
HETATM    3  O   UNL     1      -5.943   4.808  71.747  1.00  0.00    -0.015 OA 
HETATM    4  C   UNL     1      -7.169   6.056  73.432  1.00  0.00    -0.085 C  
ENDROOT
BRANCH   4   5
HETATM    5  C   UNL     1      -6.253   7.250  73.157  1.00  0.00    -0.056 C  
BRANCH   5   6
HETATM    6  C   UNL     1      -7.006   8.296  72.327  1.00  0.00    -0.093 C  
BRANCH   6   7
HETATM    7  N   UNL     1      -7.330   7.894  70.953  1.00  0.00    -0.056 NA 
HETATM    8  C   UNL     1      -8.758   7.945  70.607  1.00  0.00    -0.135 C  
HETATM    9  C   UNL     1      -9.316   9.365  70.499  1.00  0.00    -0.319 C  
HETATM   10  C   UNL     1      -8.509  10.213  69.511  1.00  0.00    -0.168 C  
HETATM   11  C   UNL     1      -7.022  10.147  69.875  1.00  0.00    -0.133 C  
HETATM   12  C   UNL     1      -6.556   8.689  69.977  1.00  0.00    -0.038 C  
BRANCH  10  13
HETATM   13  O   UNL     1      -8.594   9.771  68.149  1.00  0.00    -0.118 OA 
BRANCH  13  14
HETATM   14  C   UNL     1      -9.879   9.328  67.677  1.00  0.00    -0.176 C  
BRANCH  14  15
HETATM   15  C   UNL     1     -10.464  10.323  66.683  1.00  0.00    -0.260 A  
HETATM   16  C   UNL     1     -11.268  11.379  67.147  1.00  0.00    -0.363 A  
HETATM   17  C   UNL     1     -11.667  12.401  66.284  1.00  0.00    -0.457 A  
HETATM   18  C   UNL     1     -10.124  10.281  65.320  1.00  0.00    -0.359 A  
HETATM   19  C   UNL     1     -10.526  11.303  64.456  1.00  0.00    -0.396 A  
HETATM   20 CL   UNL     1     -11.693  13.672  63.905  1.00  0.00    -0.399 Cl 
HETATM   21  C   UNL     1     -11.277  12.368  64.947  1.00  0.00    -0.311 A  
ENDBRANCH  14  15
BRANCH  14  22
HETATM   22  C   UNL     1      -9.746   7.911  67.122  1.00  0.00    -0.191 A  
HETATM   23  C   UNL     1     -10.767   5.896  66.591  1.00  0.00    -0.252 A  
HETATM   24  C   UNL     1      -8.420   6.095  66.260  1.00  0.00    -0.132 A  
HETATM   25  C   UNL     1      -8.503   7.401  66.733  1.00  0.00    -0.124 A  
HETATM   26  N   UNL     1     -10.881   7.162  67.049  1.00  0.00    -0.362 NA 
HETATM   27  C   UNL     1      -9.573   5.324  66.188  1.00  0.00    -0.176 A  
ENDBRANCH  14  22
ENDBRANCH  13  14
ENDBRANCH  10  13
ENDBRANCH   6   7
ENDBRANCH   5   6
ENDBRANCH   4   5
TORSDOF 7
ENDMDL
MODEL      155
REMARK 921   NORMALIZED FREE ENERGY PREDICTED BY IDOCK:   -3.73 KCAL/MOL
REMARK 922        TOTAL FREE ENERGY PREDICTED BY IDOCK:   -6.72 KCAL/MOL
REMARK 923 INTER-LIGAND FREE ENERGY PREDICTED BY IDOCK:   -5.54 KCAL/MOL
REMARK 924 INTRA-LIGAND FREE ENERGY PREDICTED BY IDOCK:   -1.18 KCAL/MOL
REMARK 927      BINDING AFFINITY PREDICTED BY RF-SCORE:    0.00 PKD
ROOT
HETATM    1  O   UNL     1      -5.783   2.552  62.986  1.00  0.00    -0.008 OA 
HETATM    2  C   UNL     1      -6.944   2.535  63.683  1.00  0.00    -0.040 C  
HETATM    3  O   UNL     1      -8.034   2.505  63.137  1.00  0.00    -0.066 OA 
HETATM    4  C   UNL     1      -6.708   2.549  65.172  1.00  0.00    -0.039 C  
ENDROOT
BRANCH   4   5
HETATM    5  C   UNL     1      -8.010   2.510  65.974  1.00  0.00    -0.082 C  
BRANCH   5   6
HETATM    6  C   UNL     1      -7.925   3.497  67.143  1.00  0.00    -0.083 C  
BRANCH   6   7
HETATM    7  N   UNL     1      -9.144   4.272  67.403  1.00  0.00    -0.128 NA 
HETATM    8  C   UNL     1      -9.272   4.793  68.773  1.00  0.00    -0.124 C  
HETATM    9  C   UNL     1      -8.289   5.918  69.099  1.00  0.00    -0.106 C  
HETATM   10  C   UNL     1      -8.396   7.067  68.091  1.00  0.00    -0.123 C  
HETATM   11  C   UNL     1      -8.269   6.513  66.668  1.00  0.00    -0.112 C  
HETATM   12  C   UNL     1      -9.278   5.381  66.438  1.00  0.00    -0.147 C  
BRANCH  10  13
HETATM   13  O   UNL     1      -9.648   7.765  68.124  1.00  0.00    -0.147 OA 
BRANCH  13  14
HETATM   14  C   UNL     1      -9.790   8.821  69.091  1.00  0.00    -0.181 C  
BRANCH  14  15
HETATM   15  C   UNL     1     -10.541  10.005  68.495  1.00  0.00    -0.245 A  
HETATM   16  C   UNL     1     -11.084  10.983  69.346  1.00  0.00    -0.320 A  
HETATM   17  C   UNL     1     -11.618  12.163  68.824  1.00  0.00    -0.380 A  
HETATM   18  C   UNL     1     -10.604  10.208  67.106  1.00  0.00    -0.308 A  
HETATM   19  C   UNL     1     -11.141  11.387  66.584  1.00  0.00    -0.333 A  
HETATM   20 CL   UNL     1     -12.199  13.859  66.808  1.00  0.00    -0.462 Cl 
HETATM   21  C   UNL     1     -11.625  12.367  67.446  1.00  0.00    -0.365 A  
ENDBRANCH  14  15
BRANCH  14  22
HETATM   22  C   UNL     1     -10.438   8.256  70.355  1.00  0.00    -0.215 A  
HETATM   23  C   UNL     1     -10.475   8.148  72.672  1.00  0.00    -0.330 A  
HETATM   24  C   UNL     1     -12.031   6.823  71.454  1.00  0.00    -0.403 A  
HETATM   25  C   UNL     1     -11.488   7.336  70.280  1.00  0.00    -0.242 A  
HETATM   26  N   UNL     1      -9.931   8.668  71.550  1.00  0.00    -0.245 NA 
HETATM   27  C   UNL     1     -11.515   7.234  72.676  1.00  0.00    -0.304 A  
ENDBRANCH  14  22
ENDBRANCH  13  14
ENDBRANCH  10  13
ENDBRANCH   6   7
ENDBRANCH   5   6
ENDBRANCH   4   5
TORSDOF 7
ENDMDL
MODEL      156
REMARK 921   NORMALIZED FREE ENERGY PREDICTED BY IDOCK:   -3.71 KCAL/MOL
REMARK 922        TOTAL FREE ENERGY PREDICTED BY IDOCK:   -6.68 KCAL/MOL
REMARK 923 INTER-LIGAND FREE ENERGY PREDICTED BY IDOCK:   -5.35 KCAL/MOL
REMARK 924 INTRA-LIGAND FREE ENERGY PREDICTED BY IDOCK:   -1.34 KCAL/MOL
REMARK 927      BINDING AFFINITY PREDICTED BY RF-SCORE:    0.00 PKD
ROOT
HETATM    1  O   UNL     1      -7.491  15.813  69.306  1.00  0.00    -0.194 OA 
HETATM    2  C   UNL     1      -6.599  14.798  69.389  1.00  0.00    -0.142 C  
HETATM    3  O   UNL     1      -6.202  14.361  70.456  1.00  0.00    -0.178 OA 
HETATM    4  C   UNL     1      -6.187  14.297  68.028  1.00  0.00    -0.158 C  
ENDROOT
BRANCH   4   5
HETATM    5  C   UNL     1      -5.193  13.136  68.104  1.00  0.00    -0.098 C  
BRANCH   5   6
HETATM    6  C   UNL     1      -5.790  11.902  67.419  1.00  0.00    -0.115 C  
BRANCH   6   7
HETATM    7  N   UNL     1      -6.092  10.773  68.307  1.00  0.00    -0.046 NA 
HETATM    8  C   UNL     1      -7.188  11.004  69.260  1.00  0.00    -0.124 C  
HETATM    9  C   UNL     1      -8.569  11.073  68.606  1.00  0.00    -0.157 C  
HETATM   10  C   UNL     1      -8.858   9.822  67.770  1.00  0.00    -0.129 C  
HETATM   11  C   UNL     1      -7.707   9.586  66.787  1.00  0.00    -0.098 C  
HETATM   12  C   UNL     1      -6.364   9.549  67.527  1.00  0.00    -0.061 C  
BRANCH  10  13
HETATM   13  O   UNL     1      -8.967   8.614  68.536  1.00  0.00    -0.138 OA 
BRANCH  13  14
HETATM   14  C   UNL     1     -10.225   7.918  68.498  1.00  0.00    -0.205 C  
BRANCH  14  15
HETATM   15  C   UNL     1     -10.057   6.525  67.906  1.00  0.00    -0.170 A  
HETATM   16  C   UNL     1     -10.892   6.112  66.853  1.00  0.00    -0.411 A  
HETATM   17  C   UNL     1     -10.644   4.916  66.177  1.00  0.00    -0.322 A  
HETATM   18  C   UNL     1      -9.010   5.680  68.310  1.00  0.00    -0.114 A  
HETATM   19  C   UNL     1      -8.764   4.482  67.635  1.00  0.00    -0.111 A  
HETATM   20 CL   UNL     1      -9.209   2.688  65.669  1.00  0.00    -0.125 Cl 
HETATM   21  C   UNL     1      -9.569   4.116  66.559  1.00  0.00    -0.204 A  
ENDBRANCH  14  15
BRANCH  14  22
HETATM   22  C   UNL     1     -10.840   7.922  69.897  1.00  0.00    -0.221 A  
HETATM   23  C   UNL     1     -11.137   9.022  71.918  1.00  0.00    -0.363 A  
HETATM   24  C   UNL     1     -12.090   6.858  71.659  1.00  0.00    -0.394 A  
HETATM   25  C   UNL     1     -11.570   6.827  70.369  1.00  0.00    -0.422 A  
HETATM   26  N   UNL     1     -10.624   9.024  70.668  1.00  0.00    -0.219 NA 
HETATM   27  C   UNL     1     -11.869   7.976  72.453  1.00  0.00    -0.429 A  
ENDBRANCH  14  22
ENDBRANCH  13  14
ENDBRANCH  10  13
ENDBRANCH   6   7
ENDBRANCH   5   6
ENDBRANCH   4   5
TORSDOF 7
ENDMDL
MODEL      157
REMARK 921   NORMALIZED FREE ENERGY PREDICTED BY IDOCK:   -3.71 KCAL/MOL
REMARK 922        TOTAL FREE ENERGY PREDICTED BY IDOCK:   -6.68 KCAL/MOL
REMARK 923 INTER-LIGAND FREE ENERGY PREDICTED BY IDOCK:   -6.19 KCAL/MOL
REMARK 924 INTRA-LIGAND FREE ENERGY PREDICTED BY IDOCK:   -0.49 KCAL/MOL
REMARK 927      BINDING AFFINITY PREDICTED BY RF-SCORE:    0.00 PKD
ROOT
HETATM    1  O   UNL     1      -8.489   4.047  67.027  1.00  0.00    -0.100 OA 
HETATM    2  C   UNL     1      -9.622   4.753  67.250  1.00  0.00    -0.163 C  
HETATM    3  O   UNL     1     -10.486   4.889  66.400  1.00  0.00    -0.283 OA 
HETATM    4  C   UNL     1      -9.669   5.319  68.646  1.00  0.00    -0.199 C  
ENDROOT
BRANCH   4   5
HETATM    5  C   UNL     1     -10.953   6.104  68.920  1.00  0.00    -0.424 C  
BRANCH   5   6
HETATM    6  C   UNL     1     -10.798   6.908  70.216  1.00  0.00    -0.257 C  
BRANCH   6   7
HETATM    7  N   UNL     1      -9.846   8.023  70.155  1.00  0.00    -0.184 NA 
HETATM    8  C   UNL     1      -9.512   8.487  68.800  1.00  0.00    -0.143 C  
HETATM    9  C   UNL     1     -10.661   9.213  68.097  1.00  0.00    -0.235 C  
HETATM   10  C   UNL     1     -11.183  10.383  68.937  1.00  0.00    -0.235 C  
HETATM   11  C   UNL     1     -11.519   9.891  70.348  1.00  0.00    -0.372 C  
HETATM   12  C   UNL     1     -10.319   9.163  70.966  1.00  0.00    -0.293 C  
BRANCH  10  13
HETATM   13  O   UNL     1     -10.239  11.449  69.113  1.00  0.00    -0.169 OA 
BRANCH  13  14
HETATM   14  C   UNL     1      -9.456  11.834  67.969  1.00  0.00    -0.188 C  
BRANCH  14  15
HETATM   15  C   UNL     1     -10.301  12.615  66.971  1.00  0.00    -0.241 A  
HETATM   16  C   UNL     1     -11.310  13.476  67.438  1.00  0.00    -0.338 A  
HETATM   17  C   UNL     1     -11.975  14.333  66.560  1.00  0.00    -0.448 A  
HETATM   18  C   UNL     1     -10.021  12.585  65.595  1.00  0.00    -0.259 A  
HETATM   19  C   UNL     1     -10.690  13.441  64.716  1.00  0.00    -0.403 A  
HETATM   20 CL   UNL     1     -12.403  15.444  64.139  1.00  0.00    -0.228 Cl 
HETATM   21  C   UNL     1     -11.648  14.325  65.206  1.00  0.00    -0.348 A  
ENDBRANCH  14  15
BRANCH  14  22
HETATM   22  C   UNL     1      -8.214  12.587  68.446  1.00  0.00    -0.136 A  
HETATM   23  C   UNL     1      -6.189  12.536  69.575  1.00  0.00    -0.120 A  
HETATM   24  C   UNL     1      -6.936  14.613  68.691  1.00  0.00    -0.111 A  
HETATM   25  C   UNL     1      -8.068  13.958  68.216  1.00  0.00    -0.150 A  
HETATM   26  N   UNL     1      -7.274  11.871  69.122  1.00  0.00    -0.066 NA 
HETATM   27  C   UNL     1      -5.976  13.891  69.387  1.00  0.00    -0.099 A  
ENDBRANCH  14  22
ENDBRANCH  13  14
ENDBRANCH  10  13
ENDBRANCH   6   7
ENDBRANCH   5   6
ENDBRANCH   4   5
TORSDOF 7
ENDMDL
MODEL      158
REMARK 921   NORMALIZED FREE ENERGY PREDICTED BY IDOCK:   -3.70 KCAL/MOL
REMARK 922        TOTAL FREE ENERGY PREDICTED BY IDOCK:   -6.68 KCAL/MOL
REMARK 923 INTER-LIGAND FREE ENERGY PREDICTED BY IDOCK:   -5.41 KCAL/MOL
REMARK 924 INTRA-LIGAND FREE ENERGY PREDICTED BY IDOCK:   -1.27 KCAL/MOL
REMARK 927      BINDING AFFINITY PREDICTED BY RF-SCORE:    0.00 PKD
ROOT
HETATM    1  O   UNL     1      -6.790   4.292  73.632  1.00  0.00    -0.055 OA 
HETATM    2  C   UNL     1      -7.555   4.704  72.594  1.00  0.00    -0.086 C  
HETATM    3  O   UNL     1      -7.309   4.403  71.438  1.00  0.00    -0.052 OA 
HETATM    4  C   UNL     1      -8.718   5.549  73.052  1.00  0.00    -0.121 C  
ENDROOT
BRANCH   4   5
HETATM    5  C   UNL     1      -9.605   6.006  71.892  1.00  0.00    -0.166 C  
BRANCH   5   6
HETATM    6  C   UNL     1      -9.112   7.360  71.371  1.00  0.00    -0.141 C  
BRANCH   6   7
HETATM    7  N   UNL     1      -9.429   7.647  69.967  1.00  0.00    -0.161 NA 
HETATM    8  C   UNL     1     -10.604   8.505  69.754  1.00  0.00    -0.224 C  
HETATM    9  C   UNL     1     -10.390   9.960  70.175  1.00  0.00    -0.336 C  
HETATM   10  C   UNL     1      -9.166  10.570  69.485  1.00  0.00    -0.048 C  
HETATM   11  C   UNL     1      -7.950   9.665  69.706  1.00  0.00    -0.154 C  
HETATM   12  C   UNL     1      -8.261   8.227  69.273  1.00  0.00    -0.118 C  
BRANCH  10  13
HETATM   13  O   UNL     1      -9.297  10.702  68.063  1.00  0.00    -0.143 OA 
BRANCH  13  14
HETATM   14  C   UNL     1     -10.089  11.798  67.571  1.00  0.00    -0.192 C  
BRANCH  14  15
HETATM   15  C   UNL     1      -9.539  13.130  68.065  1.00  0.00    -0.220 A  
HETATM   16  C   UNL     1      -8.254  13.540  67.670  1.00  0.00    -0.178 A  
HETATM   17  C   UNL     1      -7.799  14.828  67.960  1.00  0.00    -0.134 A  
HETATM   18  C   UNL     1     -10.332  14.016  68.813  1.00  0.00    -0.225 A  
HETATM   19  C   UNL     1      -9.875  15.303  69.106  1.00  0.00    -0.239 A  
HETATM   20 CL   UNL     1      -8.095  17.324  68.938  1.00  0.00    -0.232 Cl 
HETATM   21  C   UNL     1      -8.620  15.710  68.660  1.00  0.00    -0.188 A  
ENDBRANCH  14  15
BRANCH  14  22
HETATM   22  C   UNL     1     -10.187  11.699  66.049  1.00  0.00    -0.232 A  
HETATM   23  C   UNL     1      -9.723  10.504  64.116  1.00  0.00    -0.327 A  
HETATM   24  C   UNL     1     -10.806  12.611  63.908  1.00  0.00    -0.468 A  
HETATM   25  C   UNL     1     -10.761  12.726  65.294  1.00  0.00    -0.319 A  
HETATM   26  N   UNL     1      -9.670  10.584  65.463  1.00  0.00    -0.223 NA 
HETATM   27  C   UNL     1     -10.275  11.480  63.303  1.00  0.00    -0.432 A  
ENDBRANCH  14  22
ENDBRANCH  13  14
ENDBRANCH  10  13
ENDBRANCH   6   7
ENDBRANCH   5   6
ENDBRANCH   4   5
TORSDOF 7
ENDMDL
MODEL      159
REMARK 921   NORMALIZED FREE ENERGY PREDICTED BY IDOCK:   -3.65 KCAL/MOL
REMARK 922        TOTAL FREE ENERGY PREDICTED BY IDOCK:   -6.60 KCAL/MOL
REMARK 923 INTER-LIGAND FREE ENERGY PREDICTED BY IDOCK:   -5.34 KCAL/MOL
REMARK 924 INTRA-LIGAND FREE ENERGY PREDICTED BY IDOCK:   -1.26 KCAL/MOL
REMARK 927      BINDING AFFINITY PREDICTED BY RF-SCORE:    0.00 PKD
ROOT
HETATM    1  O   UNL     1      -6.677   3.460  73.955  1.00  0.00    -0.036 OA 
HETATM    2  C   UNL     1      -6.436   3.971  72.725  1.00  0.00    -0.028 C  
HETATM    3  O   UNL     1      -5.307   4.123  72.289  1.00  0.00     0.000 OA 
HETATM    4  C   UNL     1      -7.712   4.304  71.993  1.00  0.00    -0.080 C  
ENDROOT
BRANCH   4   5
HETATM    5  C   UNL     1      -7.457   4.864  70.592  1.00  0.00    -0.065 C  
BRANCH   5   6
HETATM    6  C   UNL     1      -8.443   6.001  70.305  1.00  0.00    -0.124 C  
BRANCH   6   7
HETATM    7  N   UNL     1      -7.991   6.993  69.322  1.00  0.00    -0.117 NA 
HETATM    8  C   UNL     1      -8.459   6.767  67.946  1.00  0.00    -0.119 C  
HETATM    9  C   UNL     1      -9.956   7.017  67.756  1.00  0.00    -0.186 C  
HETATM   10  C   UNL     1     -10.355   8.422  68.220  1.00  0.00    -0.199 C  
HETATM   11  C   UNL     1      -9.856   8.649  69.651  1.00  0.00    -0.186 C  
HETATM   12  C   UNL     1      -8.353   8.360  69.750  1.00  0.00    -0.125 C  
BRANCH  10  13
HETATM   13  O   UNL     1      -9.789   9.483  67.439  1.00  0.00    -0.154 OA 
BRANCH  13  14
HETATM   14  C   UNL     1     -10.683  10.505  66.966  1.00  0.00    -0.250 C  
BRANCH  14  15
HETATM   15  C   UNL     1     -10.615  11.740  67.856  1.00  0.00    -0.231 A  
HETATM   16  C   UNL     1      -9.399  12.434  67.988  1.00  0.00    -0.204 A  
HETATM   17  C   UNL     1      -9.352  13.663  68.650  1.00  0.00    -0.057 A  
HETATM   18  C   UNL     1     -11.767  12.272  68.459  1.00  0.00    -0.381 A  
HETATM   19  C   UNL     1     -11.718  13.500  69.123  1.00  0.00    -0.374 A  
HETATM   20 CL   UNL     1     -10.474  15.754  69.933  1.00  0.00    -0.308 Cl 
HETATM   21  C   UNL     1     -10.515  14.199  69.197  1.00  0.00    -0.129 A  
ENDBRANCH  14  15
BRANCH  14  22
HETATM   22  C   UNL     1     -10.383  10.790  65.495  1.00  0.00    -0.241 A  
HETATM   23  C   UNL     1      -9.125  10.302  63.608  1.00  0.00    -0.258 A  
HETATM   24  C   UNL     1     -10.731  12.050  63.473  1.00  0.00    -0.513 A  
HETATM   25  C   UNL     1     -11.054  11.803  64.804  1.00  0.00    -0.356 A  
HETATM   26  N   UNL     1      -9.420  10.034  64.899  1.00  0.00    -0.273 NA 
HETATM   27  C   UNL     1      -9.746  11.287  62.860  1.00  0.00    -0.351 A  
ENDBRANCH  14  22
ENDBRANCH  13  14
ENDBRANCH  10  13
ENDBRANCH   6   7
ENDBRANCH   5   6
ENDBRANCH   4   5
TORSDOF 7
ENDMDL
MODEL      160
REMARK 921   NORMALIZED FREE ENERGY PREDICTED BY IDOCK:   -3.64 KCAL/MOL
REMARK 922        TOTAL FREE ENERGY PREDICTED BY IDOCK:   -6.59 KCAL/MOL
REMARK 923 INTER-LIGAND FREE ENERGY PREDICTED BY IDOCK:   -5.16 KCAL/MOL
REMARK 924 INTRA-LIGAND FREE ENERGY PREDICTED BY IDOCK:   -1.43 KCAL/MOL
REMARK 927      BINDING AFFINITY PREDICTED BY RF-SCORE:    0.00 PKD
ROOT
HETATM    1  O   UNL     1      -5.866   3.315  64.845  1.00  0.00    -0.017 OA 
HETATM    2  C   UNL     1      -7.101   3.197  65.387  1.00  0.00    -0.062 C  
HETATM    3  O   UNL     1      -8.111   3.534  64.793  1.00  0.00    -0.089 OA 
HETATM    4  C   UNL     1      -7.054   2.604  66.773  1.00  0.00    -0.049 C  
ENDROOT
BRANCH   4   5
HETATM    5  C   UNL     1      -8.444   2.445  67.392  1.00  0.00    -0.109 C  
BRANCH   5   6
HETATM    6  C   UNL     1      -8.532   3.273  68.678  1.00  0.00    -0.079 C  
BRANCH   6   7
HETATM    7  N   UNL     1      -9.780   4.026  68.857  1.00  0.00    -0.134 NA 
HETATM    8  C   UNL     1      -9.948   4.649  70.178  1.00  0.00    -0.233 C  
HETATM    9  C   UNL     1      -9.007   5.829  70.428  1.00  0.00    -0.154 C  
HETATM   10  C   UNL     1      -9.132   6.889  69.330  1.00  0.00    -0.140 C  
HETATM   11  C   UNL     1      -8.963   6.228  67.958  1.00  0.00    -0.114 C  
HETATM   12  C   UNL     1      -9.932   5.050  67.804  1.00  0.00    -0.147 C  
BRANCH  10  13
HETATM   13  O   UNL     1     -10.406   7.547  69.288  1.00  0.00    -0.200 OA 
BRANCH  13  14
HETATM   14  C   UNL     1     -10.549   8.760  70.047  1.00  0.00    -0.223 C  
BRANCH  14  15
HETATM   15  C   UNL     1     -10.488   9.980  69.137  1.00  0.00    -0.238 A  
HETATM   16  C   UNL     1      -9.380  10.843  69.205  1.00  0.00    -0.096 A  
HETATM   17  C   UNL     1      -9.214  11.861  68.264  1.00  0.00    -0.187 A  
HETATM   18  C   UNL     1     -11.459  10.203  68.147  1.00  0.00    -0.036 A  
HETATM   19  C   UNL     1     -11.294  11.225  67.208  1.00  0.00    -0.329 A  
HETATM   20 CL   UNL     1      -9.913  13.231  66.047  1.00  0.00    -0.296 Cl 
HETATM   21  C   UNL     1     -10.163  12.035  67.259  1.00  0.00    -0.204 A  
ENDBRANCH  14  15
BRANCH  14  22
HETATM   22  C   UNL     1     -11.826   8.679  70.883  1.00  0.00    -0.225 A  
HETATM   23  C   UNL     1     -13.725   7.485  71.472  1.00  0.00    -0.372 A  
HETATM   24  C   UNL     1     -13.399   9.634  72.436  1.00  0.00    -0.426 A  
HETATM   25  C   UNL     1     -12.214   9.735  71.714  1.00  0.00    -0.449 A  
HETATM   26  N   UNL     1     -12.577   7.550  70.762  1.00  0.00    -0.078 NA 
HETATM   27  C   UNL     1     -14.173   8.488  72.314  1.00  0.00    -0.471 A  
ENDBRANCH  14  22
ENDBRANCH  13  14
ENDBRANCH  10  13
ENDBRANCH   6   7
ENDBRANCH   5   6
ENDBRANCH   4   5
TORSDOF 7
ENDMDL
MODEL      161
REMARK 921   NORMALIZED FREE ENERGY PREDICTED BY IDOCK:   -3.63 KCAL/MOL
REMARK 922        TOTAL FREE ENERGY PREDICTED BY IDOCK:   -6.58 KCAL/MOL
REMARK 923 INTER-LIGAND FREE ENERGY PREDICTED BY IDOCK:   -5.65 KCAL/MOL
REMARK 924 INTRA-LIGAND FREE ENERGY PREDICTED BY IDOCK:   -0.93 KCAL/MOL
REMARK 927      BINDING AFFINITY PREDICTED BY RF-SCORE:    0.00 PKD
ROOT
HETATM    1  O   UNL     1     -10.015   2.455  70.101  1.00  0.00     0.132 OA 
HETATM    2  C   UNL     1      -9.456   3.479  69.414  1.00  0.00    -0.164 C  
HETATM    3  O   UNL     1      -8.814   3.308  68.391  1.00  0.00    -0.096 OA 
HETATM    4  C   UNL     1      -9.735   4.811  70.063  1.00  0.00    -0.280 C  
ENDROOT
BRANCH   4   5
HETATM    5  C   UNL     1      -9.127   5.982  69.288  1.00  0.00    -0.126 C  
BRANCH   5   6
HETATM    6  C   UNL     1      -9.389   7.290  70.042  1.00  0.00    -0.154 C  
BRANCH   6   7
HETATM    7  N   UNL     1      -8.815   8.494  69.431  1.00  0.00    -0.140 NA 
HETATM    8  C   UNL     1      -8.992   8.602  67.975  1.00  0.00    -0.141 C  
HETATM    9  C   UNL     1     -10.435   8.874  67.549  1.00  0.00    -0.337 C  
HETATM   10  C   UNL     1     -11.000  10.121  68.238  1.00  0.00    -0.248 C  
HETATM   11  C   UNL     1     -10.803  10.001  69.752  1.00  0.00    -0.308 C  
HETATM   12  C   UNL     1      -9.334   9.713  70.085  1.00  0.00    -0.251 C  
BRANCH  10  13
HETATM   13  O   UNL     1     -10.356  11.345  67.858  1.00  0.00    -0.175 OA 
BRANCH  13  14
HETATM   14  C   UNL     1     -10.932  12.083  66.767  1.00  0.00    -0.285 C  
BRANCH  14  15
HETATM   15  C   UNL     1     -10.777  13.583  66.984  1.00  0.00    -0.278 A  
HETATM   16  C   UNL     1     -11.763  14.287  67.697  1.00  0.00    -0.421 A  
HETATM   17  C   UNL     1     -11.560  15.619  68.063  1.00  0.00    -0.245 A  
HETATM   18  C   UNL     1      -9.613  14.263  66.589  1.00  0.00    -0.302 A  
HETATM   19  C   UNL     1      -9.412  15.597  66.952  1.00  0.00    -0.245 A  
HETATM   20 CL   UNL     1     -10.088  17.874  68.233  1.00  0.00    -0.353 Cl 
HETATM   21  C   UNL     1     -10.376  16.262  67.705  1.00  0.00    -0.287 A  
ENDBRANCH  14  15
BRANCH  14  22
HETATM   22  C   UNL     1     -10.327  11.586  65.454  1.00  0.00    -0.273 A  
HETATM   23  C   UNL     1     -10.657  10.931  63.254  1.00  0.00     0.023 A  
HETATM   24  C   UNL     1      -8.453  10.831  64.143  1.00  0.00     0.017 A  
HETATM   25  C   UNL     1      -8.961  11.310  65.347  1.00  0.00    -0.106 A  
HETATM   26  N   UNL     1     -11.178  11.402  64.407  1.00  0.00    -0.264 NA 
HETATM   27  C   UNL     1      -9.316  10.635  63.073  1.00  0.00    -0.342 A  
ENDBRANCH  14  22
ENDBRANCH  13  14
ENDBRANCH  10  13
ENDBRANCH   6   7
ENDBRANCH   5   6
ENDBRANCH   4   5
TORSDOF 7
ENDMDL
MODEL      162
REMARK 921   NORMALIZED FREE ENERGY PREDICTED BY IDOCK:   -3.62 KCAL/MOL
REMARK 922        TOTAL FREE ENERGY PREDICTED BY IDOCK:   -6.56 KCAL/MOL
REMARK 923 INTER-LIGAND FREE ENERGY PREDICTED BY IDOCK:   -6.44 KCAL/MOL
REMARK 924 INTRA-LIGAND FREE ENERGY PREDICTED BY IDOCK:   -0.12 KCAL/MOL
REMARK 927      BINDING AFFINITY PREDICTED BY RF-SCORE:    0.00 PKD
ROOT
HETATM    1  O   UNL     1     -12.947  12.192  63.237  1.00  0.00    -0.735 OA 
HETATM    2  C   UNL     1     -12.067  12.791  64.075  1.00  0.00    -0.457 C  
HETATM    3  O   UNL     1     -10.866  12.591  64.015  1.00  0.00    -0.344 OA 
HETATM    4  C   UNL     1     -12.755  13.713  65.049  1.00  0.00    -0.384 C  
ENDROOT
BRANCH   4   5
HETATM    5  C   UNL     1     -11.773  14.413  65.990  1.00  0.00    -0.378 C  
BRANCH   5   6
HETATM    6  C   UNL     1     -12.146  14.107  67.445  1.00  0.00    -0.344 C  
BRANCH   6   7
HETATM    7  N   UNL     1     -11.021  13.784  68.329  1.00  0.00    -0.242 NA 
HETATM    8  C   UNL     1     -11.367  12.987  69.516  1.00  0.00    -0.155 C  
HETATM    9  C   UNL     1     -11.746  11.540  69.197  1.00  0.00    -0.395 C  
HETATM   10  C   UNL     1     -10.647  10.835  68.396  1.00  0.00    -0.197 C  
HETATM   11  C   UNL     1     -10.289  11.676  67.168  1.00  0.00    -0.247 C  
HETATM   12  C   UNL     1      -9.940  13.112  67.580  1.00  0.00    -0.223 C  
BRANCH  10  13
HETATM   13  O   UNL     1      -9.418  10.654  69.115  1.00  0.00    -0.200 OA 
BRANCH  13  14
HETATM   14  C   UNL     1      -8.719   9.412  68.926  1.00  0.00    -0.132 C  
BRANCH  14  15
HETATM   15  C   UNL     1      -9.405   8.282  69.684  1.00  0.00    -0.158 A  
HETATM   16  C   UNL     1      -8.702   7.092  69.941  1.00  0.00    -0.142 A  
HETATM   17  C   UNL     1      -9.242   6.117  70.782  1.00  0.00    -0.163 A  
HETATM   18  C   UNL     1     -10.687   8.443  70.235  1.00  0.00    -0.240 A  
HETATM   19  C   UNL     1     -11.227   7.466  71.073  1.00  0.00    -0.285 A  
HETATM   20 CL   UNL     1     -11.118   5.158  72.467  1.00  0.00    -0.281 Cl 
HETATM   21  C   UNL     1     -10.493   6.318  71.360  1.00  0.00    -0.219 A  
ENDBRANCH  14  15
BRANCH  14  22
HETATM   22  C   UNL     1      -8.569   9.146  67.429  1.00  0.00    -0.115 A  
HETATM   23  C   UNL     1      -7.502   9.654  65.432  1.00  0.00    -0.111 A  
HETATM   24  C   UNL     1      -9.244   8.035  65.401  1.00  0.00     0.197 A  
HETATM   25  C   UNL     1      -9.393   8.227  66.771  1.00  0.00    -0.232 A  
HETATM   26  N   UNL     1      -7.619   9.859  66.763  1.00  0.00    -0.095 NA 
HETATM   27  C   UNL     1      -8.281   8.763  64.715  1.00  0.00    -0.163 A  
ENDBRANCH  14  22
ENDBRANCH  13  14
ENDBRANCH  10  13
ENDBRANCH   6   7
ENDBRANCH   5   6
ENDBRANCH   4   5
TORSDOF 7
ENDMDL
MODEL      163
REMARK 921   NORMALIZED FREE ENERGY PREDICTED BY IDOCK:   -3.57 KCAL/MOL
REMARK 922        TOTAL FREE ENERGY PREDICTED BY IDOCK:   -6.49 KCAL/MOL
REMARK 923 INTER-LIGAND FREE ENERGY PREDICTED BY IDOCK:   -5.78 KCAL/MOL
REMARK 924 INTRA-LIGAND FREE ENERGY PREDICTED BY IDOCK:   -0.71 KCAL/MOL
REMARK 927      BINDING AFFINITY PREDICTED BY RF-SCORE:    0.00 PKD
ROOT
HETATM    1  O   UNL     1     -13.242  11.904  62.978  1.00  0.00    -0.473 OA 
HETATM    2  C   UNL     1     -12.288  12.358  63.825  1.00  0.00    -0.528 C  
HETATM    3  O   UNL     1     -11.104  12.113  63.670  1.00  0.00    -0.386 OA 
HETATM    4  C   UNL     1     -12.874  13.186  64.941  1.00  0.00    -0.349 C  
ENDROOT
BRANCH   4   5
HETATM    5  C   UNL     1     -11.807  13.723  65.897  1.00  0.00    -0.405 C  
BRANCH   5   6
HETATM    6  C   UNL     1     -11.936  13.027  67.256  1.00  0.00    -0.321 C  
BRANCH   6   7
HETATM    7  N   UNL     1     -10.669  12.740  67.939  1.00  0.00    -0.215 NA 
HETATM    8  C   UNL     1     -10.788  11.942  69.168  1.00  0.00    -0.147 C  
HETATM    9  C   UNL     1     -11.176  10.483  68.920  1.00  0.00    -0.323 C  
HETATM   10  C   UNL     1     -10.208   9.802  67.947  1.00  0.00    -0.194 C  
HETATM   11  C   UNL     1     -10.085  10.646  66.674  1.00  0.00    -0.270 C  
HETATM   12  C   UNL     1      -9.711  12.092  67.020  1.00  0.00    -0.202 C  
BRANCH  10  13
HETATM   13  O   UNL     1      -8.872   9.660  68.449  1.00  0.00    -0.123 OA 
BRANCH  13  14
HETATM   14  C   UNL     1      -8.369   8.323  68.620  1.00  0.00    -0.125 C  
BRANCH  14  15
HETATM   15  C   UNL     1      -8.391   7.919  70.089  1.00  0.00    -0.127 A  
HETATM   16  C   UNL     1      -7.310   7.200  70.628  1.00  0.00    -0.075 A  
HETATM   17  C   UNL     1      -7.222   6.974  72.003  1.00  0.00    -0.081 A  
HETATM   18  C   UNL     1      -9.415   8.348  70.950  1.00  0.00    -0.205 A  
HETATM   19  C   UNL     1      -9.328   8.118  72.325  1.00  0.00    -0.290 A  
HETATM   20 CL   UNL     1      -8.069   7.251  74.549  1.00  0.00    -0.189 Cl 
HETATM   21  C   UNL     1      -8.222   7.451  72.847  1.00  0.00    -0.112 A  
ENDBRANCH  14  15
BRANCH  14  22
HETATM   22  C   UNL     1      -9.150   7.376  67.710  1.00  0.00    -0.129 A  
HETATM   23  C   UNL     1     -11.006   6.019  67.403  1.00  0.00    -0.246 A  
HETATM   24  C   UNL     1      -9.386   6.126  65.665  1.00  0.00     0.121 A  
HETATM   25  C   UNL     1      -8.659   7.014  66.452  1.00  0.00    -0.136 A  
HETATM   26  N   UNL     1     -10.326   6.883  68.188  1.00  0.00    -0.179 NA 
HETATM   27  C   UNL     1     -10.583   5.615  66.148  1.00  0.00    -0.072 A  
ENDBRANCH  14  22
ENDBRANCH  13  14
ENDBRANCH  10  13
ENDBRANCH   6   7
ENDBRANCH   5   6
ENDBRANCH   4   5
TORSDOF 7
ENDMDL
MODEL      164
REMARK 921   NORMALIZED FREE ENERGY PREDICTED BY IDOCK:   -3.55 KCAL/MOL
REMARK 922        TOTAL FREE ENERGY PREDICTED BY IDOCK:   -6.47 KCAL/MOL
REMARK 923 INTER-LIGAND FREE ENERGY PREDICTED BY IDOCK:   -5.33 KCAL/MOL
REMARK 924 INTRA-LIGAND FREE ENERGY PREDICTED BY IDOCK:   -1.14 KCAL/MOL
REMARK 927      BINDING AFFINITY PREDICTED BY RF-SCORE:    0.00 PKD
ROOT
HETATM    1  O   UNL     1      -9.647  11.239  62.554  1.00  0.00    -0.263 OA 
HETATM    2  C   UNL     1     -10.348  11.822  63.555  1.00  0.00    -0.448 C  
HETATM    3  O   UNL     1     -11.261  12.604  63.346  1.00  0.00    -0.467 OA 
HETATM    4  C   UNL     1      -9.867  11.378  64.913  1.00  0.00    -0.301 C  
ENDROOT
BRANCH   4   5
HETATM    5  C   UNL     1     -10.663  12.012  66.056  1.00  0.00    -0.317 C  
BRANCH   5   6
HETATM    6  C   UNL     1     -10.974  10.952  67.117  1.00  0.00    -0.272 C  
BRANCH   6   7
HETATM    7  N   UNL     1      -9.808  10.408  67.824  1.00  0.00    -0.166 NA 
HETATM    8  C   UNL     1      -9.750  10.714  69.261  1.00  0.00    -0.160 C  
HETATM    9  C   UNL     1     -10.803   9.978  70.091  1.00  0.00    -0.365 C  
HETATM   10  C   UNL     1     -10.730   8.463  69.876  1.00  0.00    -0.227 C  
HETATM   11  C   UNL     1     -10.784   8.156  68.376  1.00  0.00    -0.066 C  
HETATM   12  C   UNL     1      -9.707   8.948  67.624  1.00  0.00    -0.161 C  
BRANCH  10  13
HETATM   13  O   UNL     1      -9.520   7.858  70.352  1.00  0.00    -0.162 OA 
BRANCH  13  14
HETATM   14  C   UNL     1      -9.595   6.492  70.796  1.00  0.00    -0.179 C  
BRANCH  14  15
HETATM   15  C   UNL     1      -9.088   5.542  69.719  1.00  0.00    -0.157 A  
HETATM   16  C   UNL     1      -9.777   4.343  69.470  1.00  0.00    -0.280 A  
HETATM   17  C   UNL     1      -9.441   3.545  68.375  1.00  0.00    -0.209 A  
HETATM   18  C   UNL     1      -8.012   5.889  68.885  1.00  0.00    -0.102 A  
HETATM   19  C   UNL     1      -7.674   5.089  67.792  1.00  0.00    -0.087 A  
HETATM   20 CL   UNL     1      -8.049   2.996  66.130  1.00  0.00    -0.085 Cl 
HETATM   21  C   UNL     1      -8.404   3.932  67.530  1.00  0.00    -0.094 A  
ENDBRANCH  14  15
BRANCH  14  22
HETATM   22  C   UNL     1      -8.858   6.360  72.129  1.00  0.00    -0.136 A  
HETATM   23  C   UNL     1      -7.960   4.973  73.757  1.00  0.00    -0.102 A  
HETATM   24  C   UNL     1      -7.863   7.325  74.099  1.00  0.00    -0.149 A  
HETATM   25  C   UNL     1      -8.508   7.489  72.877  1.00  0.00    -0.163 A  
HETATM   26  N   UNL     1      -8.582   5.100  72.565  1.00  0.00    -0.120 NA 
HETATM   27  C   UNL     1      -7.584   6.042  74.552  1.00  0.00    -0.093 A  
ENDBRANCH  14  22
ENDBRANCH  13  14
ENDBRANCH  10  13
ENDBRANCH   6   7
ENDBRANCH   5   6
ENDBRANCH   4   5
TORSDOF 7
ENDMDL
MODEL      165
REMARK 921   NORMALIZED FREE ENERGY PREDICTED BY IDOCK:   -3.51 KCAL/MOL
REMARK 922        TOTAL FREE ENERGY PREDICTED BY IDOCK:   -6.41 KCAL/MOL
REMARK 923 INTER-LIGAND FREE ENERGY PREDICTED BY IDOCK:   -5.23 KCAL/MOL
REMARK 924 INTRA-LIGAND FREE ENERGY PREDICTED BY IDOCK:   -1.18 KCAL/MOL
REMARK 927      BINDING AFFINITY PREDICTED BY RF-SCORE:    0.00 PKD
ROOT
HETATM    1  O   UNL     1     -12.978  13.519  65.274  1.00  0.00    -0.701 OA 
HETATM    2  C   UNL     1     -11.989  12.878  65.941  1.00  0.00    -0.448 C  
HETATM    3  O   UNL     1     -11.085  12.294  65.367  1.00  0.00    -0.293 OA 
HETATM    4  C   UNL     1     -12.151  12.990  67.435  1.00  0.00    -0.290 C  
ENDROOT
BRANCH   4   5
HETATM    5  C   UNL     1     -11.030  12.288  68.203  1.00  0.00    -0.269 C  
BRANCH   5   6
HETATM    6  C   UNL     1     -11.626  11.194  69.097  1.00  0.00    -0.324 C  
BRANCH   6   7
HETATM    7  N   UNL     1     -10.708  10.623  70.089  1.00  0.00    -0.181 NA 
HETATM    8  C   UNL     1     -11.351   9.862  71.171  1.00  0.00    -0.370 C  
HETATM    9  C   UNL     1     -11.950   8.530  70.715  1.00  0.00    -0.129 C  
HETATM   10  C   UNL     1     -10.907   7.657  70.010  1.00  0.00    -0.243 C  
HETATM   11  C   UNL     1     -10.238   8.462  68.891  1.00  0.00    -0.223 C  
HETATM   12  C   UNL     1      -9.683   9.784  69.435  1.00  0.00    -0.202 C  
BRANCH  10  13
HETATM   13  O   UNL     1      -9.840   7.212  70.859  1.00  0.00    -0.181 OA 
BRANCH  13  14
HETATM   14  C   UNL     1      -9.524   5.809  70.844  1.00  0.00    -0.165 C  
BRANCH  14  15
HETATM   15  C   UNL     1      -8.731   5.445  69.596  1.00  0.00    -0.109 A  
HETATM   16  C   UNL     1      -7.394   5.864  69.475  1.00  0.00    -0.075 A  
HETATM   17  C   UNL     1      -6.594   5.395  68.431  1.00  0.00    -0.049 A  
HETATM   18  C   UNL     1      -9.266   4.600  68.609  1.00  0.00    -0.173 A  
HETATM   19  C   UNL     1      -8.466   4.135  67.563  1.00  0.00    -0.102 A  
HETATM   20 CL   UNL     1      -6.120   3.870  66.257  1.00  0.00    -0.030 Cl 
HETATM   21  C   UNL     1      -7.129   4.518  67.491  1.00  0.00    -0.065 A  
ENDBRANCH  14  15
BRANCH  14  22
HETATM   22  C   UNL     1      -8.819   5.442  72.149  1.00  0.00    -0.130 A  
HETATM   23  C   UNL     1      -8.314   3.821  73.730  1.00  0.00    -0.087 A  
HETATM   24  C   UNL     1      -7.534   6.038  74.097  1.00  0.00    -0.087 A  
HETATM   25  C   UNL     1      -8.138   6.406  72.899  1.00  0.00    -0.106 A  
HETATM   26  N   UNL     1      -8.906   4.147  72.560  1.00  0.00    -0.106 NA 
HETATM   27  C   UNL     1      -7.623   4.720  74.525  1.00  0.00    -0.089 A  
ENDBRANCH  14  22
ENDBRANCH  13  14
ENDBRANCH  10  13
ENDBRANCH   6   7
ENDBRANCH   5   6
ENDBRANCH   4   5
TORSDOF 7
ENDMDL
MODEL      166
REMARK 921   NORMALIZED FREE ENERGY PREDICTED BY IDOCK:   -3.50 KCAL/MOL
REMARK 922        TOTAL FREE ENERGY PREDICTED BY IDOCK:   -6.39 KCAL/MOL
REMARK 923 INTER-LIGAND FREE ENERGY PREDICTED BY IDOCK:   -5.20 KCAL/MOL
REMARK 924 INTRA-LIGAND FREE ENERGY PREDICTED BY IDOCK:   -1.19 KCAL/MOL
REMARK 927      BINDING AFFINITY PREDICTED BY RF-SCORE:    0.00 PKD
ROOT
HETATM    1  O   UNL     1     -13.378  12.240  72.209  1.00  0.00    -0.515 OA 
HETATM    2  C   UNL     1     -12.682  12.247  71.047  1.00  0.00    -0.225 C  
HETATM    3  O   UNL     1     -12.260  13.275  70.544  1.00  0.00    -0.354 OA 
HETATM    4  C   UNL     1     -12.502  10.858  70.489  1.00  0.00    -0.438 C  
ENDROOT
BRANCH   4   5
HETATM    5  C   UNL     1     -11.700  10.848  69.187  1.00  0.00    -0.397 C  
BRANCH   5   6
HETATM    6  C   UNL     1     -10.203  10.756  69.505  1.00  0.00    -0.113 C  
BRANCH   6   7
HETATM    7  N   UNL     1      -9.519   9.570  68.975  1.00  0.00    -0.154 NA 
HETATM    8  C   UNL     1      -8.169   9.337  69.509  1.00  0.00    -0.121 C  
HETATM    9  C   UNL     1      -8.153   8.896  70.974  1.00  0.00    -0.205 C  
HETATM   10  C   UNL     1      -9.024   7.655  71.196  1.00  0.00    -0.138 C  
HETATM   11  C   UNL     1     -10.425   7.906  70.629  1.00  0.00    -0.216 C  
HETATM   12  C   UNL     1     -10.343   8.359  69.167  1.00  0.00    -0.220 C  
BRANCH  10  13
HETATM   13  O   UNL     1      -8.545   6.474  70.539  1.00  0.00    -0.139 OA 
BRANCH  13  14
HETATM   14  C   UNL     1      -9.414   5.328  70.523  1.00  0.00    -0.167 C  
BRANCH  14  15
HETATM   15  C   UNL     1      -9.132   4.449  69.312  1.00  0.00    -0.174 A  
HETATM   16  C   UNL     1      -9.530   3.101  69.324  1.00  0.00    -0.179 A  
HETATM   17  C   UNL     1      -9.446   2.324  68.167  1.00  0.00    -0.218 A  
HETATM   18  C   UNL     1      -8.585   4.981  68.133  1.00  0.00    -0.102 A  
HETATM   19  C   UNL     1      -8.497   4.204  66.976  1.00  0.00    -0.100 A  
HETATM   20 CL   UNL     1      -8.927   1.957  65.545  1.00  0.00    -0.124 Cl 
HETATM   21  C   UNL     1      -8.947   2.886  66.993  1.00  0.00    -0.157 A  
ENDBRANCH  14  15
BRANCH  14  22
HETATM   22  C   UNL     1      -9.294   4.593  71.858  1.00  0.00    -0.140 A  
HETATM   23  C   UNL     1     -10.350   3.711  73.726  1.00  0.00    -0.161 A  
HETATM   24  C   UNL     1      -7.978   3.588  73.606  1.00  0.00    -0.074 A  
HETATM   25  C   UNL     1      -8.046   4.231  72.374  1.00  0.00    -0.096 A  
HETATM   26  N   UNL     1     -10.449   4.331  72.530  1.00  0.00    -0.178 NA 
HETATM   27  C   UNL     1      -9.151   3.323  74.300  1.00  0.00    -0.098 A  
ENDBRANCH  14  22
ENDBRANCH  13  14
ENDBRANCH  10  13
ENDBRANCH   6   7
ENDBRANCH   5   6
ENDBRANCH   4   5
TORSDOF 7
ENDMDL
MODEL      167
REMARK 921   NORMALIZED FREE ENERGY PREDICTED BY IDOCK:   -3.45 KCAL/MOL
REMARK 922        TOTAL FREE ENERGY PREDICTED BY IDOCK:   -6.32 KCAL/MOL
REMARK 923 INTER-LIGAND FREE ENERGY PREDICTED BY IDOCK:   -5.34 KCAL/MOL
REMARK 924 INTRA-LIGAND FREE ENERGY PREDICTED BY IDOCK:   -0.98 KCAL/MOL
REMARK 927      BINDING AFFINITY PREDICTED BY RF-SCORE:    0.00 PKD
ROOT
HETATM    1  O   UNL     1     -11.912  11.931  66.726  1.00  0.00    -0.613 OA 
HETATM    2  C   UNL     1     -11.419  11.384  67.862  1.00  0.00    -0.291 C  
HETATM    3  O   UNL     1     -10.576  10.503  67.852  1.00  0.00    -0.197 OA 
HETATM    4  C   UNL     1     -12.031  11.998  69.096  1.00  0.00    -0.326 C  
ENDROOT
BRANCH   4   5
HETATM    5  C   UNL     1     -11.470  11.404  70.389  1.00  0.00    -0.137 C  
BRANCH   5   6
HETATM    6  C   UNL     1     -12.211  10.105  70.722  1.00  0.00    -0.338 C  
BRANCH   6   7
HETATM    7  N   UNL     1     -11.621   9.301  71.799  1.00  0.00    -0.385 NA 
HETATM    8  C   UNL     1     -12.271   8.004  72.039  1.00  0.00    -0.331 C  
HETATM    9  C   UNL     1     -12.037   6.983  70.925  1.00  0.00    -0.403 C  
HETATM   10  C   UNL     1     -10.543   6.777  70.656  1.00  0.00    -0.224 C  
HETATM   11  C   UNL     1      -9.875   8.134  70.415  1.00  0.00    -0.188 C  
HETATM   12  C   UNL     1     -10.177   9.096  71.570  1.00  0.00    -0.333 C  
BRANCH  10  13
HETATM   13  O   UNL     1      -9.826   6.179  71.744  1.00  0.00    -0.165 OA 
BRANCH  13  14
HETATM   14  C   UNL     1      -9.432   4.803  71.600  1.00  0.00    -0.151 C  
BRANCH  14  15
HETATM   15  C   UNL     1      -9.054   4.495  70.156  1.00  0.00    -0.160 A  
HETATM   16  C   UNL     1      -9.726   3.471  69.466  1.00  0.00    -0.073 A  
HETATM   17  C   UNL     1      -9.525   3.288  68.097  1.00  0.00    -0.215 A  
HETATM   18  C   UNL     1      -8.128   5.287  69.458  1.00  0.00    -0.094 A  
HETATM   19  C   UNL     1      -7.925   5.101  68.088  1.00  0.00    -0.087 A  
HETATM   20 CL   UNL     1      -8.461   3.950  65.707  1.00  0.00    -0.109 Cl 
HETATM   21  C   UNL     1      -8.640   4.117  67.411  1.00  0.00    -0.100 A  
ENDBRANCH  14  15
BRANCH  14  22
HETATM   22  C   UNL     1      -8.324   4.493  72.605  1.00  0.00    -0.110 A  
HETATM   23  C   UNL     1      -6.995   5.219  74.363  1.00  0.00    -0.078 A  
HETATM   24  C   UNL     1      -6.637   3.029  73.507  1.00  0.00    -0.029 A  
HETATM   25  C   UNL     1      -7.660   3.262  72.593  1.00  0.00    -0.051 A  
HETATM   26  N   UNL     1      -7.997   5.473  73.492  1.00  0.00    -0.112 NA 
HETATM   27  C   UNL     1      -6.294   4.026  74.410  1.00  0.00    -0.042 A  
ENDBRANCH  14  22
ENDBRANCH  13  14
ENDBRANCH  10  13
ENDBRANCH   6   7
ENDBRANCH   5   6
ENDBRANCH   4   5
TORSDOF 7
ENDMDL
MODEL      168
REMARK 921   NORMALIZED FREE ENERGY PREDICTED BY IDOCK:   -3.45 KCAL/MOL
REMARK 922        TOTAL FREE ENERGY PREDICTED BY IDOCK:   -6.32 KCAL/MOL
REMARK 923 INTER-LIGAND FREE ENERGY PREDICTED BY IDOCK:   -4.98 KCAL/MOL
REMARK 924 INTRA-LIGAND FREE ENERGY PREDICTED BY IDOCK:   -1.34 KCAL/MOL
REMARK 927      BINDING AFFINITY PREDICTED BY RF-SCORE:    0.00 PKD
ROOT
HETATM    1  O   UNL     1     -10.408   6.631  74.210  1.00  0.00    -0.361 OA 
HETATM    2  C   UNL     1      -9.719   6.130  73.157  1.00  0.00    -0.158 C  
HETATM    3  O   UNL     1      -8.539   6.374  72.971  1.00  0.00    -0.121 OA 
HETATM    4  C   UNL     1     -10.582   5.253  72.285  1.00  0.00    -0.280 C  
ENDROOT
BRANCH   4   5
HETATM    5  C   UNL     1      -9.814   4.663  71.101  1.00  0.00    -0.261 C  
BRANCH   5   6
HETATM    6  C   UNL     1     -10.390   5.210  69.790  1.00  0.00    -0.262 C  
BRANCH   6   7
HETATM    7  N   UNL     1      -9.453   5.981  68.964  1.00  0.00    -0.126 NA 
HETATM    8  C   UNL     1      -9.918   6.272  67.599  1.00  0.00    -0.131 C  
HETATM    9  C   UNL     1     -11.062   7.285  67.541  1.00  0.00    -0.110 C  
HETATM   10  C   UNL     1     -10.695   8.588  68.257  1.00  0.00    -0.036 C  
HETATM   11  C   UNL     1     -10.206   8.273  69.674  1.00  0.00    -0.209 C  
HETATM   12  C   UNL     1      -9.074   7.240  69.636  1.00  0.00    -0.140 C  
BRANCH  10  13
HETATM   13  O   UNL     1      -9.633   9.324  67.634  1.00  0.00    -0.138 OA 
BRANCH  13  14
HETATM   14  C   UNL     1      -9.991  10.248  66.592  1.00  0.00    -0.216 C  
BRANCH  14  15
HETATM   15  C   UNL     1      -9.963  11.682  67.105  1.00  0.00    -0.219 A  
HETATM   16  C   UNL     1     -10.939  12.595  66.668  1.00  0.00    -0.292 A  
HETATM   17  C   UNL     1     -11.044  13.858  67.255  1.00  0.00    -0.312 A  
HETATM   18  C   UNL     1      -9.053  12.087  68.095  1.00  0.00    -0.191 A  
HETATM   19  C   UNL     1      -9.156  13.352  68.679  1.00  0.00     0.012 A  
HETATM   20 CL   UNL     1     -10.349  15.743  69.056  1.00  0.00    -0.211 Cl 
HETATM   21  C   UNL     1     -10.164  14.222  68.271  1.00  0.00    -0.244 A  
ENDBRANCH  14  15
BRANCH  14  22
HETATM   22  C   UNL     1      -9.089  10.010  65.382  1.00  0.00    -0.193 A  
HETATM   23  C   UNL     1      -6.939   9.792  64.537  1.00  0.00    -0.125 A  
HETATM   24  C   UNL     1      -8.766   9.680  63.018  1.00  0.00    -0.229 A  
HETATM   25  C   UNL     1      -9.624   9.867  64.098  1.00  0.00    -0.177 A  
HETATM   26  N   UNL     1      -7.746   9.969  65.606  1.00  0.00    -0.129 NA 
HETATM   27  C   UNL     1      -7.396   9.643  63.238  1.00  0.00    -0.117 A  
ENDBRANCH  14  22
ENDBRANCH  13  14
ENDBRANCH  10  13
ENDBRANCH   6   7
ENDBRANCH   5   6
ENDBRANCH   4   5
TORSDOF 7
ENDMDL
MODEL      169
REMARK 921   NORMALIZED FREE ENERGY PREDICTED BY IDOCK:   -3.44 KCAL/MOL
REMARK 922        TOTAL FREE ENERGY PREDICTED BY IDOCK:   -6.31 KCAL/MOL
REMARK 923 INTER-LIGAND FREE ENERGY PREDICTED BY IDOCK:   -5.56 KCAL/MOL
REMARK 924 INTRA-LIGAND FREE ENERGY PREDICTED BY IDOCK:   -0.74 KCAL/MOL
REMARK 927      BINDING AFFINITY PREDICTED BY RF-SCORE:    0.00 PKD
ROOT
HETATM    1  O   UNL     1      -9.107   8.099  73.176  1.00  0.00    -0.248 OA 
HETATM    2  C   UNL     1      -8.149   7.957  72.230  1.00  0.00    -0.127 C  
HETATM    3  O   UNL     1      -7.198   7.207  72.369  1.00  0.00    -0.068 OA 
HETATM    4  C   UNL     1      -8.419   8.818  71.021  1.00  0.00    -0.219 C  
ENDROOT
BRANCH   4   5
HETATM    5  C   UNL     1      -7.355   8.654  69.934  1.00  0.00    -0.052 C  
BRANCH   5   6
HETATM    6  C   UNL     1      -6.616   9.981  69.734  1.00  0.00    -0.074 C  
BRANCH   6   7
HETATM    7  N   UNL     1      -6.741  10.577  68.398  1.00  0.00    -0.059 NA 
HETATM    8  C   UNL     1      -8.100  10.567  67.835  1.00  0.00    -0.107 C  
HETATM    9  C   UNL     1      -9.064  11.526  68.535  1.00  0.00    -0.157 C  
HETATM   10  C   UNL     1      -8.517  12.957  68.555  1.00  0.00    -0.045 C  
HETATM   11  C   UNL     1      -7.099  12.955  69.135  1.00  0.00     0.033 C  
HETATM   12  C   UNL     1      -6.211  11.955  68.386  1.00  0.00    -0.050 C  
BRANCH  10  13
HETATM   13  O   UNL     1      -8.404  13.563  67.259  1.00  0.00    -0.186 OA 
BRANCH  13  14
HETATM   14  C   UNL     1      -9.465  14.442  66.846  1.00  0.00    -0.258 C  
BRANCH  14  15
HETATM   15  C   UNL     1     -10.278  13.820  65.719  1.00  0.00    -0.322 A  
HETATM   16  C   UNL     1     -10.108  12.459  65.409  1.00  0.00    -0.289 A  
HETATM   17  C   UNL     1     -10.963  11.824  64.507  1.00  0.00    -0.382 A  
HETATM   18  C   UNL     1     -11.282  14.544  65.055  1.00  0.00    -0.384 A  
HETATM   19  C   UNL     1     -12.135  13.909  64.150  1.00  0.00    -0.464 A  
HETATM   20 CL   UNL     1     -13.094  11.745  62.854  1.00  0.00     0.187 Cl 
HETATM   21  C   UNL     1     -11.985  12.548  63.896  1.00  0.00    -0.480 A  
ENDBRANCH  14  15
BRANCH  14  22
HETATM   22  C   UNL     1     -10.299  14.826  68.068  1.00  0.00    -0.237 A  
HETATM   23  C   UNL     1     -10.608  16.239  69.881  1.00  0.00    -0.280 A  
HETATM   24  C   UNL     1     -12.131  14.437  69.583  1.00  0.00    -0.381 A  
HETATM   25  C   UNL     1     -11.414  14.071  68.447  1.00  0.00    -0.340 A  
HETATM   26  N   UNL     1      -9.895  15.913  68.781  1.00  0.00    -0.207 NA 
HETATM   27  C   UNL     1     -11.721  15.541  70.318  1.00  0.00    -0.367 A  
ENDBRANCH  14  22
ENDBRANCH  13  14
ENDBRANCH  10  13
ENDBRANCH   6   7
ENDBRANCH   5   6
ENDBRANCH   4   5
TORSDOF 7
ENDMDL
MODEL      170
REMARK 921   NORMALIZED FREE ENERGY PREDICTED BY IDOCK:   -3.44 KCAL/MOL
REMARK 922        TOTAL FREE ENERGY PREDICTED BY IDOCK:   -6.30 KCAL/MOL
REMARK 923 INTER-LIGAND FREE ENERGY PREDICTED BY IDOCK:   -5.07 KCAL/MOL
REMARK 924 INTRA-LIGAND FREE ENERGY PREDICTED BY IDOCK:   -1.23 KCAL/MOL
REMARK 927      BINDING AFFINITY PREDICTED BY RF-SCORE:    0.00 PKD
ROOT
HETATM    1  O   UNL     1      -9.132  17.660  68.284  1.00  0.00    -0.261 OA 
HETATM    2  C   UNL     1     -10.118  16.954  67.682  1.00  0.00    -0.278 C  
HETATM    3  O   UNL     1     -10.761  17.396  66.745  1.00  0.00    -0.236 OA 
HETATM    4  C   UNL     1     -10.296  15.592  68.304  1.00  0.00    -0.235 C  
ENDROOT
BRANCH   4   5
HETATM    5  C   UNL     1     -11.394  14.773  67.621  1.00  0.00    -0.352 C  
BRANCH   5   6
HETATM    6  C   UNL     1     -10.763  13.800  66.620  1.00  0.00    -0.277 C  
BRANCH   6   7
HETATM    7  N   UNL     1      -9.674  12.971  67.149  1.00  0.00    -0.224 NA 
HETATM    8  C   UNL     1      -9.975  12.274  68.409  1.00  0.00    -0.209 C  
HETATM    9  C   UNL     1     -10.988  11.138  68.258  1.00  0.00    -0.278 C  
HETATM   10  C   UNL     1     -10.546  10.128  67.195  1.00  0.00    -0.246 C  
HETATM   11  C   UNL     1     -10.228  10.865  65.890  1.00  0.00    -0.314 C  
HETATM   12  C   UNL     1      -9.220  11.993  66.140  1.00  0.00    -0.179 C  
BRANCH  10  13
HETATM   13  O   UNL     1      -9.355   9.402  67.531  1.00  0.00    -0.126 OA 
BRANCH  13  14
HETATM   14  C   UNL     1      -9.201   8.981  68.897  1.00  0.00    -0.140 C  
BRANCH  14  15
HETATM   15  C   UNL     1      -9.467   7.488  69.039  1.00  0.00    -0.145 A  
HETATM   16  C   UNL     1      -8.622   6.568  68.394  1.00  0.00    -0.119 A  
HETATM   17  C   UNL     1      -8.734   5.200  68.650  1.00  0.00    -0.098 A  
HETATM   18  C   UNL     1     -10.470   7.001  69.894  1.00  0.00    -0.234 A  
HETATM   19  C   UNL     1     -10.584   5.632  70.147  1.00  0.00    -0.380 A  
HETATM   20 CL   UNL     1      -9.781   3.065  69.925  1.00  0.00    -0.111 Cl 
HETATM   21  C   UNL     1      -9.702   4.741  69.540  1.00  0.00    -0.201 A  
ENDBRANCH  14  15
BRANCH  14  22
HETATM   22  C   UNL     1      -7.823   9.411  69.400  1.00  0.00    -0.087 A  
HETATM   23  C   UNL     1      -6.373   9.683  71.190  1.00  0.00    -0.025 A  
HETATM   24  C   UNL     1      -5.637  10.349  69.029  1.00  0.00    -0.041 A  
HETATM   25  C   UNL     1      -6.870   9.944  68.527  1.00  0.00    -0.059 A  
HETATM   26  N   UNL     1      -7.577   9.275  70.732  1.00  0.00    -0.158 NA 
HETATM   27  C   UNL     1      -5.381  10.220  70.387  1.00  0.00    -0.053 A  
ENDBRANCH  14  22
ENDBRANCH  13  14
ENDBRANCH  10  13
ENDBRANCH   6   7
ENDBRANCH   5   6
ENDBRANCH   4   5
TORSDOF 7
ENDMDL
MODEL      171
REMARK 921   NORMALIZED FREE ENERGY PREDICTED BY IDOCK:   -3.36 KCAL/MOL
REMARK 922        TOTAL FREE ENERGY PREDICTED BY IDOCK:   -6.19 KCAL/MOL
REMARK 923 INTER-LIGAND FREE ENERGY PREDICTED BY IDOCK:   -5.13 KCAL/MOL
REMARK 924 INTRA-LIGAND FREE ENERGY PREDICTED BY IDOCK:   -1.06 KCAL/MOL
REMARK 927      BINDING AFFINITY PREDICTED BY RF-SCORE:    0.00 PKD
ROOT
HETATM    1  O   UNL     1      -7.095   4.541  72.319  1.00  0.00    -0.057 OA 
HETATM    2  C   UNL     1      -7.816   5.400  73.077  1.00  0.00    -0.098 C  
HETATM    3  O   UNL     1      -7.370   5.913  74.089  1.00  0.00    -0.088 OA 
HETATM    4  C   UNL     1      -9.193   5.634  72.509  1.00  0.00    -0.148 C  
ENDROOT
BRANCH   4   5
HETATM    5  C   UNL     1     -10.014   6.619  73.343  1.00  0.00    -0.231 C  
BRANCH   5   6
HETATM    6  C   UNL     1     -10.841   7.515  72.415  1.00  0.00    -0.276 C  
BRANCH   6   7
HETATM    7  N   UNL     1     -10.253   8.826  72.117  1.00  0.00    -0.326 NA 
HETATM    8  C   UNL     1      -9.058   8.795  71.261  1.00  0.00    -0.234 C  
HETATM    9  C   UNL     1      -9.350   8.412  69.809  1.00  0.00    -0.158 C  
HETATM   10  C   UNL     1     -10.412   9.325  69.190  1.00  0.00    -0.217 C  
HETATM   11  C   UNL     1     -11.649   9.356  70.093  1.00  0.00    -0.117 C  
HETATM   12  C   UNL     1     -11.261   9.732  71.528  1.00  0.00    -0.220 C  
BRANCH  10  13
HETATM   13  O   UNL     1     -10.003  10.692  69.045  1.00  0.00    -0.198 OA 
BRANCH  13  14
HETATM   14  C   UNL     1     -10.143  11.290  67.745  1.00  0.00    -0.179 C  
BRANCH  14  15
HETATM   15  C   UNL     1     -10.492  12.768  67.862  1.00  0.00    -0.226 A  
HETATM   16  C   UNL     1      -9.812  13.571  68.795  1.00  0.00    -0.050 A  
HETATM   17  C   UNL     1      -9.985  14.956  68.800  1.00  0.00    -0.228 A  
HETATM   18  C   UNL     1     -11.398  13.379  66.979  1.00  0.00    -0.346 A  
HETATM   19  C   UNL     1     -11.573  14.764  66.986  1.00  0.00    -0.352 A  
HETATM   20 CL   UNL     1     -10.993  17.262  67.827  1.00  0.00    -0.258 Cl 
HETATM   21  C   UNL     1     -10.849  15.548  67.881  1.00  0.00    -0.307 A  
ENDBRANCH  14  15
BRANCH  14  22
HETATM   22  C   UNL     1      -8.878  11.020  66.932  1.00  0.00    -0.149 A  
HETATM   23  C   UNL     1      -7.911  10.092  65.038  1.00  0.00    -0.140 A  
HETATM   24  C   UNL     1      -6.489  11.117  66.645  1.00  0.00    -0.134 A  
HETATM   25  C   UNL     1      -7.620  11.408  67.402  1.00  0.00    -0.124 A  
HETATM   26  N   UNL     1      -9.028  10.365  65.747  1.00  0.00    -0.162 NA 
HETATM   27  C   UNL     1      -6.634  10.444  65.440  1.00  0.00    -0.109 A  
ENDBRANCH  14  22
ENDBRANCH  13  14
ENDBRANCH  10  13
ENDBRANCH   6   7
ENDBRANCH   5   6
ENDBRANCH   4   5
TORSDOF 7
ENDMDL
MODEL      172
REMARK 921   NORMALIZED FREE ENERGY PREDICTED BY IDOCK:   -3.35 KCAL/MOL
REMARK 922        TOTAL FREE ENERGY PREDICTED BY IDOCK:   -6.18 KCAL/MOL
REMARK 923 INTER-LIGAND FREE ENERGY PREDICTED BY IDOCK:   -5.28 KCAL/MOL
REMARK 924 INTRA-LIGAND FREE ENERGY PREDICTED BY IDOCK:   -0.90 KCAL/MOL
REMARK 927      BINDING AFFINITY PREDICTED BY RF-SCORE:    0.00 PKD
ROOT
HETATM    1  O   UNL     1     -12.380  14.865  66.844  1.00  0.00    -0.034 OA 
HETATM    2  C   UNL     1     -11.668  13.745  66.578  1.00  0.00    -0.385 C  
HETATM    3  O   UNL     1     -12.198  12.672  66.346  1.00  0.00    -0.550 OA 
HETATM    4  C   UNL     1     -10.183  14.003  66.598  1.00  0.00    -0.275 C  
ENDROOT
BRANCH   4   5
HETATM    5  C   UNL     1      -9.363  12.751  66.280  1.00  0.00    -0.156 C  
BRANCH   5   6
HETATM    6  C   UNL     1      -8.222  12.612  67.292  1.00  0.00    -0.184 C  
BRANCH   6   7
HETATM    7  N   UNL     1      -8.523  11.794  68.473  1.00  0.00    -0.150 NA 
HETATM    8  C   UNL     1      -9.828  11.116  68.447  1.00  0.00    -0.185 C  
HETATM    9  C   UNL     1      -9.909   9.975  67.431  1.00  0.00    -0.226 C  
HETATM   10  C   UNL     1      -8.792   8.950  67.647  1.00  0.00    -0.134 C  
HETATM   11  C   UNL     1      -7.438   9.668  67.681  1.00  0.00    -0.091 C  
HETATM   12  C   UNL     1      -7.455  10.802  68.712  1.00  0.00    -0.109 C  
BRANCH  10  13
HETATM   13  O   UNL     1      -8.881   8.233  68.886  1.00  0.00    -0.139 OA 
BRANCH  13  14
HETATM   14  C   UNL     1      -9.881   7.204  68.983  1.00  0.00    -0.156 C  
BRANCH  14  15
HETATM   15  C   UNL     1      -9.637   6.112  67.949  1.00  0.00    -0.118 A  
HETATM   16  C   UNL     1      -8.558   5.226  68.115  1.00  0.00    -0.099 A  
HETATM   17  C   UNL     1      -8.419   4.113  67.284  1.00  0.00    -0.100 A  
HETATM   18  C   UNL     1     -10.535   5.893  66.891  1.00  0.00    -0.349 A  
HETATM   19  C   UNL     1     -10.393   4.781  66.058  1.00  0.00    -0.328 A  
HETATM   20 CL   UNL     1      -9.229   2.466  65.306  1.00  0.00    -0.126 Cl 
HETATM   21  C   UNL     1      -9.349   3.885  66.272  1.00  0.00    -0.179 A  
ENDBRANCH  14  15
BRANCH  14  22
HETATM   22  C   UNL     1      -9.929   6.689  70.421  1.00  0.00    -0.175 A  
HETATM   23  C   UNL     1     -11.172   5.748  72.139  1.00  0.00    -0.269 A  
HETATM   24  C   UNL     1      -8.903   6.316  72.568  1.00  0.00    -0.123 A  
HETATM   25  C   UNL     1      -8.810   6.769  71.256  1.00  0.00    -0.136 A  
HETATM   26  N   UNL     1     -11.111   6.175  70.859  1.00  0.00    -0.301 NA 
HETATM   27  C   UNL     1     -10.107   5.796  73.022  1.00  0.00    -0.198 A  
ENDBRANCH  14  22
ENDBRANCH  13  14
ENDBRANCH  10  13
ENDBRANCH   6   7
ENDBRANCH   5   6
ENDBRANCH   4   5
TORSDOF 7
ENDMDL
MODEL      173
REMARK 921   NORMALIZED FREE ENERGY PREDICTED BY IDOCK:   -3.34 KCAL/MOL
REMARK 922        TOTAL FREE ENERGY PREDICTED BY IDOCK:   -6.17 KCAL/MOL
REMARK 923 INTER-LIGAND FREE ENERGY PREDICTED BY IDOCK:   -5.62 KCAL/MOL
REMARK 924 INTRA-LIGAND FREE ENERGY PREDICTED BY IDOCK:   -0.55 KCAL/MOL
REMARK 927      BINDING AFFINITY PREDICTED BY RF-SCORE:    0.00 PKD
ROOT
HETATM    1  O   UNL     1      -9.186  17.688  68.235  1.00  0.00    -0.267 OA 
HETATM    2  C   UNL     1     -10.194  17.116  67.535  1.00  0.00    -0.323 C  
HETATM    3  O   UNL     1     -10.723  17.664  66.582  1.00  0.00    -0.254 OA 
HETATM    4  C   UNL     1     -10.551  15.753  68.071  1.00  0.00    -0.279 C  
ENDROOT
BRANCH   4   5
HETATM    5  C   UNL     1     -11.675  15.084  67.278  1.00  0.00    -0.238 C  
BRANCH   5   6
HETATM    6  C   UNL     1     -11.082  14.039  66.327  1.00  0.00    -0.307 C  
BRANCH   6   7
HETATM    7  N   UNL     1     -10.010  13.210  66.891  1.00  0.00    -0.240 NA 
HETATM    8  C   UNL     1     -10.232  12.758  68.272  1.00  0.00    -0.244 C  
HETATM    9  C   UNL     1     -11.338  11.710  68.408  1.00  0.00    -0.339 C  
HETATM   10  C   UNL     1     -11.084  10.504  67.497  1.00  0.00    -0.290 C  
HETATM   11  C   UNL     1     -10.847  10.987  66.063  1.00  0.00    -0.189 C  
HETATM   12  C   UNL     1      -9.737  12.044  66.026  1.00  0.00    -0.239 C  
BRANCH  10  13
HETATM   13  O   UNL     1      -9.923   9.737  67.845  1.00  0.00    -0.152 OA 
BRANCH  13  14
HETATM   14  C   UNL     1      -9.615   9.602  69.243  1.00  0.00    -0.185 C  
BRANCH  14  15
HETATM   15  C   UNL     1     -10.706   8.824  69.967  1.00  0.00    -0.236 A  
HETATM   16  C   UNL     1     -10.952   7.484  69.619  1.00  0.00    -0.164 A  
HETATM   17  C   UNL     1     -11.817   6.699  70.382  1.00  0.00    -0.407 A  
HETATM   18  C   UNL     1     -11.398   9.377  71.057  1.00  0.00    -0.407 A  
HETATM   19  C   UNL     1     -12.267   8.592  71.819  1.00  0.00    -0.403 A  
HETATM   20 CL   UNL     1     -13.451   6.261  72.484  1.00  0.00     0.346 Cl 
HETATM   21  C   UNL     1     -12.456   7.252  71.491  1.00  0.00    -0.373 A  
ENDBRANCH  14  15
BRANCH  14  22
HETATM   22  C   UNL     1      -8.222   8.989  69.390  1.00  0.00    -0.117 A  
HETATM   23  C   UNL     1      -6.403   8.531  70.754  1.00  0.00    -0.039 A  
HETATM   24  C   UNL     1      -6.283   7.903  68.463  1.00  0.00    -0.044 A  
HETATM   25  C   UNL     1      -7.562   8.425  68.294  1.00  0.00    -0.098 A  
HETATM   26  N   UNL     1      -7.647   9.041  70.623  1.00  0.00    -0.104 NA 
HETATM   27  C   UNL     1      -5.688   7.958  69.717  1.00  0.00    -0.023 A  
ENDBRANCH  14  22
ENDBRANCH  13  14
ENDBRANCH  10  13
ENDBRANCH   6   7
ENDBRANCH   5   6
ENDBRANCH   4   5
TORSDOF 7
ENDMDL
MODEL      174
REMARK 921   NORMALIZED FREE ENERGY PREDICTED BY IDOCK:   -3.30 KCAL/MOL
REMARK 922        TOTAL FREE ENERGY PREDICTED BY IDOCK:   -6.12 KCAL/MOL
REMARK 923 INTER-LIGAND FREE ENERGY PREDICTED BY IDOCK:   -5.45 KCAL/MOL
REMARK 924 INTRA-LIGAND FREE ENERGY PREDICTED BY IDOCK:   -0.67 KCAL/MOL
REMARK 927      BINDING AFFINITY PREDICTED BY RF-SCORE:    0.00 PKD
ROOT
HETATM    1  O   UNL     1      -9.716   3.645  70.578  1.00  0.00    -0.186 OA 
HETATM    2  C   UNL     1     -10.008   4.953  70.387  1.00  0.00    -0.246 C  
HETATM    3  O   UNL     1      -9.940   5.485  69.291  1.00  0.00    -0.162 OA 
HETATM    4  C   UNL     1     -10.423   5.632  71.667  1.00  0.00    -0.286 C  
ENDROOT
BRANCH   4   5
HETATM    5  C   UNL     1     -10.775   7.106  71.464  1.00  0.00    -0.245 C  
BRANCH   5   6
HETATM    6  C   UNL     1      -9.507   7.959  71.574  1.00  0.00    -0.147 C  
BRANCH   6   7
HETATM    7  N   UNL     1      -9.628   9.334  71.077  1.00  0.00    -0.276 NA 
HETATM    8  C   UNL     1      -8.463   9.834  70.331  1.00  0.00    -0.058 C  
HETATM    9  C   UNL     1      -8.283   9.180  68.960  1.00  0.00    -0.115 C  
HETATM   10  C   UNL     1      -9.547   9.310  68.105  1.00  0.00    -0.143 C  
HETATM   11  C   UNL     1     -10.754   8.794  68.894  1.00  0.00    -0.114 C  
HETATM   12  C   UNL     1     -10.846   9.491  70.257  1.00  0.00    -0.269 C  
BRANCH  10  13
HETATM   13  O   UNL     1      -9.872  10.657  67.735  1.00  0.00    -0.162 OA 
BRANCH  13  14
HETATM   14  C   UNL     1      -9.814  10.991  66.337  1.00  0.00    -0.212 C  
BRANCH  14  15
HETATM   15  C   UNL     1      -9.898  12.499  66.136  1.00  0.00    -0.266 A  
HETATM   16  C   UNL     1     -10.313  13.012  64.894  1.00  0.00    -0.343 A  
HETATM   17  C   UNL     1     -10.569  14.375  64.739  1.00  0.00    -0.417 A  
HETATM   18  C   UNL     1      -9.681  13.392  67.198  1.00  0.00    -0.237 A  
HETATM   19  C   UNL     1      -9.933  14.757  67.041  1.00  0.00    -0.238 A  
HETATM   20 CL   UNL     1     -10.798  16.903  65.653  1.00  0.00    -0.174 Cl 
HETATM   21  C   UNL     1     -10.397  15.238  65.819  1.00  0.00    -0.344 A  
ENDBRANCH  14  15
BRANCH  14  22
HETATM   22  C   UNL     1      -8.567  10.357  65.724  1.00  0.00    -0.164 A  
HETATM   23  C   UNL     1      -6.255  10.341  65.527  1.00  0.00    -0.114 A  
HETATM   24  C   UNL     1      -7.508   8.776  64.247  1.00  0.00    -0.108 A  
HETATM   25  C   UNL     1      -8.667   9.307  64.805  1.00  0.00    -0.220 A  
HETATM   26  N   UNL     1      -7.362  10.874  66.090  1.00  0.00    -0.130 NA 
HETATM   27  C   UNL     1      -6.276   9.303  64.612  1.00  0.00    -0.072 A  
ENDBRANCH  14  22
ENDBRANCH  13  14
ENDBRANCH  10  13
ENDBRANCH   6   7
ENDBRANCH   5   6
ENDBRANCH   4   5
TORSDOF 7
ENDMDL
MODEL      175
REMARK 921   NORMALIZED FREE ENERGY PREDICTED BY IDOCK:   -3.28 KCAL/MOL
REMARK 922        TOTAL FREE ENERGY PREDICTED BY IDOCK:   -6.08 KCAL/MOL
REMARK 923 INTER-LIGAND FREE ENERGY PREDICTED BY IDOCK:   -4.73 KCAL/MOL
REMARK 924 INTRA-LIGAND FREE ENERGY PREDICTED BY IDOCK:   -1.36 KCAL/MOL
REMARK 927      BINDING AFFINITY PREDICTED BY RF-SCORE:    0.00 PKD
ROOT
HETATM    1  O   UNL     1     -13.340  12.044  72.102  1.00  0.00    -0.510 OA 
HETATM    2  C   UNL     1     -12.647  12.251  70.958  1.00  0.00    -0.257 C  
HETATM    3  O   UNL     1     -12.185  13.339  70.659  1.00  0.00    -0.360 OA 
HETATM    4  C   UNL     1     -12.524  10.991  70.139  1.00  0.00    -0.344 C  
ENDROOT
BRANCH   4   5
HETATM    5  C   UNL     1     -11.726  11.202  68.851  1.00  0.00    -0.406 C  
BRANCH   5   6
HETATM    6  C   UNL     1     -10.232  11.009  69.133  1.00  0.00    -0.166 C  
BRANCH   6   7
HETATM    7  N   UNL     1      -9.531  10.100  68.219  1.00  0.00    -0.139 NA 
HETATM    8  C   UNL     1      -8.141   9.791  68.589  1.00  0.00    -0.105 C  
HETATM    9  C   UNL     1      -8.016   8.906  69.830  1.00  0.00    -0.100 C  
HETATM   10  C   UNL     1      -8.816   7.609  69.678  1.00  0.00    -0.140 C  
HETATM   11  C   UNL     1     -10.259   7.941  69.286  1.00  0.00    -0.216 C  
HETATM   12  C   UNL     1     -10.287   8.843  68.046  1.00  0.00    -0.219 C  
BRANCH  10  13
HETATM   13  O   UNL     1      -8.328   6.732  68.654  1.00  0.00    -0.119 OA 
BRANCH  13  14
HETATM   14  C   UNL     1      -9.079   5.532  68.397  1.00  0.00    -0.111 C  
BRANCH  14  15
HETATM   15  C   UNL     1      -8.889   5.070  66.958  1.00  0.00    -0.106 A  
HETATM   16  C   UNL     1      -9.601   3.953  66.488  1.00  0.00    -0.211 A  
HETATM   17  C   UNL     1      -9.582   3.617  65.133  1.00  0.00    -0.167 A  
HETATM   18  C   UNL     1      -8.106   5.804  66.051  1.00  0.00    -0.110 A  
HETATM   19  C   UNL     1      -8.085   5.466  64.696  1.00  0.00    -0.125 A  
HETATM   20 CL   UNL     1      -8.888   4.029  62.558  1.00  0.00    -0.094 Cl 
HETATM   21  C   UNL     1      -8.840   4.388  64.240  1.00  0.00    -0.149 A  
ENDBRANCH  14  15
BRANCH  14  22
HETATM   22  C   UNL     1      -8.704   4.477  69.437  1.00  0.00    -0.086 A  
HETATM   23  C   UNL     1      -9.401   2.964  71.052  1.00  0.00    -0.148 A  
HETATM   24  C   UNL     1      -7.066   3.220  70.676  1.00  0.00    -0.034 A  
HETATM   25  C   UNL     1      -7.367   4.166  69.702  1.00  0.00    -0.050 A  
HETATM   26  N   UNL     1      -9.725   3.874  70.107  1.00  0.00    -0.199 NA 
HETATM   27  C   UNL     1      -8.102   2.606  71.368  1.00  0.00    -0.058 A  
ENDBRANCH  14  22
ENDBRANCH  13  14
ENDBRANCH  10  13
ENDBRANCH   6   7
ENDBRANCH   5   6
ENDBRANCH   4   5
TORSDOF 7
ENDMDL
MODEL      176
REMARK 921   NORMALIZED FREE ENERGY PREDICTED BY IDOCK:   -3.27 KCAL/MOL
REMARK 922        TOTAL FREE ENERGY PREDICTED BY IDOCK:   -6.06 KCAL/MOL
REMARK 923 INTER-LIGAND FREE ENERGY PREDICTED BY IDOCK:   -4.76 KCAL/MOL
REMARK 924 INTRA-LIGAND FREE ENERGY PREDICTED BY IDOCK:   -1.30 KCAL/MOL
REMARK 927      BINDING AFFINITY PREDICTED BY RF-SCORE:    0.00 PKD
ROOT
HETATM    1  O   UNL     1      -6.720   2.763  70.620  1.00  0.00    -0.031 OA 
HETATM    2  C   UNL     1      -6.994   4.000  71.097  1.00  0.00    -0.032 C  
HETATM    3  O   UNL     1      -6.413   4.997  70.702  1.00  0.00    -0.031 OA 
HETATM    4  C   UNL     1      -8.084   3.974  72.138  1.00  0.00    -0.085 C  
ENDROOT
BRANCH   4   5
HETATM    5  C   UNL     1      -8.420   5.367  72.672  1.00  0.00    -0.114 C  
BRANCH   5   6
HETATM    6  C   UNL     1      -9.542   5.985  71.831  1.00  0.00    -0.150 C  
BRANCH   6   7
HETATM    7  N   UNL     1      -9.557   7.452  71.781  1.00  0.00    -0.150 NA 
HETATM    8  C   UNL     1      -8.274   8.078  71.431  1.00  0.00    -0.112 C  
HETATM    9  C   UNL     1      -7.863   7.868  69.973  1.00  0.00    -0.105 C  
HETATM   10  C   UNL     1      -8.955   8.340  69.008  1.00  0.00    -0.147 C  
HETATM   11  C   UNL     1     -10.288   7.688  69.386  1.00  0.00    -0.214 C  
HETATM   12  C   UNL     1     -10.610   7.935  70.864  1.00  0.00    -0.213 C  
BRANCH  10  13
HETATM   13  O   UNL     1      -9.193   9.754  69.034  1.00  0.00    -0.150 OA 
BRANCH  13  14
HETATM   14  C   UNL     1      -8.787  10.515  67.883  1.00  0.00    -0.133 C  
BRANCH  14  15
HETATM   15  C   UNL     1      -9.964  11.284  67.297  1.00  0.00    -0.208 A  
HETATM   16  C   UNL     1     -10.709  12.146  68.121  1.00  0.00    -0.238 A  
HETATM   17  C   UNL     1     -11.674  12.993  67.573  1.00  0.00    -0.421 A  
HETATM   18  C   UNL     1     -10.253  11.244  65.923  1.00  0.00    -0.298 A  
HETATM   19  C   UNL     1     -11.221  12.089  65.377  1.00  0.00    -0.374 A  
HETATM   20 CL   UNL     1     -13.035  14.082  65.514  1.00  0.00    -0.478 Cl 
HETATM   21  C   UNL     1     -11.911  12.975  66.200  1.00  0.00    -0.427 A  
ENDBRANCH  14  15
BRANCH  14  22
HETATM   22  C   UNL     1      -7.601  11.401  68.264  1.00  0.00    -0.113 A  
HETATM   23  C   UNL     1      -6.011  12.958  67.608  1.00  0.00    -0.148 A  
HETATM   24  C   UNL     1      -5.964  12.173  69.853  1.00  0.00    -0.149 A  
HETATM   25  C   UNL     1      -7.062  11.372  69.554  1.00  0.00    -0.020 A  
HETATM   26  N   UNL     1      -7.080  12.196  67.289  1.00  0.00    -0.145 NA 
HETATM   27  C   UNL     1      -5.424  12.982  68.862  1.00  0.00    -0.071 A  
ENDBRANCH  14  22
ENDBRANCH  13  14
ENDBRANCH  10  13
ENDBRANCH   6   7
ENDBRANCH   5   6
ENDBRANCH   4   5
TORSDOF 7
ENDMDL
MODEL      177
REMARK 921   NORMALIZED FREE ENERGY PREDICTED BY IDOCK:   -3.25 KCAL/MOL
REMARK 922        TOTAL FREE ENERGY PREDICTED BY IDOCK:   -6.04 KCAL/MOL
REMARK 923 INTER-LIGAND FREE ENERGY PREDICTED BY IDOCK:   -5.09 KCAL/MOL
REMARK 924 INTRA-LIGAND FREE ENERGY PREDICTED BY IDOCK:   -0.95 KCAL/MOL
REMARK 927      BINDING AFFINITY PREDICTED BY RF-SCORE:    0.00 PKD
ROOT
HETATM    1  O   UNL     1      -8.198   3.831  73.539  1.00  0.00    -0.085 OA 
HETATM    2  C   UNL     1      -7.772   5.018  73.045  1.00  0.00    -0.097 C  
HETATM    3  O   UNL     1      -6.852   5.104  72.249  1.00  0.00    -0.067 OA 
HETATM    4  C   UNL     1      -8.571   6.174  73.590  1.00  0.00    -0.124 C  
ENDROOT
BRANCH   4   5
HETATM    5  C   UNL     1      -8.116   7.522  73.026  1.00  0.00    -0.141 C  
BRANCH   5   6
HETATM    6  C   UNL     1      -8.893   7.832  71.743  1.00  0.00    -0.119 C  
BRANCH   6   7
HETATM    7  N   UNL     1      -8.079   8.275  70.605  1.00  0.00    -0.105 NA 
HETATM    8  C   UNL     1      -8.195   7.448  69.394  1.00  0.00    -0.131 C  
HETATM    9  C   UNL     1      -9.546   7.574  68.689  1.00  0.00    -0.151 C  
HETATM   10  C   UNL     1      -9.873   9.034  68.358  1.00  0.00    -0.166 C  
HETATM   11  C   UNL     1      -9.742   9.887  69.623  1.00  0.00    -0.252 C  
HETATM   12  C   UNL     1      -8.366   9.685  70.270  1.00  0.00    -0.186 C  
BRANCH  10  13
HETATM   13  O   UNL     1      -8.994   9.630  67.395  1.00  0.00    -0.130 OA 
BRANCH  13  14
HETATM   14  C   UNL     1      -9.332   9.476  66.006  1.00  0.00    -0.216 C  
BRANCH  14  15
HETATM   15  C   UNL     1      -9.979  10.742  65.460  1.00  0.00    -0.321 A  
HETATM   16  C   UNL     1     -10.224  10.858  64.080  1.00  0.00    -0.424 A  
HETATM   17  C   UNL     1     -10.974  11.923  63.579  1.00  0.00    -0.505 A  
HETATM   18  C   UNL     1     -10.445  11.753  66.316  1.00  0.00    -0.281 A  
HETATM   19  C   UNL     1     -11.192  12.821  65.814  1.00  0.00    -0.341 A  
HETATM   20 CL   UNL     1     -12.469  14.153  63.845  1.00  0.00    -0.292 Cl 
HETATM   21  C   UNL     1     -11.471  12.890  64.451  1.00  0.00    -0.357 A  
ENDBRANCH  14  15
BRANCH  14  22
HETATM   22  C   UNL     1      -8.086   9.040  65.234  1.00  0.00    -0.126 A  
HETATM   23  C   UNL     1      -6.155   9.648  64.102  1.00  0.00    -0.102 A  
HETATM   24  C   UNL     1      -6.714   7.339  64.224  1.00  0.00    -0.047 A  
HETATM   25  C   UNL     1      -7.845   7.692  64.954  1.00  0.00    -0.128 A  
HETATM   26  N   UNL     1      -7.241  10.021  64.813  1.00  0.00    -0.134 NA 
HETATM   27  C   UNL     1      -5.851   8.335  63.786  1.00  0.00    -0.066 A  
ENDBRANCH  14  22
ENDBRANCH  13  14
ENDBRANCH  10  13
ENDBRANCH   6   7
ENDBRANCH   5   6
ENDBRANCH   4   5
TORSDOF 7
ENDMDL
MODEL      178
REMARK 921   NORMALIZED FREE ENERGY PREDICTED BY IDOCK:   -3.11 KCAL/MOL
REMARK 922        TOTAL FREE ENERGY PREDICTED BY IDOCK:   -5.85 KCAL/MOL
REMARK 923 INTER-LIGAND FREE ENERGY PREDICTED BY IDOCK:   -5.12 KCAL/MOL
REMARK 924 INTRA-LIGAND FREE ENERGY PREDICTED BY IDOCK:   -0.73 KCAL/MOL
REMARK 927      BINDING AFFINITY PREDICTED BY RF-SCORE:    0.00 PKD
ROOT
HETATM    1  O   UNL     1     -11.118   3.248  63.419  1.00  0.00    -0.232 OA 
HETATM    2  C   UNL     1      -9.823   3.534  63.692  1.00  0.00    -0.162 C  
HETATM    3  O   UNL     1      -9.016   3.813  62.821  1.00  0.00    -0.094 OA 
HETATM    4  C   UNL     1      -9.531   3.470  65.170  1.00  0.00    -0.158 C  
ENDROOT
BRANCH   4   5
HETATM    5  C   UNL     1      -8.076   3.810  65.498  1.00  0.00    -0.097 C  
BRANCH   5   6
HETATM    6  C   UNL     1      -8.021   5.112  66.304  1.00  0.00    -0.104 C  
BRANCH   6   7
HETATM    7  N   UNL     1      -7.328   5.024  67.595  1.00  0.00    -0.077 NA 
HETATM    8  C   UNL     1      -7.155   6.304  68.299  1.00  0.00    -0.083 C  
HETATM    9  C   UNL     1      -8.459   6.884  68.850  1.00  0.00    -0.125 C  
HETATM   10  C   UNL     1      -9.181   5.883  69.756  1.00  0.00    -0.145 C  
HETATM   11  C   UNL     1      -9.349   4.552  69.016  1.00  0.00    -0.211 C  
HETATM   12  C   UNL     1      -7.999   4.056  68.486  1.00  0.00    -0.072 C  
BRANCH  10  13
HETATM   13  O   UNL     1      -8.478   5.568  70.966  1.00  0.00    -0.121 OA 
BRANCH  13  14
HETATM   14  C   UNL     1      -9.188   5.730  72.205  1.00  0.00    -0.145 C  
BRANCH  14  15
HETATM   15  C   UNL     1     -10.313   6.747  72.058  1.00  0.00    -0.217 A  
HETATM   16  C   UNL     1     -10.045   8.112  72.259  1.00  0.00    -0.338 A  
HETATM   17  C   UNL     1     -11.009   9.076  71.957  1.00  0.00    -0.355 A  
HETATM   18  C   UNL     1     -11.589   6.366  71.611  1.00  0.00    -0.363 A  
HETATM   19  C   UNL     1     -12.554   7.331  71.313  1.00  0.00    -0.402 A  
HETATM   20 CL   UNL     1     -13.406   9.874  71.010  1.00  0.00    -0.391 Cl 
HETATM   21  C   UNL     1     -12.252   8.682  71.466  1.00  0.00    -0.318 A  
ENDBRANCH  14  15
BRANCH  14  22
HETATM   22  C   UNL     1      -9.658   4.360  72.694  1.00  0.00    -0.137 A  
HETATM   23  C   UNL     1     -10.895   3.128  74.222  1.00  0.00    -0.075 A  
HETATM   24  C   UNL     1      -9.645   1.954  72.573  1.00  0.00    -0.150 A  
HETATM   25  C   UNL     1      -9.217   3.183  72.081  1.00  0.00    -0.163 A  
HETATM   26  N   UNL     1     -10.501   4.336  73.763  1.00  0.00    -0.187 NA 
HETATM   27  C   UNL     1     -10.500   1.923  73.667  1.00  0.00    -0.194 A  
ENDBRANCH  14  22
ENDBRANCH  13  14
ENDBRANCH  10  13
ENDBRANCH   6   7
ENDBRANCH   5   6
ENDBRANCH   4   5
TORSDOF 7
ENDMDL
MODEL      179
REMARK 921   NORMALIZED FREE ENERGY PREDICTED BY IDOCK:   -3.06 KCAL/MOL
REMARK 922        TOTAL FREE ENERGY PREDICTED BY IDOCK:   -5.78 KCAL/MOL
REMARK 923 INTER-LIGAND FREE ENERGY PREDICTED BY IDOCK:   -5.84 KCAL/MOL
REMARK 924 INTRA-LIGAND FREE ENERGY PREDICTED BY IDOCK:    0.06 KCAL/MOL
REMARK 927      BINDING AFFINITY PREDICTED BY RF-SCORE:    0.00 PKD
ROOT
HETATM    1  O   UNL     1      -7.163  16.879  68.665  1.00  0.00    -0.191 OA 
HETATM    2  C   UNL     1      -7.144  15.659  69.251  1.00  0.00    -0.189 C  
HETATM    3  O   UNL     1      -8.163  15.072  69.575  1.00  0.00    -0.190 OA 
HETATM    4  C   UNL     1      -5.739  15.142  69.430  1.00  0.00    -0.098 C  
ENDROOT
BRANCH   4   5
HETATM    5  C   UNL     1      -5.700  13.754  70.073  1.00  0.00    -0.125 C  
BRANCH   5   6
HETATM    6  C   UNL     1      -5.401  12.699  69.002  1.00  0.00    -0.067 C  
BRANCH   6   7
HETATM    7  N   UNL     1      -6.145  11.441  69.133  1.00  0.00    -0.050 NA 
HETATM    8  C   UNL     1      -7.607  11.584  69.198  1.00  0.00    -0.003 C  
HETATM    9  C   UNL     1      -8.244  12.016  67.876  1.00  0.00    -0.153 C  
HETATM   10  C   UNL     1      -7.862  11.070  66.733  1.00  0.00    -0.149 C  
HETATM   11  C   UNL     1      -6.338  10.923  66.679  1.00  0.00    -0.113 C  
HETATM   12  C   UNL     1      -5.788  10.505  68.048  1.00  0.00    -0.040 C  
BRANCH  10  13
HETATM   13  O   UNL     1      -8.376   9.739  66.874  1.00  0.00    -0.119 OA 
BRANCH  13  14
HETATM   14  C   UNL     1      -9.770   9.534  66.583  1.00  0.00    -0.211 C  
BRANCH  14  15
HETATM   15  C   UNL     1     -10.604   9.585  67.857  1.00  0.00    -0.299 A  
HETATM   16  C   UNL     1     -10.392   8.627  68.864  1.00  0.00    -0.228 A  
HETATM   17  C   UNL     1     -11.012   8.755  70.108  1.00  0.00    -0.236 A  
HETATM   18  C   UNL     1     -11.503  10.636  68.102  1.00  0.00    -0.303 A  
HETATM   19  C   UNL     1     -12.126  10.762  69.345  1.00  0.00    -0.315 A  
HETATM   20 CL   UNL     1     -12.555  10.041  71.910  1.00  0.00    -0.477 Cl 
HETATM   21  C   UNL     1     -11.861   9.833  70.349  1.00  0.00    -0.193 A  
ENDBRANCH  14  15
BRANCH  14  22
HETATM   22  C   UNL     1     -10.210  10.540  65.519  1.00  0.00    -0.256 A  
HETATM   23  C   UNL     1     -10.014  11.324  63.345  1.00  0.00    -0.395 A  
HETATM   24  C   UNL     1     -11.478  12.468  64.830  1.00  0.00    -0.367 A  
HETATM   25  C   UNL     1     -11.125  11.554  65.819  1.00  0.00    -0.272 A  
HETATM   26  N   UNL     1      -9.656  10.419  64.282  1.00  0.00    -0.294 NA 
HETATM   27  C   UNL     1     -10.912  12.354  63.568  1.00  0.00    -0.506 A  
ENDBRANCH  14  22
ENDBRANCH  13  14
ENDBRANCH  10  13
ENDBRANCH   6   7
ENDBRANCH   5   6
ENDBRANCH   4   5
TORSDOF 7
ENDMDL
MODEL      180
REMARK 921   NORMALIZED FREE ENERGY PREDICTED BY IDOCK:   -3.01 KCAL/MOL
REMARK 922        TOTAL FREE ENERGY PREDICTED BY IDOCK:   -5.70 KCAL/MOL
REMARK 923 INTER-LIGAND FREE ENERGY PREDICTED BY IDOCK:   -4.87 KCAL/MOL
REMARK 924 INTRA-LIGAND FREE ENERGY PREDICTED BY IDOCK:   -0.83 KCAL/MOL
REMARK 927      BINDING AFFINITY PREDICTED BY RF-SCORE:    0.00 PKD
ROOT
HETATM    1  O   UNL     1      -7.117   7.873  62.611  1.00  0.00    -0.083 OA 
HETATM    2  C   UNL     1      -7.127   7.039  63.677  1.00  0.00    -0.061 C  
HETATM    3  O   UNL     1      -6.613   7.333  64.743  1.00  0.00    -0.039 OA 
HETATM    4  C   UNL     1      -7.846   5.748  63.376  1.00  0.00    -0.102 C  
ENDROOT
BRANCH   4   5
HETATM    5  C   UNL     1      -7.884   4.802  64.578  1.00  0.00    -0.089 C  
BRANCH   5   6
HETATM    6  C   UNL     1      -9.333   4.394  64.866  1.00  0.00    -0.163 C  
BRANCH   6   7
HETATM    7  N   UNL     1      -9.669   4.226  66.285  1.00  0.00    -0.198 NA 
HETATM    8  C   UNL     1      -8.522   4.233  67.204  1.00  0.00    -0.100 C  
HETATM    9  C   UNL     1      -7.860   5.604  67.354  1.00  0.00    -0.101 C  
HETATM   10  C   UNL     1      -8.874   6.674  67.774  1.00  0.00    -0.114 C  
HETATM   11  C   UNL     1     -10.068   6.652  66.815  1.00  0.00    -0.240 C  
HETATM   12  C   UNL     1     -10.654   5.239  66.715  1.00  0.00    -0.242 C  
BRANCH  10  13
HETATM   13  O   UNL     1      -9.425   6.481  69.084  1.00  0.00    -0.136 OA 
BRANCH  13  14
HETATM   14  C   UNL     1      -8.844   7.234  70.163  1.00  0.00    -0.145 C  
BRANCH  14  15
HETATM   15  C   UNL     1      -9.844   8.237  70.725  1.00  0.00    -0.205 A  
HETATM   16  C   UNL     1     -10.043   9.462  70.065  1.00  0.00    -0.259 A  
HETATM   17  C   UNL     1     -11.075  10.318  70.454  1.00  0.00    -0.391 A  
HETATM   18  C   UNL     1     -10.659   7.920  71.824  1.00  0.00    -0.276 A  
HETATM   19  C   UNL     1     -11.689   8.778  72.214  1.00  0.00    -0.398 A  
HETATM   20 CL   UNL     1     -13.233  10.974  71.935  1.00  0.00    -0.568 Cl 
HETATM   21  C   UNL     1     -11.906   9.962  71.515  1.00  0.00    -0.365 A  
ENDBRANCH  14  15
BRANCH  14  22
HETATM   22  C   UNL     1      -8.292   6.264  71.208  1.00  0.00    -0.123 A  
HETATM   23  C   UNL     1      -6.886   5.906  73.017  1.00  0.00    -0.075 A  
HETATM   24  C   UNL     1      -8.121   4.061  72.164  1.00  0.00    -0.085 A  
HETATM   25  C   UNL     1      -8.668   4.918  71.214  1.00  0.00    -0.142 A  
HETATM   26  N   UNL     1      -7.404   6.763  72.111  1.00  0.00    -0.087 NA 
HETATM   27  C   UNL     1      -7.210   4.561  73.085  1.00  0.00    -0.079 A  
ENDBRANCH  14  22
ENDBRANCH  13  14
ENDBRANCH  10  13
ENDBRANCH   6   7
ENDBRANCH   5   6
ENDBRANCH   4   5
TORSDOF 7
ENDMDL
MODEL      181
REMARK 921   NORMALIZED FREE ENERGY PREDICTED BY IDOCK:   -2.97 KCAL/MOL
REMARK 922        TOTAL FREE ENERGY PREDICTED BY IDOCK:   -5.65 KCAL/MOL
REMARK 923 INTER-LIGAND FREE ENERGY PREDICTED BY IDOCK:   -5.16 KCAL/MOL
REMARK 924 INTRA-LIGAND FREE ENERGY PREDICTED BY IDOCK:   -0.49 KCAL/MOL
REMARK 927      BINDING AFFINITY PREDICTED BY RF-SCORE:    0.00 PKD
ROOT
HETATM    1  O   UNL     1      -5.984  15.850  68.222  1.00  0.00    -0.098 OA 
HETATM    2  C   UNL     1      -6.365  14.931  69.140  1.00  0.00    -0.108 C  
HETATM    3  O   UNL     1      -7.444  14.981  69.707  1.00  0.00    -0.198 OA 
HETATM    4  C   UNL     1      -5.313  13.872  69.348  1.00  0.00    -0.083 C  
ENDROOT
BRANCH   4   5
HETATM    5  C   UNL     1      -5.737  12.814  70.368  1.00  0.00    -0.173 C  
BRANCH   5   6
HETATM    6  C   UNL     1      -5.730  11.431  69.709  1.00  0.00    -0.088 C  
BRANCH   6   7
HETATM    7  N   UNL     1      -7.049  10.813  69.529  1.00  0.00    -0.123 NA 
HETATM    8  C   UNL     1      -8.041  11.648  68.836  1.00  0.00    -0.004 C  
HETATM    9  C   UNL     1      -7.748  11.846  67.347  1.00  0.00    -0.158 C  
HETATM   10  C   UNL     1      -7.595  10.506  66.622  1.00  0.00    -0.120 C  
HETATM   11  C   UNL     1      -6.566   9.641  67.356  1.00  0.00    -0.070 C  
HETATM   12  C   UNL     1      -6.930   9.512  68.840  1.00  0.00    -0.063 C  
BRANCH  10  13
HETATM   13  O   UNL     1      -8.796   9.722  66.573  1.00  0.00    -0.136 OA 
BRANCH  13  14
HETATM   14  C   UNL     1      -9.435   9.572  65.293  1.00  0.00    -0.258 C  
BRANCH  14  15
HETATM   15  C   UNL     1     -10.336  10.764  64.993  1.00  0.00    -0.357 A  
HETATM   16  C   UNL     1     -11.012  11.406  66.046  1.00  0.00    -0.286 A  
HETATM   17  C   UNL     1     -11.697  12.601  65.825  1.00  0.00    -0.466 A  
HETATM   18  C   UNL     1     -10.419  11.312  63.703  1.00  0.00    -0.464 A  
HETATM   19  C   UNL     1     -11.108  12.506  63.481  1.00  0.00    -0.497 A  
HETATM   20 CL   UNL     1     -12.493  14.675  64.293  1.00  0.00    -0.412 Cl 
HETATM   21  C   UNL     1     -11.725  13.156  64.547  1.00  0.00    -0.371 A  
ENDBRANCH  14  15
BRANCH  14  22
HETATM   22  C   UNL     1      -8.367   9.325  64.228  1.00  0.00    -0.177 A  
HETATM   23  C   UNL     1      -7.439   7.887  62.662  1.00  0.00    -0.108 A  
HETATM   24  C   UNL     1      -6.415  10.008  62.994  1.00  0.00    -0.130 A  
HETATM   25  C   UNL     1      -7.387  10.283  63.951  1.00  0.00    -0.061 A  
HETATM   26  N   UNL     1      -8.399   8.127  63.582  1.00  0.00    -0.056 NA 
HETATM   27  C   UNL     1      -6.438   8.785  62.336  1.00  0.00    -0.095 A  
ENDBRANCH  14  22
ENDBRANCH  13  14
ENDBRANCH  10  13
ENDBRANCH   6   7
ENDBRANCH   5   6
ENDBRANCH   4   5
TORSDOF 7
ENDMDL
MODEL      182
REMARK 921   NORMALIZED FREE ENERGY PREDICTED BY IDOCK:   -2.91 KCAL/MOL
REMARK 922        TOTAL FREE ENERGY PREDICTED BY IDOCK:   -5.56 KCAL/MOL
REMARK 923 INTER-LIGAND FREE ENERGY PREDICTED BY IDOCK:   -5.52 KCAL/MOL
REMARK 924 INTRA-LIGAND FREE ENERGY PREDICTED BY IDOCK:   -0.04 KCAL/MOL
REMARK 927      BINDING AFFINITY PREDICTED BY RF-SCORE:    0.00 PKD
ROOT
HETATM    1  O   UNL     1      -9.217   1.979  70.130  1.00  0.00    -0.095 OA 
HETATM    2  C   UNL     1      -9.004   3.012  69.281  1.00  0.00    -0.118 C  
HETATM    3  O   UNL     1      -8.208   2.950  68.360  1.00  0.00    -0.063 OA 
HETATM    4  C   UNL     1      -9.866   4.204  69.616  1.00  0.00    -0.208 C  
ENDROOT
BRANCH   4   5
HETATM    5  C   UNL     1      -9.653   5.373  68.653  1.00  0.00    -0.173 C  
BRANCH   5   6
HETATM    6  C   UNL     1      -8.708   6.398  69.290  1.00  0.00    -0.125 C  
BRANCH   6   7
HETATM    7  N   UNL     1      -8.378   7.556  68.451  1.00  0.00    -0.125 NA 
HETATM    8  C   UNL     1      -9.440   7.982  67.528  1.00  0.00    -0.146 C  
HETATM    9  C   UNL     1     -10.643   8.621  68.225  1.00  0.00    -0.181 C  
HETATM   10  C   UNL     1     -10.219   9.796  69.111  1.00  0.00    -0.199 C  
HETATM   11  C   UNL     1      -9.108   9.344  70.064  1.00  0.00    -0.244 C  
HETATM   12  C   UNL     1      -7.955   8.703  69.281  1.00  0.00    -0.103 C  
BRANCH  10  13
HETATM   13  O   UNL     1      -9.682  10.914  68.391  1.00  0.00    -0.162 OA 
BRANCH  13  14
HETATM   14  C   UNL     1     -10.586  11.981  68.057  1.00  0.00    -0.208 C  
BRANCH  14  15
HETATM   15  C   UNL     1     -11.350  12.452  69.288  1.00  0.00    -0.315 A  
HETATM   16  C   UNL     1     -11.553  13.827  69.496  1.00  0.00    -0.355 A  
HETATM   17  C   UNL     1     -12.397  14.275  70.513  1.00  0.00    -0.430 A  
HETATM   18  C   UNL     1     -11.960  11.538  70.164  1.00  0.00    -0.452 A  
HETATM   19  C   UNL     1     -12.802  11.987  71.184  1.00  0.00    -0.331 A  
HETATM   20 CL   UNL     1     -14.143  13.899  72.535  1.00  0.00    -0.564 Cl 
HETATM   21  C   UNL     1     -13.033  13.351  71.340  1.00  0.00    -0.328 A  
ENDBRANCH  14  15
BRANCH  14  22
HETATM   22  C   UNL     1      -9.808  13.093  67.354  1.00  0.00    -0.226 A  
HETATM   23  C   UNL     1      -7.920  14.439  67.284  1.00  0.00    -0.180 A  
HETATM   24  C   UNL     1      -9.605  14.773  65.640  1.00  0.00    -0.235 A  
HETATM   25  C   UNL     1     -10.333  13.746  66.234  1.00  0.00    -0.294 A  
HETATM   26  N   UNL     1      -8.599  13.434  67.880  1.00  0.00    -0.171 NA 
HETATM   27  C   UNL     1      -8.375  15.130  66.174  1.00  0.00     0.504 A  
ENDBRANCH  14  22
ENDBRANCH  13  14
ENDBRANCH  10  13
ENDBRANCH   6   7
ENDBRANCH   5   6
ENDBRANCH   4   5
TORSDOF 7
ENDMDL
MODEL      183
REMARK 921   NORMALIZED FREE ENERGY PREDICTED BY IDOCK:   -2.88 KCAL/MOL
REMARK 922        TOTAL FREE ENERGY PREDICTED BY IDOCK:   -5.52 KCAL/MOL
REMARK 923 INTER-LIGAND FREE ENERGY PREDICTED BY IDOCK:   -4.73 KCAL/MOL
REMARK 924 INTRA-LIGAND FREE ENERGY PREDICTED BY IDOCK:   -0.79 KCAL/MOL
REMARK 927      BINDING AFFINITY PREDICTED BY RF-SCORE:    0.00 PKD
ROOT
HETATM    1  O   UNL     1      -8.104   6.009  62.446  1.00  0.00    -0.093 OA 
HETATM    2  C   UNL     1      -7.688   5.737  63.705  1.00  0.00    -0.094 C  
HETATM    3  O   UNL     1      -7.192   6.585  64.428  1.00  0.00    -0.060 OA 
HETATM    4  C   UNL     1      -7.924   4.295  64.077  1.00  0.00    -0.090 C  
ENDROOT
BRANCH   4   5
HETATM    5  C   UNL     1      -7.477   3.975  65.505  1.00  0.00    -0.081 C  
BRANCH   5   6
HETATM    6  C   UNL     1      -8.101   2.650  65.955  1.00  0.00    -0.084 C  
BRANCH   6   7
HETATM    7  N   UNL     1      -9.237   2.769  66.875  1.00  0.00    -0.146 NA 
HETATM    8  C   UNL     1      -9.200   1.866  68.035  1.00  0.00    -0.183 C  
HETATM    9  C   UNL     1      -8.121   2.223  69.059  1.00  0.00    -0.067 C  
HETATM   10  C   UNL     1      -8.252   3.674  69.531  1.00  0.00    -0.052 C  
HETATM   11  C   UNL     1      -8.298   4.605  68.315  1.00  0.00    -0.090 C  
HETATM   12  C   UNL     1      -9.394   4.163  67.338  1.00  0.00    -0.175 C  
BRANCH  10  13
HETATM   13  O   UNL     1      -9.448   3.946  70.273  1.00  0.00    -0.152 OA 
BRANCH  13  14
HETATM   14  C   UNL     1      -9.299   4.563  71.564  1.00  0.00    -0.145 C  
BRANCH  14  15
HETATM   15  C   UNL     1     -10.195   5.789  71.687  1.00  0.00    -0.253 A  
HETATM   16  C   UNL     1     -10.048   6.650  72.788  1.00  0.00    -0.195 A  
HETATM   17  C   UNL     1     -10.728   7.868  72.834  1.00  0.00    -0.440 A  
HETATM   18  C   UNL     1     -11.091   6.146  70.665  1.00  0.00    -0.384 A  
HETATM   19  C   UNL     1     -11.774   7.363  70.713  1.00  0.00    -0.305 A  
HETATM   20 CL   UNL     1     -12.342   9.767  71.799  1.00  0.00    -0.471 Cl 
HETATM   21  C   UNL     1     -11.573   8.227  71.786  1.00  0.00    -0.299 A  
ENDBRANCH  14  15
BRANCH  14  22
HETATM   22  C   UNL     1      -9.539   3.514  72.649  1.00  0.00    -0.134 A  
HETATM   23  C   UNL     1      -8.655   1.910  74.072  1.00  0.00    -0.058 A  
HETATM   24  C   UNL     1     -11.010   2.240  74.068  1.00  0.00    -0.246 A  
HETATM   25  C   UNL     1     -10.831   3.223  73.099  1.00  0.00    -0.241 A  
HETATM   26  N   UNL     1      -8.448   2.862  73.137  1.00  0.00    -0.078 NA 
HETATM   27  C   UNL     1      -9.902   1.567  74.566  1.00  0.00    -0.112 A  
ENDBRANCH  14  22
ENDBRANCH  13  14
ENDBRANCH  10  13
ENDBRANCH   6   7
ENDBRANCH   5   6
ENDBRANCH   4   5
TORSDOF 7
ENDMDL
MODEL      184
REMARK 921   NORMALIZED FREE ENERGY PREDICTED BY IDOCK:   -2.74 KCAL/MOL
REMARK 922        TOTAL FREE ENERGY PREDICTED BY IDOCK:   -5.32 KCAL/MOL
REMARK 923 INTER-LIGAND FREE ENERGY PREDICTED BY IDOCK:   -5.62 KCAL/MOL
REMARK 924 INTRA-LIGAND FREE ENERGY PREDICTED BY IDOCK:    0.29 KCAL/MOL
REMARK 927      BINDING AFFINITY PREDICTED BY RF-SCORE:    0.00 PKD
ROOT
HETATM    1  O   UNL     1      -8.209  14.962  66.821  1.00  0.00    -0.191 OA 
HETATM    2  C   UNL     1      -9.386  14.323  67.018  1.00  0.00    -0.241 C  
HETATM    3  O   UNL     1     -10.437  14.920  67.174  1.00  0.00    -0.264 OA 
HETATM    4  C   UNL     1      -9.222  12.824  67.008  1.00  0.00    -0.221 C  
ENDROOT
BRANCH   4   5
HETATM    5  C   UNL     1     -10.547  12.086  67.209  1.00  0.00    -0.252 C  
BRANCH   5   6
HETATM    6  C   UNL     1     -10.781  11.848  68.705  1.00  0.00    -0.235 C  
BRANCH   6   7
HETATM    7  N   UNL     1     -10.942  10.444  69.101  1.00  0.00    -0.227 NA 
HETATM    8  C   UNL     1     -10.999   9.483  67.989  1.00  0.00    -0.096 C  
HETATM    9  C   UNL     1      -9.664   9.298  67.266  1.00  0.00    -0.218 C  
HETATM   10  C   UNL     1      -8.547   8.906  68.239  1.00  0.00    -0.134 C  
HETATM   11  C   UNL     1      -8.502   9.908  69.397  1.00  0.00    -0.169 C  
HETATM   12  C   UNL     1      -9.884  10.041  70.049  1.00  0.00    -0.197 C  
BRANCH  10  13
HETATM   13  O   UNL     1      -8.721   7.619  68.847  1.00  0.00    -0.135 OA 
BRANCH  13  14
HETATM   14  C   UNL     1     -10.013   6.998  68.723  1.00  0.00    -0.160 C  
BRANCH  14  15
HETATM   15  C   UNL     1      -9.957   5.815  67.766  1.00  0.00    -0.166 A  
HETATM   16  C   UNL     1     -10.822   5.776  66.658  1.00  0.00    -0.290 A  
HETATM   17  C   UNL     1     -10.670   4.799  65.673  1.00  0.00    -0.188 A  
HETATM   18  C   UNL     1      -8.980   4.814  67.896  1.00  0.00    -0.124 A  
HETATM   19  C   UNL     1      -8.831   3.834  66.912  1.00  0.00    -0.134 A  
HETATM   20 CL   UNL     1      -9.418   2.696  64.537  1.00  0.00    -0.146 Cl 
HETATM   21  C   UNL     1      -9.663   3.844  65.795  1.00  0.00    -0.165 A  
ENDBRANCH  14  15
BRANCH  14  22
HETATM   22  C   UNL     1     -10.530   6.639  70.116  1.00  0.00    -0.210 A  
HETATM   23  C   UNL     1     -10.126   5.651  72.175  1.00  0.00    -0.186 A  
HETATM   24  C   UNL     1     -12.284   6.561  71.764  1.00  0.00    -0.374 A  
HETATM   25  C   UNL     1     -11.843   6.931  70.497  1.00  0.00    -0.385 A  
HETATM   26  N   UNL     1      -9.667   6.002  70.954  1.00  0.00    -0.172 NA 
HETATM   27  C   UNL     1     -11.411   5.906  72.622  1.00  0.00    -0.337 A  
ENDBRANCH  14  22
ENDBRANCH  13  14
ENDBRANCH  10  13
ENDBRANCH   6   7
ENDBRANCH   5   6
ENDBRANCH   4   5
TORSDOF 7
ENDMDL
MODEL      185
REMARK 921   NORMALIZED FREE ENERGY PREDICTED BY IDOCK:   -2.74 KCAL/MOL
REMARK 922        TOTAL FREE ENERGY PREDICTED BY IDOCK:   -5.32 KCAL/MOL
REMARK 923 INTER-LIGAND FREE ENERGY PREDICTED BY IDOCK:   -4.80 KCAL/MOL
REMARK 924 INTRA-LIGAND FREE ENERGY PREDICTED BY IDOCK:   -0.52 KCAL/MOL
REMARK 927      BINDING AFFINITY PREDICTED BY RF-SCORE:    0.00 PKD
ROOT
HETATM    1  O   UNL     1      -5.369   4.594  66.113  1.00  0.00    -0.008 OA 
HETATM    2  C   UNL     1      -5.861   5.292  65.061  1.00  0.00    -0.021 C  
HETATM    3  O   UNL     1      -6.725   4.846  64.326  1.00  0.00    -0.041 OA 
HETATM    4  C   UNL     1      -5.219   6.651  64.938  1.00  0.00    -0.026 C  
ENDROOT
BRANCH   4   5
HETATM    5  C   UNL     1      -5.778   7.460  63.766  1.00  0.00    -0.037 C  
BRANCH   5   6
HETATM    6  C   UNL     1      -6.604   8.636  64.300  1.00  0.00    -0.071 C  
BRANCH   6   7
HETATM    7  N   UNL     1      -7.137   8.465  65.657  1.00  0.00    -0.074 NA 
HETATM    8  C   UNL     1      -6.879   9.585  66.575  1.00  0.00    -0.083 C  
HETATM    9  C   UNL     1      -7.675  10.849  66.243  1.00  0.00    -0.147 C  
HETATM   10  C   UNL     1      -9.178  10.565  66.174  1.00  0.00    -0.170 C  
HETATM   11  C   UNL     1      -9.434   9.392  65.222  1.00  0.00    -0.296 C  
HETATM   12  C   UNL     1      -8.585   8.179  65.620  1.00  0.00    -0.158 C  
BRANCH  10  13
HETATM   13  O   UNL     1      -9.763  10.182  67.426  1.00  0.00    -0.154 OA 
BRANCH  13  14
HETATM   14  C   UNL     1      -9.384  10.936  68.591  1.00  0.00    -0.187 C  
BRANCH  14  15
HETATM   15  C   UNL     1     -10.115  12.272  68.635  1.00  0.00    -0.153 A  
HETATM   16  C   UNL     1     -11.476  12.308  68.987  1.00  0.00    -0.349 A  
HETATM   17  C   UNL     1     -12.120  13.527  69.207  1.00  0.00    -0.335 A  
HETATM   18  C   UNL     1      -9.433  13.486  68.444  1.00  0.00    -0.185 A  
HETATM   19  C   UNL     1     -10.080  14.705  68.662  1.00  0.00    -0.238 A  
HETATM   20 CL   UNL     1     -12.182  16.215  69.422  1.00  0.00    -0.021 Cl 
HETATM   21  C   UNL     1     -11.413  14.719  69.063  1.00  0.00    -0.293 A  
ENDBRANCH  14  15
BRANCH  14  22
HETATM   22  C   UNL     1      -9.601  10.076  69.835  1.00  0.00    -0.192 A  
HETATM   23  C   UNL     1     -11.025   9.382  71.530  1.00  0.00    -0.359 A  
HETATM   24  C   UNL     1      -8.794   8.557  71.521  1.00  0.00    -0.260 A  
HETATM   25  C   UNL     1      -8.564   9.305  70.370  1.00  0.00    -0.250 A  
HETATM   26  N   UNL     1     -10.834  10.114  70.411  1.00  0.00    -0.307 NA 
HETATM   27  C   UNL     1     -10.048   8.596  72.117  1.00  0.00    -0.388 A  
ENDBRANCH  14  22
ENDBRANCH  13  14
ENDBRANCH  10  13
ENDBRANCH   6   7
ENDBRANCH   5   6
ENDBRANCH   4   5
TORSDOF 7
ENDMDL
MODEL      186
REMARK 921   NORMALIZED FREE ENERGY PREDICTED BY IDOCK:   -2.73 KCAL/MOL
REMARK 922        TOTAL FREE ENERGY PREDICTED BY IDOCK:   -5.31 KCAL/MOL
REMARK 923 INTER-LIGAND FREE ENERGY PREDICTED BY IDOCK:   -4.61 KCAL/MOL
REMARK 924 INTRA-LIGAND FREE ENERGY PREDICTED BY IDOCK:   -0.69 KCAL/MOL
REMARK 927      BINDING AFFINITY PREDICTED BY RF-SCORE:    0.00 PKD
ROOT
HETATM    1  O   UNL     1      -9.536   2.368  71.630  1.00  0.00    -0.121 OA 
HETATM    2  C   UNL     1      -9.527   3.267  72.642  1.00  0.00    -0.110 C  
HETATM    3  O   UNL     1      -8.589   3.374  73.414  1.00  0.00    -0.078 OA 
HETATM    4  C   UNL     1     -10.788   4.093  72.674  1.00  0.00    -0.099 C  
ENDROOT
BRANCH   4   5
HETATM    5  C   UNL     1     -10.785   5.128  73.800  1.00  0.00    -0.352 C  
BRANCH   5   6
HETATM    6  C   UNL     1     -10.575   6.528  73.213  1.00  0.00    -0.276 C  
BRANCH   6   7
HETATM    7  N   UNL     1     -10.169   6.564  71.803  1.00  0.00    -0.188 NA 
HETATM    8  C   UNL     1     -10.888   7.540  70.970  1.00  0.00    -0.235 C  
HETATM    9  C   UNL     1     -10.533   8.995  71.281  1.00  0.00    -0.381 C  
HETATM   10  C   UNL     1      -9.023   9.238  71.186  1.00  0.00    -0.097 C  
HETATM   11  C   UNL     1      -8.284   8.211  72.050  1.00  0.00    -0.192 C  
HETATM   12  C   UNL     1      -8.714   6.786  71.681  1.00  0.00    -0.126 C  
BRANCH  10  13
HETATM   13  O   UNL     1      -8.486   9.091  69.864  1.00  0.00    -0.119 OA 
BRANCH  13  14
HETATM   14  C   UNL     1      -9.415   9.107  68.767  1.00  0.00    -0.147 C  
BRANCH  14  15
HETATM   15  C   UNL     1      -9.536  10.506  68.177  1.00  0.00    -0.163 A  
HETATM   16  C   UNL     1     -10.356  11.458  68.809  1.00  0.00    -0.222 A  
HETATM   17  C   UNL     1     -10.345  12.791  68.395  1.00  0.00    -0.248 A  
HETATM   18  C   UNL     1      -8.756  10.907  67.080  1.00  0.00    -0.132 A  
HETATM   19  C   UNL     1      -8.748  12.241  66.664  1.00  0.00    -0.132 A  
HETATM   20 CL   UNL     1      -9.445  14.838  66.885  1.00  0.00    -0.239 Cl 
HETATM   21  C   UNL     1      -9.526  13.180  67.337  1.00  0.00    -0.214 A  
ENDBRANCH  14  15
BRANCH  14  22
HETATM   22  C   UNL     1      -9.004   8.044  67.749  1.00  0.00    -0.132 A  
HETATM   23  C   UNL     1      -9.623   6.264  66.396  1.00  0.00    -0.119 A  
HETATM   24  C   UNL     1      -7.332   6.904  66.442  1.00  0.00    -0.073 A  
HETATM   25  C   UNL     1      -7.671   7.903  67.350  1.00  0.00    -0.109 A  
HETATM   26  N   UNL     1      -9.984   7.228  67.271  1.00  0.00    -0.174 NA 
HETATM   27  C   UNL     1      -8.325   6.065  65.955  1.00  0.00    -0.134 A  
ENDBRANCH  14  22
ENDBRANCH  13  14
ENDBRANCH  10  13
ENDBRANCH   6   7
ENDBRANCH   5   6
ENDBRANCH   4   5
TORSDOF 7
ENDMDL
MODEL      187
REMARK 921   NORMALIZED FREE ENERGY PREDICTED BY IDOCK:   -2.69 KCAL/MOL
REMARK 922        TOTAL FREE ENERGY PREDICTED BY IDOCK:   -5.24 KCAL/MOL
REMARK 923 INTER-LIGAND FREE ENERGY PREDICTED BY IDOCK:   -4.07 KCAL/MOL
REMARK 924 INTRA-LIGAND FREE ENERGY PREDICTED BY IDOCK:   -1.18 KCAL/MOL
REMARK 927      BINDING AFFINITY PREDICTED BY RF-SCORE:    0.00 PKD
ROOT
HETATM    1  O   UNL     1      -9.131  17.659  68.286  1.00  0.00    -0.261 OA 
HETATM    2  C   UNL     1     -10.105  16.933  67.689  1.00  0.00    -0.278 C  
HETATM    3  O   UNL     1     -10.747  17.353  66.740  1.00  0.00    -0.236 OA 
HETATM    4  C   UNL     1     -10.272  15.579  68.330  1.00  0.00    -0.215 C  
ENDROOT
BRANCH   4   5
HETATM    5  C   UNL     1     -11.356  14.737  67.654  1.00  0.00    -0.352 C  
BRANCH   5   6
HETATM    6  C   UNL     1     -10.707  13.747  66.682  1.00  0.00    -0.277 C  
BRANCH   6   7
HETATM    7  N   UNL     1      -9.614  12.941  67.240  1.00  0.00    -0.214 NA 
HETATM    8  C   UNL     1      -9.919  12.272  68.514  1.00  0.00    -0.170 C  
HETATM    9  C   UNL     1     -10.920  11.123  68.382  1.00  0.00    -0.277 C  
HETATM   10  C   UNL     1     -10.458  10.092  67.347  1.00  0.00    -0.260 C  
HETATM   11  C   UNL     1     -10.136  10.800  66.027  1.00  0.00    -0.305 C  
HETATM   12  C   UNL     1      -9.142  11.945  66.258  1.00  0.00    -0.188 C  
BRANCH  10  13
HETATM   13  O   UNL     1      -9.263   9.387  67.710  1.00  0.00    -0.129 OA 
BRANCH  13  14
HETATM   14  C   UNL     1      -9.287   7.952  67.614  1.00  0.00    -0.143 C  
BRANCH  14  15
HETATM   15  C   UNL     1      -8.507   7.477  66.395  1.00  0.00    -0.131 A  
HETATM   16  C   UNL     1      -7.123   7.714  66.319  1.00  0.00    -0.070 A  
HETATM   17  C   UNL     1      -6.358   7.137  65.305  1.00  0.00    -0.037 A  
HETATM   18  C   UNL     1      -9.115   6.702  65.393  1.00  0.00     0.241 A  
HETATM   19  C   UNL     1      -8.349   6.128  64.377  1.00  0.00     0.002 A  
HETATM   20 CL   UNL     1      -6.016   5.546  63.153  1.00  0.00    -0.017 Cl 
HETATM   21  C   UNL     1      -6.972   6.330  64.350  1.00  0.00    -0.048 A  
ENDBRANCH  14  15
BRANCH  14  22
HETATM   22  C   UNL     1      -8.792   7.355  68.931  1.00  0.00    -0.131 A  
HETATM   23  C   UNL     1      -8.531   5.481  70.272  1.00  0.00    -0.121 A  
HETATM   24  C   UNL     1      -7.830   7.586  71.127  1.00  0.00    -0.091 A  
HETATM   25  C   UNL     1      -8.242   8.165  69.930  1.00  0.00    -0.118 A  
HETATM   26  N   UNL     1      -8.935   6.012  69.098  1.00  0.00    -0.124 NA 
HETATM   27  C   UNL     1      -7.978   6.218  71.306  1.00  0.00    -0.116 A  
ENDBRANCH  14  22
ENDBRANCH  13  14
ENDBRANCH  10  13
ENDBRANCH   6   7
ENDBRANCH   5   6
ENDBRANCH   4   5
TORSDOF 7
ENDMDL
MODEL      188
REMARK 921   NORMALIZED FREE ENERGY PREDICTED BY IDOCK:   -2.68 KCAL/MOL
REMARK 922        TOTAL FREE ENERGY PREDICTED BY IDOCK:   -5.24 KCAL/MOL
REMARK 923 INTER-LIGAND FREE ENERGY PREDICTED BY IDOCK:   -4.32 KCAL/MOL
REMARK 924 INTRA-LIGAND FREE ENERGY PREDICTED BY IDOCK:   -0.92 KCAL/MOL
REMARK 927      BINDING AFFINITY PREDICTED BY RF-SCORE:    0.00 PKD
ROOT
HETATM    1  O   UNL     1      -7.195   8.265  62.349  1.00  0.00    -0.093 OA 
HETATM    2  C   UNL     1      -7.578   9.355  63.055  1.00  0.00    -0.107 C  
HETATM    3  O   UNL     1      -8.164  10.294  62.542  1.00  0.00    -0.138 OA 
HETATM    4  C   UNL     1      -7.201   9.246  64.511  1.00  0.00    -0.101 C  
ENDROOT
BRANCH   4   5
HETATM    5  C   UNL     1      -7.645  10.462  65.326  1.00  0.00    -0.118 C  
BRANCH   5   6
HETATM    6  C   UNL     1      -9.108  10.291  65.749  1.00  0.00    -0.170 C  
BRANCH   6   7
HETATM    7  N   UNL     1      -9.331  10.117  67.189  1.00  0.00    -0.152 NA 
HETATM    8  C   UNL     1     -10.622   9.515  67.554  1.00  0.00    -0.275 C  
HETATM    9  C   UNL     1     -10.735   8.034  67.190  1.00  0.00    -0.285 C  
HETATM   10  C   UNL     1      -9.588   7.217  67.794  1.00  0.00    -0.138 C  
HETATM   11  C   UNL     1      -8.249   7.858  67.415  1.00  0.00    -0.123 C  
HETATM   12  C   UNL     1      -8.232   9.342  67.801  1.00  0.00    -0.115 C  
BRANCH  10  13
HETATM   13  O   UNL     1      -9.598   7.158  69.227  1.00  0.00    -0.155 OA 
BRANCH  13  14
HETATM   14  C   UNL     1     -10.061   5.940  69.835  1.00  0.00    -0.198 C  
BRANCH  14  15
HETATM   15  C   UNL     1      -9.110   4.789  69.538  1.00  0.00    -0.152 A  
HETATM   16  C   UNL     1      -9.612   3.597  68.985  1.00  0.00    -0.165 A  
HETATM   17  C   UNL     1      -8.743   2.600  68.539  1.00  0.00    -0.132 A  
HETATM   18  C   UNL     1      -7.721   4.928  69.694  1.00  0.00    -0.063 A  
HETATM   19  C   UNL     1      -6.852   3.928  69.251  1.00  0.00    -0.045 A  
HETATM   20 CL   UNL     1      -6.295   1.590  68.026  1.00  0.00    -0.024 Cl 
HETATM   21  C   UNL     1      -7.366   2.779  68.657  1.00  0.00    -0.048 A  
ENDBRANCH  14  15
BRANCH  14  22
HETATM   22  C   UNL     1     -10.287   6.182  71.327  1.00  0.00    -0.217 A  
HETATM   23  C   UNL     1     -10.819   7.670  73.026  1.00  0.00    -0.400 A  
HETATM   24  C   UNL     1     -10.289   5.427  73.614  1.00  0.00    -0.263 A  
HETATM   25  C   UNL     1     -10.101   5.159  72.261  1.00  0.00    -0.243 A  
HETATM   26  N   UNL     1     -10.650   7.439  71.706  1.00  0.00    -0.201 NA 
HETATM   27  C   UNL     1     -10.653   6.707  74.008  1.00  0.00    -0.196 A  
ENDBRANCH  14  22
ENDBRANCH  13  14
ENDBRANCH  10  13
ENDBRANCH   6   7
ENDBRANCH   5   6
ENDBRANCH   4   5
TORSDOF 7
ENDMDL
MODEL      189
REMARK 921   NORMALIZED FREE ENERGY PREDICTED BY IDOCK:   -2.65 KCAL/MOL
REMARK 922        TOTAL FREE ENERGY PREDICTED BY IDOCK:   -5.19 KCAL/MOL
REMARK 923 INTER-LIGAND FREE ENERGY PREDICTED BY IDOCK:   -5.40 KCAL/MOL
REMARK 924 INTRA-LIGAND FREE ENERGY PREDICTED BY IDOCK:    0.21 KCAL/MOL
REMARK 927      BINDING AFFINITY PREDICTED BY RF-SCORE:    0.00 PKD
ROOT
HETATM    1  O   UNL     1      -8.309   9.273  65.494  1.00  0.00    -0.122 OA 
HETATM    2  C   UNL     1      -7.403   9.709  66.401  1.00  0.00    -0.094 C  
HETATM    3  O   UNL     1      -7.175   9.109  67.438  1.00  0.00    -0.079 OA 
HETATM    4  C   UNL     1      -6.734  10.986  65.961  1.00  0.00    -0.024 C  
ENDROOT
BRANCH   4   5
HETATM    5  C   UNL     1      -5.692  11.481  66.966  1.00  0.00    -0.119 C  
BRANCH   5   6
HETATM    6  C   UNL     1      -6.260  12.666  67.754  1.00  0.00    -0.131 C  
BRANCH   6   7
HETATM    7  N   UNL     1      -7.537  13.196  67.262  1.00  0.00    -0.126 NA 
HETATM    8  C   UNL     1      -8.706  12.890  68.101  1.00  0.00    -0.190 C  
HETATM    9  C   UNL     1      -8.720  13.640  69.434  1.00  0.00     0.872 C  
HETATM   10  C   UNL     1      -8.606  15.154  69.228  1.00  0.00    -0.211 C  
HETATM   11  C   UNL     1      -7.391  15.460  68.347  1.00  0.00    -0.114 C  
HETATM   12  C   UNL     1      -7.452  14.654  67.044  1.00  0.00     0.179 C  
BRANCH  10  13
HETATM   13  O   UNL     1      -9.729  15.744  68.559  1.00  0.00    -0.199 OA 
BRANCH  13  14
HETATM   14  C   UNL     1      -9.594  16.013  67.153  1.00  0.00    -0.218 C  
BRANCH  14  15
HETATM   15  C   UNL     1     -10.589  15.190  66.344  1.00  0.00    -0.305 A  
HETATM   16  C   UNL     1     -10.331  14.924  64.988  1.00  0.00    -0.401 A  
HETATM   17  C   UNL     1     -11.130  14.029  64.275  1.00  0.00    -0.198 A  
HETATM   18  C   UNL     1     -11.705  14.590  66.950  1.00  0.00    -0.399 A  
HETATM   19  C   UNL     1     -12.507  13.697  66.236  1.00  0.00    -0.420 A  
HETATM   20 CL   UNL     1     -13.133  12.235  64.056  1.00  0.00    -0.315 Cl 
HETATM   21  C   UNL     1     -12.203  13.405  64.908  1.00  0.00    -0.408 A  
ENDBRANCH  14  15
BRANCH  14  22
HETATM   22  C   UNL     1      -9.708  17.519  66.919  1.00  0.00    -0.291 A  
HETATM   23  C   UNL     1      -8.730  19.475  66.146  1.00  0.00    -0.311 A  
HETATM   24  C   UNL     1     -10.896  19.604  67.121  1.00  0.00    -0.526 A  
HETATM   25  C   UNL     1     -10.842  18.229  67.325  1.00  0.00    -0.269 A  
HETATM   26  N   UNL     1      -8.651  18.139  66.326  1.00  0.00    -0.448 NA 
HETATM   27  C   UNL     1      -9.819  20.244  66.521  1.00  0.00    -0.531 A  
ENDBRANCH  14  22
ENDBRANCH  13  14
ENDBRANCH  10  13
ENDBRANCH   6   7
ENDBRANCH   5   6
ENDBRANCH   4   5
TORSDOF 7
ENDMDL
MODEL      190
REMARK 921   NORMALIZED FREE ENERGY PREDICTED BY IDOCK:   -2.61 KCAL/MOL
REMARK 922        TOTAL FREE ENERGY PREDICTED BY IDOCK:   -5.13 KCAL/MOL
REMARK 923 INTER-LIGAND FREE ENERGY PREDICTED BY IDOCK:   -5.43 KCAL/MOL
REMARK 924 INTRA-LIGAND FREE ENERGY PREDICTED BY IDOCK:    0.30 KCAL/MOL
REMARK 927      BINDING AFFINITY PREDICTED BY RF-SCORE:    0.00 PKD
ROOT
HETATM    1  O   UNL     1     -10.434  12.083  66.758  1.00  0.00    -0.208 OA 
HETATM    2  C   UNL     1     -10.488  11.669  68.045  1.00  0.00    -0.194 C  
HETATM    3  O   UNL     1      -9.532  11.166  68.612  1.00  0.00    -0.190 OA 
HETATM    4  C   UNL     1     -11.842  11.914  68.661  1.00  0.00    -0.365 C  
ENDROOT
BRANCH   4   5
HETATM    5  C   UNL     1     -11.914  11.470  70.123  1.00  0.00    -0.452 C  
BRANCH   5   6
HETATM    6  C   UNL     1     -12.027   9.943  70.191  1.00  0.00    -0.077 C  
BRANCH   6   7
HETATM    7  N   UNL     1     -12.000   9.370  71.542  1.00  0.00    -0.356 NA 
HETATM    8  C   UNL     1     -12.835   8.174  71.730  1.00  0.00    -0.333 C  
HETATM    9  C   UNL     1     -12.302   6.932  71.013  1.00  0.00    -0.401 C  
HETATM   10  C   UNL     1     -10.856   6.628  71.416  1.00  0.00    -0.242 C  
HETATM   11  C   UNL     1      -9.997   7.882  71.223  1.00  0.00    -0.206 C  
HETATM   12  C   UNL     1     -10.614   9.076  71.961  1.00  0.00    -0.251 C  
BRANCH  10  13
HETATM   13  O   UNL     1     -10.693   6.253  72.791  1.00  0.00    -0.220 OA 
BRANCH  13  14
HETATM   14  C   UNL     1      -9.585   5.395  73.115  1.00  0.00    -0.145 C  
BRANCH  14  15
HETATM   15  C   UNL     1      -9.306   4.417  71.982  1.00  0.00    -0.180 A  
HETATM   16  C   UNL     1      -9.929   3.156  71.983  1.00  0.00    -0.223 A  
HETATM   17  C   UNL     1      -9.832   2.315  70.873  1.00  0.00    -0.028 A  
HETATM   18  C   UNL     1      -8.529   4.786  70.871  1.00  0.00    -0.114 A  
HETATM   19  C   UNL     1      -8.429   3.942  69.763  1.00  0.00    -0.091 A  
HETATM   20 CL   UNL     1      -9.053   1.724  68.359  1.00  0.00    -0.174 Cl 
HETATM   21  C   UNL     1      -9.098   2.721  69.760  1.00  0.00    -0.122 A  
ENDBRANCH  14  15
BRANCH  14  22
HETATM   22  C   UNL     1      -8.382   6.257  73.495  1.00  0.00    -0.121 A  
HETATM   23  C   UNL     1      -6.079   6.537  73.497  1.00  0.00    -0.063 A  
HETATM   24  C   UNL     1      -7.418   8.193  74.555  1.00  0.00    -0.257 A  
HETATM   25  C   UNL     1      -8.542   7.451  74.204  1.00  0.00    -0.257 A  
HETATM   26  N   UNL     1      -7.151   5.798  73.136  1.00  0.00    -0.084 NA 
HETATM   27  C   UNL     1      -6.160   7.728  74.198  1.00  0.00    -0.075 A  
ENDBRANCH  14  22
ENDBRANCH  13  14
ENDBRANCH  10  13
ENDBRANCH   6   7
ENDBRANCH   5   6
ENDBRANCH   4   5
TORSDOF 7
ENDMDL
MODEL      191
REMARK 921   NORMALIZED FREE ENERGY PREDICTED BY IDOCK:   -2.60 KCAL/MOL
REMARK 922        TOTAL FREE ENERGY PREDICTED BY IDOCK:   -5.12 KCAL/MOL
REMARK 923 INTER-LIGAND FREE ENERGY PREDICTED BY IDOCK:   -4.76 KCAL/MOL
REMARK 924 INTRA-LIGAND FREE ENERGY PREDICTED BY IDOCK:   -0.36 KCAL/MOL
REMARK 927      BINDING AFFINITY PREDICTED BY RF-SCORE:    0.00 PKD
ROOT
HETATM    1  O   UNL     1      -9.172  16.784  68.063  1.00  0.00    -0.221 OA 
HETATM    2  C   UNL     1     -10.209  15.917  67.987  1.00  0.00    -0.238 C  
HETATM    3  O   UNL     1     -11.367  16.267  68.141  1.00  0.00    -0.337 OA 
HETATM    4  C   UNL     1      -9.749  14.513  67.690  1.00  0.00    -0.215 C  
ENDROOT
BRANCH   4   5
HETATM    5  C   UNL     1     -10.911  13.523  67.581  1.00  0.00    -0.273 C  
BRANCH   5   6
HETATM    6  C   UNL     1     -11.177  12.890  68.951  1.00  0.00    -0.279 C  
BRANCH   6   7
HETATM    7  N   UNL     1     -11.336  11.431  68.950  1.00  0.00    -0.242 NA 
HETATM    8  C   UNL     1     -11.593  10.831  67.632  1.00  0.00     0.000 C  
HETATM    9  C   UNL     1     -10.386  10.867  66.693  1.00  0.00    -0.289 C  
HETATM   10  C   UNL     1      -9.157  10.214  67.333  1.00  0.00    -0.137 C  
HETATM   11  C   UNL     1      -8.903  10.841  68.708  1.00  0.00    -0.163 C  
HETATM   12  C   UNL     1     -10.167  10.776  69.573  1.00  0.00    -0.113 C  
BRANCH  10  13
HETATM   13  O   UNL     1      -9.292   8.806  67.568  1.00  0.00    -0.135 OA 
BRANCH  13  14
HETATM   14  C   UNL     1      -8.450   8.219  68.575  1.00  0.00    -0.126 C  
BRANCH  14  15
HETATM   15  C   UNL     1      -9.264   7.351  69.526  1.00  0.00    -0.146 A  
HETATM   16  C   UNL     1      -8.762   7.064  70.808  1.00  0.00    -0.148 A  
HETATM   17  C   UNL     1      -9.561   6.425  71.757  1.00  0.00    -0.162 A  
HETATM   18  C   UNL     1     -10.561   6.924  69.197  1.00  0.00    -0.245 A  
HETATM   19  C   UNL     1     -11.359   6.281  70.146  1.00  0.00    -0.476 A  
HETATM   20 CL   UNL     1     -11.877   5.348  72.625  1.00  0.00    -0.243 Cl 
HETATM   21  C   UNL     1     -10.863   6.054  71.428  1.00  0.00    -0.270 A  
ENDBRANCH  14  15
BRANCH  14  22
HETATM   22  C   UNL     1      -7.302   7.475  67.894  1.00  0.00    -0.099 A  
HETATM   23  C   UNL     1      -5.319   7.582  66.694  1.00  0.00    -0.024 A  
HETATM   24  C   UNL     1      -6.230   5.440  67.182  1.00  0.00    -0.031 A  
HETATM   25  C   UNL     1      -7.278   6.079  67.837  1.00  0.00    -0.082 A  
HETATM   26  N   UNL     1      -6.321   8.231  67.327  1.00  0.00    -0.056 NA 
HETATM   27  C   UNL     1      -5.229   6.204  66.596  1.00  0.00    -0.009 A  
ENDBRANCH  14  22
ENDBRANCH  13  14
ENDBRANCH  10  13
ENDBRANCH   6   7
ENDBRANCH   5   6
ENDBRANCH   4   5
TORSDOF 7
ENDMDL
MODEL      192
REMARK 921   NORMALIZED FREE ENERGY PREDICTED BY IDOCK:   -2.52 KCAL/MOL
REMARK 922        TOTAL FREE ENERGY PREDICTED BY IDOCK:   -5.01 KCAL/MOL
REMARK 923 INTER-LIGAND FREE ENERGY PREDICTED BY IDOCK:   -4.40 KCAL/MOL
REMARK 924 INTRA-LIGAND FREE ENERGY PREDICTED BY IDOCK:   -0.61 KCAL/MOL
REMARK 927      BINDING AFFINITY PREDICTED BY RF-SCORE:    0.00 PKD
ROOT
HETATM    1  O   UNL     1      -9.374  10.159  62.493  1.00  0.00    -0.284 OA 
HETATM    2  C   UNL     1      -9.965  10.851  63.496  1.00  0.00    -0.363 C  
HETATM    3  O   UNL     1     -10.999  11.478  63.339  1.00  0.00    -0.392 OA 
HETATM    4  C   UNL     1      -9.198  10.733  64.790  1.00  0.00    -0.245 C  
ENDROOT
BRANCH   4   5
HETATM    5  C   UNL     1      -9.864  11.492  65.939  1.00  0.00    -0.262 C  
BRANCH   5   6
HETATM    6  C   UNL     1     -10.560  10.500  66.876  1.00  0.00    -0.243 C  
BRANCH   6   7
HETATM    7  N   UNL     1     -10.163  10.582  68.287  1.00  0.00    -0.157 NA 
HETATM    8  C   UNL     1     -10.936   9.732  69.204  1.00  0.00    -0.175 C  
HETATM    9  C   UNL     1     -10.659   8.237  69.042  1.00  0.00    -0.167 C  
HETATM   10  C   UNL     1      -9.165   7.925  69.175  1.00  0.00    -0.144 C  
HETATM   11  C   UNL     1      -8.368   8.821  68.222  1.00  0.00    -0.126 C  
HETATM   12  C   UNL     1      -8.722  10.296  68.444  1.00  0.00    -0.129 C  
BRANCH  10  13
HETATM   13  O   UNL     1      -8.626   8.173  70.481  1.00  0.00    -0.125 OA 
BRANCH  13  14
HETATM   14  C   UNL     1      -8.701   7.105  71.441  1.00  0.00    -0.124 C  
BRANCH  14  15
HETATM   15  C   UNL     1      -8.545   5.751  70.760  1.00  0.00    -0.129 A  
HETATM   16  C   UNL     1      -7.454   5.526  69.903  1.00  0.00    -0.070 A  
HETATM   17  C   UNL     1      -7.190   4.247  69.410  1.00  0.00    -0.051 A  
HETATM   18  C   UNL     1      -9.403   4.679  71.058  1.00  0.00    -0.209 A  
HETATM   19  C   UNL     1      -9.140   3.400  70.562  1.00  0.00    -0.194 A  
HETATM   20 CL   UNL     1      -7.647   1.595  69.224  1.00  0.00    -0.042 Cl 
HETATM   21  C   UNL     1      -8.024   3.186  69.758  1.00  0.00    -0.045 A  
ENDBRANCH  14  15
BRANCH  14  22
HETATM   22  C   UNL     1      -7.680   7.357  72.550  1.00  0.00    -0.092 A  
HETATM   23  C   UNL     1      -7.057   8.587  74.415  1.00  0.00    -0.147 A  
HETATM   24  C   UNL     1      -5.570   6.908  73.622  1.00  0.00    -0.050 A  
HETATM   25  C   UNL     1      -6.488   6.629  72.613  1.00  0.00    -0.059 A  
HETATM   26  N   UNL     1      -7.969   8.335  73.452  1.00  0.00    -0.292 NA 
HETATM   27  C   UNL     1      -5.857   7.908  74.541  1.00  0.00    -0.085 A  
ENDBRANCH  14  22
ENDBRANCH  13  14
ENDBRANCH  10  13
ENDBRANCH   6   7
ENDBRANCH   5   6
ENDBRANCH   4   5
TORSDOF 7
ENDMDL
MODEL      193
REMARK 921   NORMALIZED FREE ENERGY PREDICTED BY IDOCK:   -2.49 KCAL/MOL
REMARK 922        TOTAL FREE ENERGY PREDICTED BY IDOCK:   -4.97 KCAL/MOL
REMARK 923 INTER-LIGAND FREE ENERGY PREDICTED BY IDOCK:   -4.12 KCAL/MOL
REMARK 924 INTRA-LIGAND FREE ENERGY PREDICTED BY IDOCK:   -0.86 KCAL/MOL
REMARK 927      BINDING AFFINITY PREDICTED BY RF-SCORE:    0.00 PKD
ROOT
HETATM    1  O   UNL     1     -13.328  12.770  72.398  1.00  0.00    -0.521 OA 
HETATM    2  C   UNL     1     -12.818  13.308  71.265  1.00  0.00    -0.312 C  
HETATM    3  O   UNL     1     -12.563  14.496  71.161  1.00  0.00    -0.294 OA 
HETATM    4  C   UNL     1     -12.609  12.268  70.193  1.00  0.00     0.041 C  
ENDROOT
BRANCH   4   5
HETATM    5  C   UNL     1     -12.014  12.856  68.912  1.00  0.00    -0.291 C  
BRANCH   5   6
HETATM    6  C   UNL     1     -10.496  12.648  68.907  1.00  0.00    -0.080 C  
BRANCH   6   7
HETATM    7  N   UNL     1     -10.003  11.637  67.963  1.00  0.00    -0.182 NA 
HETATM    8  C   UNL     1      -8.541  11.481  67.923  1.00  0.00    -0.143 C  
HETATM    9  C   UNL     1      -7.956  10.834  69.179  1.00  0.00    -0.135 C  
HETATM   10  C   UNL     1      -8.617   9.484  69.476  1.00  0.00    -0.169 C  
HETATM   11  C   UNL     1     -10.139   9.657  69.508  1.00  0.00    -0.223 C  
HETATM   12  C   UNL     1     -10.634  10.326  68.221  1.00  0.00    -0.221 C  
BRANCH  10  13
HETATM   13  O   UNL     1      -8.362   8.474  68.491  1.00  0.00    -0.121 OA 
BRANCH  13  14
HETATM   14  C   UNL     1      -8.558   7.104  68.883  1.00  0.00    -0.129 C  
BRANCH  14  15
HETATM   15  C   UNL     1      -8.819   6.223  67.668  1.00  0.00    -0.111 A  
HETATM   16  C   UNL     1      -9.858   5.277  67.706  1.00  0.00    -0.187 A  
HETATM   17  C   UNL     1     -10.232   4.586  66.553  1.00  0.00    -0.224 A  
HETATM   18  C   UNL     1      -8.120   6.411  66.464  1.00  0.00    -0.111 A  
HETATM   19  C   UNL     1      -8.492   5.717  65.311  1.00  0.00    -0.147 A  
HETATM   20 CL   UNL     1     -10.079   4.040  63.915  1.00  0.00    -0.171 Cl 
HETATM   21  C   UNL     1      -9.560   4.824  65.356  1.00  0.00    -0.140 A  
ENDBRANCH  14  15
BRANCH  14  22
HETATM   22  C   UNL     1      -7.366   6.651  69.726  1.00  0.00    -0.086 A  
HETATM   23  C   UNL     1      -5.235   7.096  70.529  1.00  0.00    -0.023 A  
HETATM   24  C   UNL     1      -6.243   5.017  71.093  1.00  0.00    -0.022 A  
HETATM   25  C   UNL     1      -7.359   5.404  70.358  1.00  0.00    -0.070 A  
HETATM   26  N   UNL     1      -6.307   7.502  69.813  1.00  0.00    -0.031 NA 
HETATM   27  C   UNL     1      -5.157   5.877  71.181  1.00  0.00    -0.013 A  
ENDBRANCH  14  22
ENDBRANCH  13  14
ENDBRANCH  10  13
ENDBRANCH   6   7
ENDBRANCH   5   6
ENDBRANCH   4   5
TORSDOF 7
ENDMDL
MODEL      194
REMARK 921   NORMALIZED FREE ENERGY PREDICTED BY IDOCK:   -2.38 KCAL/MOL
REMARK 922        TOTAL FREE ENERGY PREDICTED BY IDOCK:   -4.82 KCAL/MOL
REMARK 923 INTER-LIGAND FREE ENERGY PREDICTED BY IDOCK:   -4.59 KCAL/MOL
REMARK 924 INTRA-LIGAND FREE ENERGY PREDICTED BY IDOCK:   -0.22 KCAL/MOL
REMARK 927      BINDING AFFINITY PREDICTED BY RF-SCORE:    0.00 PKD
ROOT
HETATM    1  O   UNL     1      -5.716  14.996  67.489  1.00  0.00    -0.326 OA 
HETATM    2  C   UNL     1      -6.174  14.442  68.636  1.00  0.00    -0.087 C  
HETATM    3  O   UNL     1      -7.305  14.634  69.050  1.00  0.00    -0.120 OA 
HETATM    4  C   UNL     1      -5.131  13.580  69.302  1.00  0.00    -0.077 C  
ENDROOT
BRANCH   4   5
HETATM    5  C   UNL     1      -5.639  12.931  70.590  1.00  0.00    -0.179 C  
BRANCH   5   6
HETATM    6  C   UNL     1      -5.524  11.407  70.479  1.00  0.00    -0.134 C  
BRANCH   6   7
HETATM    7  N   UNL     1      -6.797  10.678  70.473  1.00  0.00    -0.276 NA 
HETATM    8  C   UNL     1      -7.749  11.091  69.431  1.00  0.00    -0.020 C  
HETATM    9  C   UNL     1      -7.325  10.694  68.016  1.00  0.00    -0.088 C  
HETATM   10  C   UNL     1      -7.058   9.190  67.911  1.00  0.00    -0.079 C  
HETATM   11  C   UNL     1      -6.071   8.768  69.005  1.00  0.00    -0.043 C  
HETATM   12  C   UNL     1      -6.568   9.221  70.383  1.00  0.00    -0.068 C  
BRANCH  10  13
HETATM   13  O   UNL     1      -8.219   8.370  68.100  1.00  0.00    -0.121 OA 
BRANCH  13  14
HETATM   14  C   UNL     1      -9.042   8.115  66.948  1.00  0.00    -0.154 C  
BRANCH  14  15
HETATM   15  C   UNL     1      -9.943   9.306  66.649  1.00  0.00    -0.333 A  
HETATM   16  C   UNL     1     -10.748   9.841  67.669  1.00  0.00    -0.334 A  
HETATM   17  C   UNL     1     -11.444  11.036  67.472  1.00  0.00    -0.266 A  
HETATM   18  C   UNL     1      -9.903   9.960  65.406  1.00  0.00    -0.384 A  
HETATM   19  C   UNL     1     -10.601  11.153  65.208  1.00  0.00    -0.303 A  
HETATM   20 CL   UNL     1     -12.135  13.213  66.036  1.00  0.00    -0.482 Cl 
HETATM   21  C   UNL     1     -11.351  11.696  66.249  1.00  0.00    -0.227 A  
ENDBRANCH  14  15
BRANCH  14  22
HETATM   22  C   UNL     1      -8.148   7.710  65.776  1.00  0.00    -0.126 A  
HETATM   23  C   UNL     1      -6.343   8.211  64.407  1.00  0.00    -0.065 A  
HETATM   24  C   UNL     1      -7.578   6.226  63.967  1.00  0.00    -0.098 A  
HETATM   25  C   UNL     1      -8.398   6.545  65.045  1.00  0.00    -0.076 A  
HETATM   26  N   UNL     1      -7.118   8.544  65.462  1.00  0.00    -0.081 NA 
HETATM   27  C   UNL     1      -6.530   7.075  63.637  1.00  0.00    -0.044 A  
ENDBRANCH  14  22
ENDBRANCH  13  14
ENDBRANCH  10  13
ENDBRANCH   6   7
ENDBRANCH   5   6
ENDBRANCH   4   5
TORSDOF 7
ENDMDL
MODEL      195
REMARK 921   NORMALIZED FREE ENERGY PREDICTED BY IDOCK:   -2.36 KCAL/MOL
REMARK 922        TOTAL FREE ENERGY PREDICTED BY IDOCK:   -4.79 KCAL/MOL
REMARK 923 INTER-LIGAND FREE ENERGY PREDICTED BY IDOCK:   -6.13 KCAL/MOL
REMARK 924 INTRA-LIGAND FREE ENERGY PREDICTED BY IDOCK:    1.34 KCAL/MOL
REMARK 927      BINDING AFFINITY PREDICTED BY RF-SCORE:    0.00 PKD
ROOT
HETATM    1  O   UNL     1     -10.949   2.648  74.037  1.00  0.00    -0.182 OA 
HETATM    2  C   UNL     1     -10.895   3.722  73.213  1.00  0.00    -0.198 C  
HETATM    3  O   UNL     1     -11.541   4.736  73.416  1.00  0.00    -0.323 OA 
HETATM    4  C   UNL     1      -9.951   3.499  72.058  1.00  0.00    -0.227 C  
ENDROOT
BRANCH   4   5
HETATM    5  C   UNL     1      -9.864   4.711  71.129  1.00  0.00    -0.261 C  
BRANCH   5   6
HETATM    6  C   UNL     1     -10.544   5.915  71.788  1.00  0.00    -0.234 C  
BRANCH   6   7
HETATM    7  N   UNL     1     -11.435   6.690  70.916  1.00  0.00    -0.327 NA 
HETATM    8  C   UNL     1     -11.266   8.149  70.988  1.00  0.00    -0.258 C  
HETATM    9  C   UNL     1      -9.957   8.649  70.373  1.00  0.00    -0.212 C  
HETATM   10  C   UNL     1      -9.800   8.176  68.925  1.00  0.00    -0.176 C  
HETATM   11  C   UNL     1      -9.986   6.657  68.860  1.00  0.00    -0.160 C  
HETATM   12  C   UNL     1     -11.312   6.247  69.512  1.00  0.00    -0.404 C  
BRANCH  10  13
HETATM   13  O   UNL     1     -10.767   8.724  68.018  1.00  0.00    -0.190 OA 
BRANCH  13  14
HETATM   14  C   UNL     1     -10.272   9.516  66.924  1.00  0.00    -0.249 C  
BRANCH  14  15
HETATM   15  C   UNL     1     -10.665  10.978  67.091  1.00  0.00    -0.313 A  
HETATM   16  C   UNL     1     -11.353  11.385  68.248  1.00  0.00    -0.354 A  
HETATM   17  C   UNL     1     -11.566  12.739  68.509  1.00  0.00    -0.358 A  
HETATM   18  C   UNL     1     -10.255  11.956  66.170  1.00  0.00    -0.258 A  
HETATM   19  C   UNL     1     -10.472  13.311  66.430  1.00  0.00    -0.286 A  
HETATM   20 CL   UNL     1     -11.289  15.369  67.972  1.00  0.00    -0.340 Cl 
HETATM   21  C   UNL     1     -11.107  13.697  67.608  1.00  0.00    -0.273 A  
ENDBRANCH  14  15
BRANCH  14  22
HETATM   22  C   UNL     1      -8.766   9.296  66.789  1.00  0.00    -0.127 A  
HETATM   23  C   UNL     1      -6.622   9.844  67.486  1.00  0.00    -0.069 A  
HETATM   24  C   UNL     1      -6.868   8.267  65.722  1.00  0.00    -0.063 A  
HETATM   25  C   UNL     1      -8.247   8.419  65.832  1.00  0.00    -0.123 A  
HETATM   26  N   UNL     1      -7.957  10.007  67.621  1.00  0.00    -0.105 NA 
HETATM   27  C   UNL     1      -6.036   8.995  66.563  1.00  0.00    -0.064 A  
ENDBRANCH  14  22
ENDBRANCH  13  14
ENDBRANCH  10  13
ENDBRANCH   6   7
ENDBRANCH   5   6
ENDBRANCH   4   5
TORSDOF 7
ENDMDL
MODEL      196
REMARK 921   NORMALIZED FREE ENERGY PREDICTED BY IDOCK:   -2.35 KCAL/MOL
REMARK 922        TOTAL FREE ENERGY PREDICTED BY IDOCK:   -4.77 KCAL/MOL
REMARK 923 INTER-LIGAND FREE ENERGY PREDICTED BY IDOCK:   -4.74 KCAL/MOL
REMARK 924 INTRA-LIGAND FREE ENERGY PREDICTED BY IDOCK:   -0.03 KCAL/MOL
REMARK 927      BINDING AFFINITY PREDICTED BY RF-SCORE:    0.00 PKD
ROOT
HETATM    1  O   UNL     1     -11.152   3.273  63.490  1.00  0.00    -0.266 OA 
HETATM    2  C   UNL     1      -9.845   3.460  63.788  1.00  0.00    -0.162 C  
HETATM    3  O   UNL     1      -8.998   3.649  62.931  1.00  0.00    -0.093 OA 
HETATM    4  C   UNL     1      -9.593   3.414  65.274  1.00  0.00    -0.116 C  
ENDROOT
BRANCH   4   5
HETATM    5  C   UNL     1      -8.123   3.644  65.629  1.00  0.00    -0.093 C  
BRANCH   5   6
HETATM    6  C   UNL     1      -7.853   5.147  65.755  1.00  0.00    -0.095 C  
BRANCH   6   7
HETATM    7  N   UNL     1      -7.146   5.561  66.972  1.00  0.00    -0.069 NA 
HETATM    8  C   UNL     1      -6.592   6.923  66.942  1.00  0.00    -0.047 C  
HETATM    9  C   UNL     1      -7.656   8.021  66.989  1.00  0.00    -0.096 C  
HETATM   10  C   UNL     1      -8.578   7.859  68.201  1.00  0.00    -0.123 C  
HETATM   11  C   UNL     1      -9.142   6.435  68.227  1.00  0.00    -0.114 C  
HETATM   12  C   UNL     1      -8.009   5.404  68.160  1.00  0.00    -0.095 C  
BRANCH  10  13
HETATM   13  O   UNL     1      -7.926   8.041  69.465  1.00  0.00    -0.110 OA 
BRANCH  13  14
HETATM   14  C   UNL     1      -8.389   9.118  70.299  1.00  0.00    -0.173 C  
BRANCH  14  15
HETATM   15  C   UNL     1      -8.912  10.273  69.453  1.00  0.00    -0.190 A  
HETATM   16  C   UNL     1      -8.011  11.222  68.941  1.00  0.00    -0.104 A  
HETATM   17  C   UNL     1      -8.438  12.182  68.022  1.00  0.00    -0.170 A  
HETATM   18  C   UNL     1     -10.263  10.349  69.075  1.00  0.00    -0.233 A  
HETATM   19  C   UNL     1     -10.690  11.312  68.158  1.00  0.00    -0.244 A  
HETATM   20 CL   UNL     1     -10.277  13.334  66.420  1.00  0.00    -0.285 Cl 
HETATM   21  C   UNL     1      -9.771  12.210  67.619  1.00  0.00    -0.188 A  
ENDBRANCH  14  15
BRANCH  14  22
HETATM   22  C   UNL     1      -9.412   8.573  71.295  1.00  0.00    -0.205 A  
HETATM   23  C   UNL     1     -11.635   8.155  71.811  1.00  0.00    -0.291 A  
HETATM   24  C   UNL     1      -9.980   7.628  73.436  1.00  0.00    -0.373 A  
HETATM   25  C   UNL     1      -9.016   8.089  72.546  1.00  0.00    -0.256 A  
HETATM   26  N   UNL     1     -10.721   8.604  70.923  1.00  0.00    -0.210 NA 
HETATM   27  C   UNL     1     -11.318   7.662  73.065  1.00  0.00    -0.334 A  
ENDBRANCH  14  22
ENDBRANCH  13  14
ENDBRANCH  10  13
ENDBRANCH   6   7
ENDBRANCH   5   6
ENDBRANCH   4   5
TORSDOF 7
ENDMDL
MODEL      197
REMARK 921   NORMALIZED FREE ENERGY PREDICTED BY IDOCK:   -2.32 KCAL/MOL
REMARK 922        TOTAL FREE ENERGY PREDICTED BY IDOCK:   -4.73 KCAL/MOL
REMARK 923 INTER-LIGAND FREE ENERGY PREDICTED BY IDOCK:   -6.53 KCAL/MOL
REMARK 924 INTRA-LIGAND FREE ENERGY PREDICTED BY IDOCK:    1.80 KCAL/MOL
REMARK 927      BINDING AFFINITY PREDICTED BY RF-SCORE:    0.00 PKD
ROOT
HETATM    1  O   UNL     1      -7.683  20.364  66.239  1.00  0.00    -0.226 OA 
HETATM    2  C   UNL     1      -8.207  19.249  66.800  1.00  0.00    -0.285 C  
HETATM    3  O   UNL     1      -7.860  18.842  67.896  1.00  0.00    -0.254 OA 
HETATM    4  C   UNL     1      -9.249  18.609  65.917  1.00  0.00     0.188 C  
ENDROOT
BRANCH   4   5
HETATM    5  C   UNL     1      -9.866  17.359  66.546  1.00  0.00    -0.310 C  
BRANCH   5   6
HETATM    6  C   UNL     1      -8.852  16.210  66.508  1.00  0.00    -0.296 C  
BRANCH   6   7
HETATM    7  N   UNL     1      -9.411  14.886  66.211  1.00  0.00    -0.297 NA 
HETATM    8  C   UNL     1      -8.813  13.773  66.964  1.00  0.00    -0.218 C  
HETATM    9  C   UNL     1      -9.170  13.773  68.451  1.00  0.00    -0.182 C  
HETATM   10  C   UNL     1     -10.686  13.794  68.666  1.00  0.00    -0.256 C  
HETATM   11  C   UNL     1     -11.299  14.952  67.872  1.00  0.00    -0.340 C  
HETATM   12  C   UNL     1     -10.876  14.881  66.400  1.00  0.00    -0.325 C  
BRANCH  10  13
HETATM   13  O   UNL     1     -11.362  12.613  68.212  1.00  0.00    -0.252 OA 
BRANCH  13  14
HETATM   14  C   UNL     1     -11.836  11.697  69.215  1.00  0.00    -0.331 C  
BRANCH  14  15
HETATM   15  C   UNL     1     -10.774  10.657  69.546  1.00  0.00    -0.290 A  
HETATM   16  C   UNL     1      -9.778  10.355  68.601  1.00  0.00    -0.178 A  
HETATM   17  C   UNL     1      -8.695   9.543  68.944  1.00  0.00    -0.133 A  
HETATM   18  C   UNL     1     -10.694  10.073  70.821  1.00  0.00    -0.272 A  
HETATM   19  C   UNL     1      -9.613   9.258  71.163  1.00  0.00    -0.305 A  
HETATM   20 CL   UNL     1      -7.230   8.088  70.680  1.00  0.00    -0.051 Cl 
HETATM   21  C   UNL     1      -8.608   9.014  70.230  1.00  0.00    -0.178 A  
ENDBRANCH  14  15
BRANCH  14  22
HETATM   22  C   UNL     1     -12.319  12.491  70.428  1.00  0.00    -0.232 A  
HETATM   23  C   UNL     1     -12.177  14.422  71.705  1.00  0.00    -0.310 A  
HETATM   24  C   UNL     1     -13.648  12.698  72.426  1.00  0.00    -0.435 A  
HETATM   25  C   UNL     1     -13.255  11.954  71.317  1.00  0.00    -0.068 A  
HETATM   26  N   UNL     1     -11.780  13.727  70.617  1.00  0.00    -0.170 NA 
HETATM   27  C   UNL     1     -13.098  13.957  72.628  1.00  0.00    -0.525 A  
ENDBRANCH  14  22
ENDBRANCH  13  14
ENDBRANCH  10  13
ENDBRANCH   6   7
ENDBRANCH   5   6
ENDBRANCH   4   5
TORSDOF 7
ENDMDL
MODEL      198
REMARK 921   NORMALIZED FREE ENERGY PREDICTED BY IDOCK:   -2.29 KCAL/MOL
REMARK 922        TOTAL FREE ENERGY PREDICTED BY IDOCK:   -4.68 KCAL/MOL
REMARK 923 INTER-LIGAND FREE ENERGY PREDICTED BY IDOCK:   -4.43 KCAL/MOL
REMARK 924 INTRA-LIGAND FREE ENERGY PREDICTED BY IDOCK:   -0.25 KCAL/MOL
REMARK 927      BINDING AFFINITY PREDICTED BY RF-SCORE:    0.00 PKD
ROOT
HETATM    1  O   UNL     1     -13.089  11.212  62.486  1.00  0.00     0.892 OA 
HETATM    2  C   UNL     1     -12.378  11.933  63.384  1.00  0.00    -0.462 C  
HETATM    3  O   UNL     1     -11.162  12.018  63.341  1.00  0.00    -0.413 OA 
HETATM    4  C   UNL     1     -13.268  12.599  64.403  1.00  0.00     0.160 C  
ENDROOT
BRANCH   4   5
HETATM    5  C   UNL     1     -12.482  13.435  65.414  1.00  0.00    -0.543 C  
BRANCH   5   6
HETATM    6  C   UNL     1     -12.034  14.747  64.760  1.00  0.00    -0.404 C  
BRANCH   6   7
HETATM    7  N   UNL     1     -10.638  15.129  65.007  1.00  0.00    -0.416 NA 
HETATM    8  C   UNL     1     -10.453  16.250  65.940  1.00  0.00    -0.345 C  
HETATM    9  C   UNL     1     -10.788  15.904  67.392  1.00  0.00    -0.291 C  
HETATM   10  C   UNL     1      -9.997  14.684  67.876  1.00  0.00    -0.221 C  
HETATM   11  C   UNL     1     -10.191  13.526  66.893  1.00  0.00    -0.256 C  
HETATM   12  C   UNL     1      -9.849  13.967  65.465  1.00  0.00    -0.200 C  
BRANCH  10  13
HETATM   13  O   UNL     1      -8.581  14.894  67.954  1.00  0.00    -0.152 OA 
BRANCH  13  14
HETATM   14  C   UNL     1      -7.876  14.251  69.031  1.00  0.00    -0.045 C  
BRANCH  14  15
HETATM   15  C   UNL     1      -7.204  12.971  68.552  1.00  0.00    -0.104 A  
HETATM   16  C   UNL     1      -7.784  11.727  68.856  1.00  0.00    -0.041 A  
HETATM   17  C   UNL     1      -7.291  10.554  68.282  1.00  0.00    -0.088 A  
HETATM   18  C   UNL     1      -6.078  13.005  67.712  1.00  0.00    -0.151 A  
HETATM   19  C   UNL     1      -5.583  11.830  67.140  1.00  0.00    -0.121 A  
HETATM   20 CL   UNL     1      -5.654   9.181  66.633  1.00  0.00    -0.042 Cl 
HETATM   21  C   UNL     1      -6.205  10.614  67.411  1.00  0.00    -0.057 A  
ENDBRANCH  14  15
BRANCH  14  22
HETATM   22  C   UNL     1      -6.910  15.253  69.663  1.00  0.00    -0.187 A  
HETATM   23  C   UNL     1      -6.053  17.408  69.708  1.00  0.00    -0.228 A  
HETATM   24  C   UNL     1      -5.145  15.801  71.207  1.00  0.00    -0.135 A  
HETATM   25  C   UNL     1      -6.029  14.866  70.678  1.00  0.00    -0.106 A  
HETATM   26  N   UNL     1      -6.927  16.525  69.177  1.00  0.00    -0.216 NA 
HETATM   27  C   UNL     1      -5.154  17.099  70.713  1.00  0.00    -0.257 A  
ENDBRANCH  14  22
ENDBRANCH  13  14
ENDBRANCH  10  13
ENDBRANCH   6   7
ENDBRANCH   5   6
ENDBRANCH   4   5
TORSDOF 7
ENDMDL
MODEL      199
REMARK 921   NORMALIZED FREE ENERGY PREDICTED BY IDOCK:   -2.23 KCAL/MOL
REMARK 922        TOTAL FREE ENERGY PREDICTED BY IDOCK:   -4.60 KCAL/MOL
REMARK 923 INTER-LIGAND FREE ENERGY PREDICTED BY IDOCK:   -5.00 KCAL/MOL
REMARK 924 INTRA-LIGAND FREE ENERGY PREDICTED BY IDOCK:    0.39 KCAL/MOL
REMARK 927      BINDING AFFINITY PREDICTED BY RF-SCORE:    0.00 PKD
ROOT
HETATM    1  O   UNL     1      -8.380  15.136  66.835  1.00  0.00    -0.222 OA 
HETATM    2  C   UNL     1      -9.441  14.295  66.813  1.00  0.00    -0.275 C  
HETATM    3  O   UNL     1     -10.592  14.692  66.887  1.00  0.00    -0.274 OA 
HETATM    4  C   UNL     1      -9.016  12.855  66.682  1.00  0.00    -0.141 C  
ENDROOT
BRANCH   4   5
HETATM    5  C   UNL     1     -10.205  11.893  66.636  1.00  0.00    -0.236 C  
BRANCH   5   6
HETATM    6  C   UNL     1     -10.647  11.553  68.064  1.00  0.00    -0.190 C  
BRANCH   6   7
HETATM    7  N   UNL     1     -10.854  10.126  68.336  1.00  0.00    -0.233 NA 
HETATM    8  C   UNL     1     -10.326   9.212  67.312  1.00  0.00    -0.270 C  
HETATM    9  C   UNL     1      -8.799   9.151  67.268  1.00  0.00    -0.132 C  
HETATM   10  C   UNL     1      -8.211   8.797  68.638  1.00  0.00    -0.117 C  
HETATM   11  C   UNL     1      -8.773   9.750  69.698  1.00  0.00    -0.211 C  
HETATM   12  C   UNL     1     -10.306   9.758  69.657  1.00  0.00    -0.238 C  
BRANCH  10  13
HETATM   13  O   UNL     1      -8.534   7.476  69.094  1.00  0.00    -0.133 OA 
BRANCH  13  14
HETATM   14  C   UNL     1      -8.533   7.248  70.514  1.00  0.00    -0.138 C  
BRANCH  14  15
HETATM   15  C   UNL     1      -9.956   7.126  71.045  1.00  0.00    -0.192 A  
HETATM   16  C   UNL     1     -10.341   7.866  72.176  1.00  0.00    -0.297 A  
HETATM   17  C   UNL     1     -11.678   7.910  72.575  1.00  0.00    -0.423 A  
HETATM   18  C   UNL     1     -10.930   6.378  70.362  1.00  0.00    -0.367 A  
HETATM   19  C   UNL     1     -12.267   6.420  70.763  1.00  0.00    -0.054 A  
HETATM   20 CL   UNL     1     -14.297   7.329  72.291  1.00  0.00    -0.235 Cl 
HETATM   21  C   UNL     1     -12.638   7.203  71.854  1.00  0.00    -0.293 A  
ENDBRANCH  14  15
BRANCH  14  22
HETATM   22  C   UNL     1      -7.655   6.036  70.824  1.00  0.00    -0.093 A  
HETATM   23  C   UNL     1      -6.509   4.784  72.405  1.00  0.00    -0.041 A  
HETATM   24  C   UNL     1      -6.382   4.115  70.127  1.00  0.00    -0.027 A  
HETATM   25  C   UNL     1      -7.204   5.191  69.806  1.00  0.00    -0.060 A  
HETATM   26  N   UNL     1      -7.312   5.834  72.126  1.00  0.00    -0.092 NA 
HETATM   27  C   UNL     1      -6.024   3.906  71.452  1.00  0.00    -0.014 A  
ENDBRANCH  14  22
ENDBRANCH  13  14
ENDBRANCH  10  13
ENDBRANCH   6   7
ENDBRANCH   5   6
ENDBRANCH   4   5
TORSDOF 7
ENDMDL
MODEL      200
REMARK 921   NORMALIZED FREE ENERGY PREDICTED BY IDOCK:   -2.13 KCAL/MOL
REMARK 922        TOTAL FREE ENERGY PREDICTED BY IDOCK:   -4.46 KCAL/MOL
REMARK 923 INTER-LIGAND FREE ENERGY PREDICTED BY IDOCK:   -4.38 KCAL/MOL
REMARK 924 INTRA-LIGAND FREE ENERGY PREDICTED BY IDOCK:   -0.08 KCAL/MOL
REMARK 927      BINDING AFFINITY PREDICTED BY RF-SCORE:    0.00 PKD
ROOT
HETATM    1  O   UNL     1      -8.063   6.799  62.343  1.00  0.00    -0.107 OA 
HETATM    2  C   UNL     1      -7.805   6.411  63.614  1.00  0.00    -0.110 C  
HETATM    3  O   UNL     1      -7.186   7.110  64.399  1.00  0.00    -0.058 OA 
HETATM    4  C   UNL     1      -8.378   5.049  63.915  1.00  0.00    -0.132 C  
ENDROOT
BRANCH   4   5
HETATM    5  C   UNL     1      -8.112   4.605  65.355  1.00  0.00    -0.107 C  
BRANCH   5   6
HETATM    6  C   UNL     1      -9.266   3.723  65.843  1.00  0.00    -0.159 C  
BRANCH   6   7
HETATM    7  N   UNL     1      -9.813   4.073  67.159  1.00  0.00    -0.168 NA 
HETATM    8  C   UNL     1      -8.840   4.065  68.262  1.00  0.00    -0.108 C  
HETATM    9  C   UNL     1      -7.824   5.207  68.196  1.00  0.00    -0.087 C  
HETATM   10  C   UNL     1      -8.517   6.571  68.121  1.00  0.00    -0.116 C  
HETATM   11  C   UNL     1      -9.534   6.566  66.974  1.00  0.00    -0.161 C  
HETATM   12  C   UNL     1     -10.497   5.381  67.113  1.00  0.00    -0.235 C  
BRANCH  10  13
HETATM   13  O   UNL     1      -9.261   6.920  69.297  1.00  0.00    -0.140 OA 
BRANCH  13  14
HETATM   14  C   UNL     1      -8.808   8.058  70.051  1.00  0.00    -0.143 C  
BRANCH  14  15
HETATM   15  C   UNL     1      -9.265   9.357  69.401  1.00  0.00    -0.167 A  
HETATM   16  C   UNL     1      -8.325  10.368  69.134  1.00  0.00    -0.160 A  
HETATM   17  C   UNL     1      -8.681  11.489  68.382  1.00  0.00    -0.160 A  
HETATM   18  C   UNL     1     -10.585   9.527  68.953  1.00  0.00    -0.239 A  
HETATM   19  C   UNL     1     -10.942  10.650  68.203  1.00  0.00    -0.321 A  
HETATM   20 CL   UNL     1     -10.399  12.950  66.900  1.00  0.00    -0.242 Cl 
HETATM   21  C   UNL     1      -9.983  11.614  67.903  1.00  0.00    -0.182 A  
ENDBRANCH  14  15
BRANCH  14  22
HETATM   22  C   UNL     1      -9.260   7.905  71.503  1.00  0.00    -0.136 A  
HETATM   23  C   UNL     1      -8.715   7.980  73.757  1.00  0.00    -0.265 A  
HETATM   24  C   UNL     1     -10.928   7.354  73.151  1.00  0.00    -0.408 A  
HETATM   25  C   UNL     1     -10.564   7.510  71.817  1.00  0.00    -0.237 A  
HETATM   26  N   UNL     1      -8.333   8.145  72.472  1.00  0.00    -0.157 NA 
HETATM   27  C   UNL     1      -9.987   7.591  74.143  1.00  0.00     0.128 A  
ENDBRANCH  14  22
ENDBRANCH  13  14
ENDBRANCH  10  13
ENDBRANCH   6   7
ENDBRANCH   5   6
ENDBRANCH   4   5
TORSDOF 7
ENDMDL
MODEL      201
REMARK 921   NORMALIZED FREE ENERGY PREDICTED BY IDOCK:   -2.10 KCAL/MOL
REMARK 922        TOTAL FREE ENERGY PREDICTED BY IDOCK:   -4.43 KCAL/MOL
REMARK 923 INTER-LIGAND FREE ENERGY PREDICTED BY IDOCK:   -4.56 KCAL/MOL
REMARK 924 INTRA-LIGAND FREE ENERGY PREDICTED BY IDOCK:    0.14 KCAL/MOL
REMARK 927      BINDING AFFINITY PREDICTED BY RF-SCORE:    0.00 PKD
ROOT
HETATM    1  O   UNL     1      -9.619   3.094  71.548  1.00  0.00    -0.138 OA 
HETATM    2  C   UNL     1      -9.902   4.277  70.954  1.00  0.00    -0.189 C  
HETATM    3  O   UNL     1      -9.797   4.447  69.751  1.00  0.00    -0.210 OA 
HETATM    4  C   UNL     1     -10.355   5.314  71.950  1.00  0.00    -0.275 C  
ENDROOT
BRANCH   4   5
HETATM    5  C   UNL     1     -10.698   6.652  71.292  1.00  0.00    -0.269 C  
BRANCH   5   6
HETATM    6  C   UNL     1      -9.466   7.563  71.304  1.00  0.00    -0.150 C  
BRANCH   6   7
HETATM    7  N   UNL     1      -9.747   9.003  71.266  1.00  0.00    -0.289 NA 
HETATM    8  C   UNL     1      -8.628   9.846  70.818  1.00  0.00     0.580 C  
HETATM    9  C   UNL     1      -8.305   9.702  69.330  1.00  0.00    -0.145 C  
HETATM   10  C   UNL     1      -9.538   9.964  68.460  1.00  0.00    -0.153 C  
HETATM   11  C   UNL     1     -10.699   9.086  68.939  1.00  0.00    -0.149 C  
HETATM   12  C   UNL     1     -10.939   9.284  70.441  1.00  0.00    -0.255 C  
BRANCH  10  13
HETATM   13  O   UNL     1     -10.022  11.312  68.515  1.00  0.00    -0.190 OA 
BRANCH  13  14
HETATM   14  C   UNL     1      -9.343  12.292  67.711  1.00  0.00    -0.194 C  
BRANCH  14  15
HETATM   15  C   UNL     1      -9.021  11.734  66.331  1.00  0.00    -0.201 A  
HETATM   16  C   UNL     1      -7.955  10.830  66.179  1.00  0.00    -0.157 A  
HETATM   17  C   UNL     1      -7.751  10.169  64.966  1.00  0.00    -0.141 A  
HETATM   18  C   UNL     1      -9.836  12.010  65.222  1.00  0.00    -0.236 A  
HETATM   19  C   UNL     1      -9.630  11.352  64.007  1.00  0.00    -0.224 A  
HETATM   20 CL   UNL     1      -8.408   9.539  62.426  1.00  0.00    -0.147 Cl 
HETATM   21  C   UNL     1      -8.603  10.419  63.892  1.00  0.00    -0.176 A  
ENDBRANCH  14  15
BRANCH  14  22
HETATM   22  C   UNL     1     -10.175  13.574  67.678  1.00  0.00    -0.239 A  
HETATM   23  C   UNL     1     -11.879  14.845  68.607  1.00  0.00    -0.300 A  
HETATM   24  C   UNL     1     -10.787  15.670  66.661  1.00  0.00    -0.266 A  
HETATM   25  C   UNL     1      -9.990  14.529  66.674  1.00  0.00    -0.276 A  
HETATM   26  N   UNL     1     -11.116  13.730  68.649  1.00  0.00    -0.256 NA 
HETATM   27  C   UNL     1     -11.753  15.833  67.645  1.00  0.00     0.082 A  
ENDBRANCH  14  22
ENDBRANCH  13  14
ENDBRANCH  10  13
ENDBRANCH   6   7
ENDBRANCH   5   6
ENDBRANCH   4   5
TORSDOF 7
ENDMDL
MODEL      202
REMARK 921   NORMALIZED FREE ENERGY PREDICTED BY IDOCK:   -1.98 KCAL/MOL
REMARK 922        TOTAL FREE ENERGY PREDICTED BY IDOCK:   -4.25 KCAL/MOL
REMARK 923 INTER-LIGAND FREE ENERGY PREDICTED BY IDOCK:   -3.97 KCAL/MOL
REMARK 924 INTRA-LIGAND FREE ENERGY PREDICTED BY IDOCK:   -0.28 KCAL/MOL
REMARK 927      BINDING AFFINITY PREDICTED BY RF-SCORE:    0.00 PKD
ROOT
HETATM    1  O   UNL     1     -10.976  14.576  67.794  1.00  0.00    -0.263 OA 
HETATM    2  C   UNL     1     -10.140  13.608  67.348  1.00  0.00    -0.241 C  
HETATM    3  O   UNL     1     -10.508  12.719  66.600  1.00  0.00    -0.253 OA 
HETATM    4  C   UNL     1      -8.740  13.784  67.880  1.00  0.00    -0.183 C  
ENDROOT
BRANCH   4   5
HETATM    5  C   UNL     1      -7.778  12.709  67.370  1.00  0.00    -0.161 C  
BRANCH   5   6
HETATM    6  C   UNL     1      -6.954  12.159  68.540  1.00  0.00    -0.091 C  
BRANCH   6   7
HETATM    7  N   UNL     1      -7.451  10.910  69.127  1.00  0.00    -0.124 NA 
HETATM    8  C   UNL     1      -8.703  10.400  68.546  1.00  0.00    -0.135 C  
HETATM    9  C   UNL     1      -8.547   9.863  67.122  1.00  0.00    -0.125 C  
HETATM   10  C   UNL     1      -7.459   8.788  67.043  1.00  0.00    -0.091 C  
HETATM   11  C   UNL     1      -6.163   9.325  67.658  1.00  0.00    -0.058 C  
HETATM   12  C   UNL     1      -6.417   9.857  69.074  1.00  0.00    -0.048 C  
BRANCH  10  13
HETATM   13  O   UNL     1      -7.763   7.588  67.768  1.00  0.00    -0.110 OA 
BRANCH  13  14
HETATM   14  C   UNL     1      -9.110   7.090  67.687  1.00  0.00    -0.122 C  
BRANCH  14  15
HETATM   15  C   UNL     1      -9.279   6.173  66.483  1.00  0.00    -0.161 A  
HETATM   16  C   UNL     1     -10.334   5.244  66.459  1.00  0.00    -0.332 A  
HETATM   17  C   UNL     1     -10.617   4.520  65.300  1.00  0.00    -0.164 A  
HETATM   18  C   UNL     1      -8.474   6.310  65.340  1.00  0.00    -0.131 A  
HETATM   19  C   UNL     1      -8.755   5.583  64.181  1.00  0.00     0.083 A  
HETATM   20 CL   UNL     1     -10.243   3.882  62.705  1.00  0.00    -0.175 Cl 
HETATM   21  C   UNL     1      -9.838   4.707  64.160  1.00  0.00     0.221 A  
ENDBRANCH  14  15
BRANCH  14  22
HETATM   22  C   UNL     1      -9.480   6.434  69.017  1.00  0.00    -0.129 A  
HETATM   23  C   UNL     1      -8.800   5.227  70.877  1.00  0.00    -0.136 A  
HETATM   24  C   UNL     1     -11.102   5.794  70.678  1.00  0.00    -0.272 A  
HETATM   25  C   UNL     1     -10.801   6.427  69.476  1.00  0.00    -0.381 A  
HETATM   26  N   UNL     1      -8.476   5.838  69.717  1.00  0.00    -0.121 NA 
HETATM   27  C   UNL     1     -10.084   5.179  71.395  1.00  0.00    -0.265 A  
ENDBRANCH  14  22
ENDBRANCH  13  14
ENDBRANCH  10  13
ENDBRANCH   6   7
ENDBRANCH   5   6
ENDBRANCH   4   5
TORSDOF 7
ENDMDL
MODEL      203
REMARK 921   NORMALIZED FREE ENERGY PREDICTED BY IDOCK:   -1.76 KCAL/MOL
REMARK 922        TOTAL FREE ENERGY PREDICTED BY IDOCK:   -3.94 KCAL/MOL
REMARK 923 INTER-LIGAND FREE ENERGY PREDICTED BY IDOCK:   -4.86 KCAL/MOL
REMARK 924 INTRA-LIGAND FREE ENERGY PREDICTED BY IDOCK:    0.93 KCAL/MOL
REMARK 927      BINDING AFFINITY PREDICTED BY RF-SCORE:    0.00 PKD
ROOT
HETATM    1  O   UNL     1     -10.150  12.697  66.709  1.00  0.00    -0.230 OA 
HETATM    2  C   UNL     1      -9.081  11.873  66.810  1.00  0.00    -0.197 C  
HETATM    3  O   UNL     1      -8.707  11.170  65.887  1.00  0.00    -0.183 OA 
HETATM    4  C   UNL     1      -8.436  11.951  68.171  1.00  0.00    -0.163 C  
ENDROOT
BRANCH   4   5
HETATM    5  C   UNL     1      -7.213  11.040  68.295  1.00  0.00    -0.085 C  
BRANCH   5   6
HETATM    6  C   UNL     1      -6.779  10.959  69.762  1.00  0.00    -0.144 C  
BRANCH   6   7
HETATM    7  N   UNL     1      -7.629  10.131  70.626  1.00  0.00    -0.143 NA 
HETATM    8  C   UNL     1      -8.850   9.614  69.990  1.00  0.00    -0.232 C  
HETATM    9  C   UNL     1      -8.586   8.536  68.936  1.00  0.00    -0.127 C  
HETATM   10  C   UNL     1      -7.765   7.378  69.511  1.00  0.00    -0.108 C  
HETATM   11  C   UNL     1      -6.500   7.928  70.178  1.00  0.00    -0.037 C  
HETATM   12  C   UNL     1      -6.859   9.011  71.203  1.00  0.00    -0.092 C  
BRANCH  10  13
HETATM   13  O   UNL     1      -8.441   6.623  70.526  1.00  0.00    -0.134 OA 
BRANCH  13  14
HETATM   14  C   UNL     1      -9.739   6.093  70.202  1.00  0.00    -0.163 C  
BRANCH  14  15
HETATM   15  C   UNL     1      -9.757   5.529  68.787  1.00  0.00    -0.190 A  
HETATM   16  C   UNL     1      -8.956   4.418  68.471  1.00  0.00    -0.151 A  
HETATM   17  C   UNL     1      -9.087   3.774  67.240  1.00  0.00    -0.181 A  
HETATM   18  C   UNL     1     -10.644   6.021  67.815  1.00  0.00    -0.337 A  
HETATM   19  C   UNL     1     -10.772   5.379  66.581  1.00  0.00    -0.309 A  
HETATM   20 CL   UNL     1     -10.234   3.400  64.827  1.00  0.00    -0.044 Cl 
HETATM   21  C   UNL     1     -10.009   4.246  66.308  1.00  0.00    -0.211 A  
ENDBRANCH  14  15
BRANCH  14  22
HETATM   22  C   UNL     1     -10.146   5.082  71.272  1.00  0.00    -0.206 A  
HETATM   23  C   UNL     1     -10.101   2.892  72.036  1.00  0.00    -0.114 A  
HETATM   24  C   UNL     1     -11.322   4.500  73.292  1.00  0.00    -0.364 A  
HETATM   25  C   UNL     1     -10.948   5.458  72.354  1.00  0.00    -0.298 A  
HETATM   26  N   UNL     1      -9.717   3.799  71.112  1.00  0.00    -0.179 NA 
HETATM   27  C   UNL     1     -10.892   3.189  73.132  1.00  0.00    -0.242 A  
ENDBRANCH  14  22
ENDBRANCH  13  14
ENDBRANCH  10  13
ENDBRANCH   6   7
ENDBRANCH   5   6
ENDBRANCH   4   5
TORSDOF 7
ENDMDL
MODEL      204
REMARK 921   NORMALIZED FREE ENERGY PREDICTED BY IDOCK:   -1.48 KCAL/MOL
REMARK 922        TOTAL FREE ENERGY PREDICTED BY IDOCK:   -3.55 KCAL/MOL
REMARK 923 INTER-LIGAND FREE ENERGY PREDICTED BY IDOCK:   -5.04 KCAL/MOL
REMARK 924 INTRA-LIGAND FREE ENERGY PREDICTED BY IDOCK:    1.49 KCAL/MOL
REMARK 927      BINDING AFFINITY PREDICTED BY RF-SCORE:    0.00 PKD
ROOT
HETATM    1  O   UNL     1     -10.879   5.107  70.192  1.00  0.00    -0.173 OA 
HETATM    2  C   UNL     1     -11.060   6.442  70.053  1.00  0.00    -0.379 C  
HETATM    3  O   UNL     1     -10.902   7.017  68.989  1.00  0.00    -0.222 OA 
HETATM    4  C   UNL     1     -11.478   7.092  71.348  1.00  0.00    -0.312 C  
ENDROOT
BRANCH   4   5
HETATM    5  C   UNL     1     -11.706   8.598  71.203  1.00  0.00    -0.334 C  
BRANCH   5   6
HETATM    6  C   UNL     1     -10.377   9.339  71.378  1.00  0.00    -0.321 C  
BRANCH   6   7
HETATM    7  N   UNL     1     -10.269  10.616  70.663  1.00  0.00     0.780 NA 
HETATM    8  C   UNL     1      -9.297  10.634  69.560  1.00  0.00     0.019 C  
HETATM    9  C   UNL     1      -9.723   9.803  68.349  1.00  0.00    -0.162 C  
HETATM   10  C   UNL     1     -11.103  10.225  67.836  1.00  0.00    -0.276 C  
HETATM   11  C   UNL     1     -12.106  10.209  68.994  1.00  0.00     0.410 C  
HETATM   12  C   UNL     1     -11.590  11.052  70.166  1.00  0.00    -0.334 C  
BRANCH  10  13
HETATM   13  O   UNL     1     -11.151  11.554  67.299  1.00  0.00    -0.260 OA 
BRANCH  13  14
HETATM   14  C   UNL     1      -9.898  12.187  66.988  1.00  0.00    -0.203 C  
BRANCH  14  15
HETATM   15  C   UNL     1      -9.059  11.309  66.069  1.00  0.00    -0.221 A  
HETATM   16  C   UNL     1      -7.713  11.057  66.387  1.00  0.00    -0.146 A  
HETATM   17  C   UNL     1      -6.976  10.118  65.663  1.00  0.00    -0.125 A  
HETATM   18  C   UNL     1      -9.629  10.648  64.968  1.00  0.00    -0.319 A  
HETATM   19  C   UNL     1      -8.890   9.711  64.242  1.00  0.00    -0.260 A  
HETATM   20 CL   UNL     1      -6.695   8.214  63.773  1.00  0.00    -0.074 Cl 
HETATM   21  C   UNL     1      -7.574   9.435  64.607  1.00  0.00    -0.109 A  
ENDBRANCH  14  15
BRANCH  14  22
HETATM   22  C   UNL     1     -10.169  13.582  66.427  1.00  0.00    -0.291 A  
HETATM   23  C   UNL     1     -11.399  14.926  64.990  1.00  0.00    -0.398 A  
HETATM   24  C   UNL     1      -9.658  15.930  66.261  1.00  0.00    -0.345 A  
HETATM   25  C   UNL     1      -9.397  14.681  66.817  1.00  0.00    -0.275 A  
HETATM   26  N   UNL     1     -11.174  13.702  65.516  1.00  0.00    -0.292 NA 
HETATM   27  C   UNL     1     -10.677  16.058  65.327  1.00  0.00    -0.417 A  
ENDBRANCH  14  22
ENDBRANCH  13  14
ENDBRANCH  10  13
ENDBRANCH   6   7
ENDBRANCH   5   6
ENDBRANCH   4   5
TORSDOF 7
ENDMDL
MODEL      205
REMARK 921   NORMALIZED FREE ENERGY PREDICTED BY IDOCK:   -1.33 KCAL/MOL
REMARK 922        TOTAL FREE ENERGY PREDICTED BY IDOCK:   -3.33 KCAL/MOL
REMARK 923 INTER-LIGAND FREE ENERGY PREDICTED BY IDOCK:   -5.67 KCAL/MOL
REMARK 924 INTRA-LIGAND FREE ENERGY PREDICTED BY IDOCK:    2.34 KCAL/MOL
REMARK 927      BINDING AFFINITY PREDICTED BY RF-SCORE:    0.00 PKD
ROOT
HETATM    1  O   UNL     1      -8.729   1.973  70.421  1.00  0.00    -0.054 OA 
HETATM    2  C   UNL     1      -8.407   2.608  69.269  1.00  0.00    -0.059 C  
HETATM    3  O   UNL     1      -8.052   2.008  68.268  1.00  0.00    -0.057 OA 
HETATM    4  C   UNL     1      -8.550   4.103  69.391  1.00  0.00    -0.109 C  
ENDROOT
BRANCH   4   5
HETATM    5  C   UNL     1      -8.209   4.835  68.091  1.00  0.00    -0.088 C  
BRANCH   5   6
HETATM    6  C   UNL     1      -6.863   5.551  68.242  1.00  0.00    -0.060 C  
BRANCH   6   7
HETATM    7  N   UNL     1      -6.771   6.863  67.591  1.00  0.00    -0.065 NA 
HETATM    8  C   UNL     1      -7.989   7.301  66.893  1.00  0.00    -0.112 C  
HETATM    9  C   UNL     1      -9.141   7.663  67.832  1.00  0.00    -0.134 C  
HETATM   10  C   UNL     1      -8.718   8.719  68.858  1.00  0.00    -0.134 C  
HETATM   11  C   UNL     1      -7.445   8.257  69.574  1.00  0.00    -0.086 C  
HETATM   12  C   UNL     1      -6.354   7.900  68.557  1.00  0.00    -0.048 C  
BRANCH  10  13
HETATM   13  O   UNL     1      -8.402   9.998  68.291  1.00  0.00    -0.108 OA 
BRANCH  13  14
HETATM   14  C   UNL     1      -9.347  11.063  68.494  1.00  0.00    -0.188 C  
BRANCH  14  15
HETATM   15  C   UNL     1      -9.982  11.485  67.175  1.00  0.00    -0.222 A  
HETATM   16  C   UNL     1      -9.978  10.595  66.086  1.00  0.00    -0.283 A  
HETATM   17  C   UNL     1     -10.705  10.883  64.930  1.00  0.00    -0.240 A  
HETATM   18  C   UNL     1     -10.676  12.700  67.052  1.00  0.00    -0.268 A  
HETATM   19  C   UNL     1     -11.400  12.990  65.894  1.00  0.00    -0.344 A  
HETATM   20 CL   UNL     1     -12.396  12.386  63.460  1.00  0.00    -0.642 Cl 
HETATM   21  C   UNL     1     -11.428  12.071  64.847  1.00  0.00    -0.294 A  
ENDBRANCH  14  15
BRANCH  14  22
HETATM   22  C   UNL     1     -10.361  10.635  69.555  1.00  0.00    -0.182 A  
HETATM   23  C   UNL     1     -11.002   9.088  71.160  1.00  0.00    -0.301 A  
HETATM   24  C   UNL     1     -12.435  10.939  70.740  1.00  0.00    -0.489 A  
HETATM   25  C   UNL     1     -11.523  11.378  69.785  1.00  0.00    -0.376 A  
HETATM   26  N   UNL     1     -10.095   9.491  70.244  1.00  0.00    -0.245 NA 
HETATM   27  C   UNL     1     -12.173   9.770  71.442  1.00  0.00    -0.486 A  
ENDBRANCH  14  22
ENDBRANCH  13  14
ENDBRANCH  10  13
ENDBRANCH   6   7
ENDBRANCH   5   6
ENDBRANCH   4   5
TORSDOF 7
ENDMDL
MODEL      206
REMARK 921   NORMALIZED FREE ENERGY PREDICTED BY IDOCK:   -1.20 KCAL/MOL
REMARK 922        TOTAL FREE ENERGY PREDICTED BY IDOCK:   -3.15 KCAL/MOL
REMARK 923 INTER-LIGAND FREE ENERGY PREDICTED BY IDOCK:   -3.52 KCAL/MOL
REMARK 924 INTRA-LIGAND FREE ENERGY PREDICTED BY IDOCK:    0.37 KCAL/MOL
REMARK 927      BINDING AFFINITY PREDICTED BY RF-SCORE:    0.00 PKD
ROOT
HETATM    1  O   UNL     1      -7.916   6.713  62.456  1.00  0.00    -0.099 OA 
HETATM    2  C   UNL     1      -7.413   6.205  63.605  1.00  0.00    -0.075 C  
HETATM    3  O   UNL     1      -7.010   6.913  64.513  1.00  0.00    -0.051 OA 
HETATM    4  C   UNL     1      -7.428   4.697  63.610  1.00  0.00    -0.055 C  
ENDROOT
BRANCH   4   5
HETATM    5  C   UNL     1      -6.880   4.107  64.911  1.00  0.00    -0.049 C  
BRANCH   5   6
HETATM    6  C   UNL     1      -7.456   2.703  65.121  1.00  0.00    -0.071 C  
BRANCH   6   7
HETATM    7  N   UNL     1      -8.313   2.544  66.301  1.00  0.00    -0.089 NA 
HETATM    8  C   UNL     1      -7.598   2.383  67.576  1.00  0.00    -0.060 C  
HETATM    9  C   UNL     1      -6.895   3.655  68.053  1.00  0.00    -0.050 C  
HETATM   10  C   UNL     1      -7.869   4.834  68.146  1.00  0.00    -0.082 C  
HETATM   11  C   UNL     1      -8.614   4.987  66.816  1.00  0.00    -0.109 C  
HETATM   12  C   UNL     1      -9.271   3.663  66.410  1.00  0.00    -0.167 C  
BRANCH  10  13
HETATM   13  O   UNL     1      -8.887   4.680  69.145  1.00  0.00    -0.089 OA 
BRANCH  13  14
HETATM   14  C   UNL     1      -8.797   5.513  70.314  1.00  0.00    -0.130 C  
BRANCH  14  15
HETATM   15  C   UNL     1      -9.232   6.939  69.999  1.00  0.00    -0.155 A  
HETATM   16  C   UNL     1      -8.355   8.007  70.260  1.00  0.00    -0.125 A  
HETATM   17  C   UNL     1      -8.656   9.296  69.819  1.00  0.00    -0.164 A  
HETATM   18  C   UNL     1     -10.446   7.206  69.344  1.00  0.00    -0.232 A  
HETATM   19  C   UNL     1     -10.747   8.497  68.905  1.00  0.00    -0.100 A  
HETATM   20 CL   UNL     1     -10.169  11.102  68.504  1.00  0.00    -0.197 Cl 
HETATM   21  C   UNL     1      -9.842   9.531  69.126  1.00  0.00    -0.176 A  
ENDBRANCH  14  15
BRANCH  14  22
HETATM   22  C   UNL     1      -9.587   4.866  71.450  1.00  0.00    -0.166 A  
HETATM   23  C   UNL     1      -9.768   3.147  72.998  1.00  0.00    -0.106 A  
HETATM   24  C   UNL     1     -11.515   4.757  72.889  1.00  0.00    -0.222 A  
HETATM   25  C   UNL     1     -10.812   5.393  71.870  1.00  0.00    -0.253 A  
HETATM   26  N   UNL     1      -9.059   3.745  72.015  1.00  0.00    -0.112 NA 
HETATM   27  C   UNL     1     -10.986   3.610  73.465  1.00  0.00    -0.333 A  
ENDBRANCH  14  22
ENDBRANCH  13  14
ENDBRANCH  10  13
ENDBRANCH   6   7
ENDBRANCH   5   6
ENDBRANCH   4   5
TORSDOF 7
ENDMDL
MODEL      207
REMARK 921   NORMALIZED FREE ENERGY PREDICTED BY IDOCK:   -1.19 KCAL/MOL
REMARK 922        TOTAL FREE ENERGY PREDICTED BY IDOCK:   -3.14 KCAL/MOL
REMARK 923 INTER-LIGAND FREE ENERGY PREDICTED BY IDOCK:   -4.73 KCAL/MOL
REMARK 924 INTRA-LIGAND FREE ENERGY PREDICTED BY IDOCK:    1.59 KCAL/MOL
REMARK 927      BINDING AFFINITY PREDICTED BY RF-SCORE:    0.00 PKD
ROOT
HETATM    1  O   UNL     1     -13.032  13.358  62.778  1.00  0.00    -0.050 OA 
HETATM    2  C   UNL     1     -12.589  12.635  63.834  1.00  0.00    -0.337 C  
HETATM    3  O   UNL     1     -13.260  11.761  64.357  1.00  0.00    -0.368 OA 
HETATM    4  C   UNL     1     -11.199  13.042  64.251  1.00  0.00    -0.411 C  
ENDROOT
BRANCH   4   5
HETATM    5  C   UNL     1     -10.675  12.221  65.431  1.00  0.00    -0.320 C  
BRANCH   5   6
HETATM    6  C   UNL     1     -11.250  12.776  66.739  1.00  0.00    -0.295 C  
BRANCH   6   7
HETATM    7  N   UNL     1     -10.735  12.156  67.966  1.00  0.00    -0.206 NA 
HETATM    8  C   UNL     1     -11.195  10.781  68.212  1.00  0.00    -0.297 C  
HETATM    9  C   UNL     1     -10.604   9.752  67.247  1.00  0.00    -0.320 C  
HETATM   10  C   UNL     1      -9.073   9.798  67.244  1.00  0.00    -0.134 C  
HETATM   11  C   UNL     1      -8.605  11.235  66.995  1.00  0.00    -0.148 C  
HETATM   12  C   UNL     1      -9.258  12.196  67.995  1.00  0.00    -0.194 C  
BRANCH  10  13
HETATM   13  O   UNL     1      -8.470   9.403  68.484  1.00  0.00    -0.117 OA 
BRANCH  13  14
HETATM   14  C   UNL     1      -8.835   8.117  69.017  1.00  0.00    -0.144 C  
BRANCH  14  15
HETATM   15  C   UNL     1      -8.761   7.042  67.940  1.00  0.00    -0.125 A  
HETATM   16  C   UNL     1      -9.302   5.769  68.191  1.00  0.00    -0.114 A  
HETATM   17  C   UNL     1      -9.408   4.828  67.166  1.00  0.00    -0.147 A  
HETATM   18  C   UNL     1      -8.267   7.326  66.656  1.00  0.00    -0.118 A  
HETATM   19  C   UNL     1      -8.369   6.382  65.632  1.00  0.00    -0.147 A  
HETATM   20 CL   UNL     1      -9.170   4.019  64.603  1.00  0.00    -0.143 Cl 
HETATM   21  C   UNL     1      -8.958   5.146  65.886  1.00  0.00    -0.145 A  
ENDBRANCH  14  15
BRANCH  14  22
HETATM   22  C   UNL     1      -7.971   7.821  70.242  1.00  0.00    -0.100 A  
HETATM   23  C   UNL     1      -7.674   6.616  72.202  1.00  0.00    -0.096 A  
HETATM   24  C   UNL     1      -6.045   8.249  71.623  1.00  0.00    -0.042 A  
HETATM   25  C   UNL     1      -6.789   8.529  70.481  1.00  0.00    -0.039 A  
HETATM   26  N   UNL     1      -8.415   6.861  71.099  1.00  0.00    -0.123 NA 
HETATM   27  C   UNL     1      -6.495   7.275  72.505  1.00  0.00    -0.051 A  
ENDBRANCH  14  22
ENDBRANCH  13  14
ENDBRANCH  10  13
ENDBRANCH   6   7
ENDBRANCH   5   6
ENDBRANCH   4   5
TORSDOF 7
ENDMDL
MODEL      208
REMARK 921   NORMALIZED FREE ENERGY PREDICTED BY IDOCK:   -1.07 KCAL/MOL
REMARK 922        TOTAL FREE ENERGY PREDICTED BY IDOCK:   -2.97 KCAL/MOL
REMARK 923 INTER-LIGAND FREE ENERGY PREDICTED BY IDOCK:   -3.13 KCAL/MOL
REMARK 924 INTRA-LIGAND FREE ENERGY PREDICTED BY IDOCK:    0.16 KCAL/MOL
REMARK 927      BINDING AFFINITY PREDICTED BY RF-SCORE:    0.00 PKD
ROOT
HETATM    1  O   UNL     1      -9.126   6.772  74.535  1.00  0.00    -0.181 OA 
HETATM    2  C   UNL     1      -8.173   6.880  73.579  1.00  0.00    -0.105 C  
HETATM    3  O   UNL     1      -7.141   6.230  73.607  1.00  0.00    -0.082 OA 
HETATM    4  C   UNL     1      -8.556   7.873  72.511  1.00  0.00    -0.205 C  
ENDROOT
BRANCH   4   5
HETATM    5  C   UNL     1      -7.498   7.992  71.412  1.00  0.00    -0.071 C  
BRANCH   5   6
HETATM    6  C   UNL     1      -7.371   9.456  70.977  1.00  0.00    -0.024 C  
BRANCH   6   7
HETATM    7  N   UNL     1      -6.495   9.697  69.825  1.00  0.00    -0.045 NA 
HETATM    8  C   UNL     1      -5.835   8.500  69.281  1.00  0.00    -0.038 C  
HETATM    9  C   UNL     1      -6.788   7.542  68.566  1.00  0.00    -0.066 C  
HETATM   10  C   UNL     1      -7.575   8.253  67.460  1.00  0.00    -0.098 C  
HETATM   11  C   UNL     1      -8.251   9.501  68.035  1.00  0.00    -0.114 C  
HETATM   12  C   UNL     1      -7.225  10.392  68.746  1.00  0.00    -0.085 C  
BRANCH  10  13
HETATM   13  O   UNL     1      -6.768   8.717  66.369  1.00  0.00    -0.068 OA 
BRANCH  13  14
HETATM   14  C   UNL     1      -7.036   8.166  65.067  1.00  0.00    -0.071 C  
BRANCH  14  15
HETATM   15  C   UNL     1      -7.433   6.699  65.170  1.00  0.00    -0.087 A  
HETATM   16  C   UNL     1      -8.781   6.356  65.375  1.00  0.00    -0.033 A  
HETATM   17  C   UNL     1      -9.196   5.026  65.294  1.00  0.00    -0.125 A  
HETATM   18  C   UNL     1      -6.501   5.672  64.949  1.00  0.00    -0.041 A  
HETATM   19  C   UNL     1      -6.916   4.341  64.872  1.00  0.00    -0.054 A  
HETATM   20 CL   UNL     1      -8.789   2.399  64.835  1.00  0.00    -0.114 Cl 
HETATM   21  C   UNL     1      -8.264   4.026  65.023  1.00  0.00    -0.101 A  
ENDBRANCH  14  15
BRANCH  14  22
HETATM   22  C   UNL     1      -8.076   9.036  64.362  1.00  0.00    -0.146 A  
HETATM   23  C   UNL     1      -9.268   9.510  62.429  1.00  0.00    -0.160 A  
HETATM   24  C   UNL     1      -9.594  10.906  64.327  1.00  0.00    -0.318 A  
HETATM   25  C   UNL     1      -8.673  10.120  65.013  1.00  0.00    -0.190 A  
HETATM   26  N   UNL     1      -8.374   8.726  63.070  1.00  0.00    -0.190 NA 
HETATM   27  C   UNL     1      -9.898  10.598  63.007  1.00  0.00    -0.318 A  
ENDBRANCH  14  22
ENDBRANCH  13  14
ENDBRANCH  10  13
ENDBRANCH   6   7
ENDBRANCH   5   6
ENDBRANCH   4   5
TORSDOF 7
ENDMDL
MODEL      209
REMARK 921   NORMALIZED FREE ENERGY PREDICTED BY IDOCK:   -1.05 KCAL/MOL
REMARK 922        TOTAL FREE ENERGY PREDICTED BY IDOCK:   -2.94 KCAL/MOL
REMARK 923 INTER-LIGAND FREE ENERGY PREDICTED BY IDOCK:   -2.41 KCAL/MOL
REMARK 924 INTRA-LIGAND FREE ENERGY PREDICTED BY IDOCK:   -0.53 KCAL/MOL
REMARK 927      BINDING AFFINITY PREDICTED BY RF-SCORE:    0.00 PKD
ROOT
HETATM    1  O   UNL     1      -8.216   6.063  62.335  1.00  0.00    -0.101 OA 
HETATM    2  C   UNL     1      -7.738   5.903  63.591  1.00  0.00    -0.099 C  
HETATM    3  O   UNL     1      -7.414   6.846  64.294  1.00  0.00    -0.085 OA 
HETATM    4  C   UNL     1      -7.674   4.450  63.989  1.00  0.00    -0.079 C  
ENDROOT
BRANCH   4   5
HETATM    5  C   UNL     1      -7.155   4.252  65.415  1.00  0.00    -0.063 C  
BRANCH   5   6
HETATM    6  C   UNL     1      -7.230   2.768  65.789  1.00  0.00    -0.066 C  
BRANCH   6   7
HETATM    7  N   UNL     1      -8.166   2.439  66.871  1.00  0.00    -0.081 NA 
HETATM    8  C   UNL     1      -7.660   1.477  67.862  1.00  0.00    -0.053 C  
HETATM    9  C   UNL     1      -6.560   2.041  68.762  1.00  0.00    -0.029 C  
HETATM   10  C   UNL     1      -7.011   3.326  69.463  1.00  0.00    -0.041 C  
HETATM   11  C   UNL     1      -7.542   4.317  68.423  1.00  0.00    -0.064 C  
HETATM   12  C   UNL     1      -8.626   3.662  67.558  1.00  0.00    -0.100 C  
BRANCH  10  13
HETATM   13  O   UNL     1      -8.078   3.141  70.403  1.00  0.00    -0.045 OA 
BRANCH  13  14
HETATM   14  C   UNL     1      -7.904   3.694  71.719  1.00  0.00    -0.062 C  
BRANCH  14  15
HETATM   15  C   UNL     1      -7.809   5.213  71.662  1.00  0.00    -0.109 A  
HETATM   16  C   UNL     1      -6.573   5.842  71.895  1.00  0.00    -0.058 A  
HETATM   17  C   UNL     1      -6.420   7.211  71.674  1.00  0.00    -0.047 A  
HETATM   18  C   UNL     1      -8.903   6.000  71.266  1.00  0.00    -0.136 A  
HETATM   19  C   UNL     1      -8.750   7.371  71.048  1.00  0.00    -0.139 A  
HETATM   20 CL   UNL     1      -7.293   9.636  70.874  1.00  0.00    -0.063 Cl 
HETATM   21  C   UNL     1      -7.505   7.966  71.233  1.00  0.00    -0.073 A  
ENDBRANCH  14  15
BRANCH  14  22
HETATM   22  C   UNL     1      -9.020   3.181  72.628  1.00  0.00    -0.087 A  
HETATM   23  C   UNL     1     -10.504   1.480  73.162  1.00  0.00    -0.114 A  
HETATM   24  C   UNL     1     -10.583   3.487  74.435  1.00  0.00    -0.228 A  
HETATM   25  C   UNL     1      -9.546   3.980  73.648  1.00  0.00    -0.134 A  
HETATM   26  N   UNL     1      -9.494   1.928  72.385  1.00  0.00    -0.079 NA 
HETATM   27  C   UNL     1     -11.075   2.213  74.189  1.00  0.00    -0.175 A  
ENDBRANCH  14  22
ENDBRANCH  13  14
ENDBRANCH  10  13
ENDBRANCH   6   7
ENDBRANCH   5   6
ENDBRANCH   4   5
TORSDOF 7
ENDMDL
MODEL      210
REMARK 921   NORMALIZED FREE ENERGY PREDICTED BY IDOCK:   -0.87 KCAL/MOL
REMARK 922        TOTAL FREE ENERGY PREDICTED BY IDOCK:   -2.68 KCAL/MOL
REMARK 923 INTER-LIGAND FREE ENERGY PREDICTED BY IDOCK:   -1.79 KCAL/MOL
REMARK 924 INTRA-LIGAND FREE ENERGY PREDICTED BY IDOCK:   -0.89 KCAL/MOL
REMARK 927      BINDING AFFINITY PREDICTED BY RF-SCORE:    0.00 PKD
ROOT
HETATM    1  O   UNL     1      -9.254   8.139  73.103  1.00  0.00    -0.261 OA 
HETATM    2  C   UNL     1      -8.628   8.059  71.905  1.00  0.00    -0.137 C  
HETATM    3  O   UNL     1      -8.071   7.043  71.524  1.00  0.00    -0.103 OA 
HETATM    4  C   UNL     1      -8.720   9.350  71.132  1.00  0.00     0.037 C  
ENDROOT
BRANCH   4   5
HETATM    5  C   UNL     1      -8.035   9.270  69.767  1.00  0.00    -0.103 C  
BRANCH   5   6
HETATM    6  C   UNL     1      -7.177  10.520  69.547  1.00  0.00    -0.137 C  
BRANCH   6   7
HETATM    7  N   UNL     1      -7.451  11.262  68.311  1.00  0.00    -0.093 NA 
HETATM    8  C   UNL     1      -8.872  11.366  67.946  1.00  0.00    -0.149 C  
HETATM    9  C   UNL     1      -9.679  12.280  68.869  1.00  0.00     0.126 C  
HETATM   10  C   UNL     1      -9.059  13.678  68.958  1.00  0.00     0.322 C  
HETATM   11  C   UNL     1      -7.578  13.558  69.331  1.00  0.00     0.407 C  
HETATM   12  C   UNL     1      -6.854  12.612  68.365  1.00  0.00    -0.090 C  
BRANCH  10  13
HETATM   13  O   UNL     1      -9.091  14.416  67.729  1.00  0.00    -0.181 OA 
BRANCH  13  14
HETATM   14  C   UNL     1     -10.069  15.464  67.612  1.00  0.00    -0.236 C  
BRANCH  14  15
HETATM   15  C   UNL     1      -9.463  16.816  67.968  1.00  0.00    -0.233 A  
HETATM   16  C   UNL     1      -8.078  16.919  68.188  1.00  0.00    -0.201 A  
HETATM   17  C   UNL     1      -7.474  18.169  68.338  1.00  0.00    -0.287 A  
HETATM   18  C   UNL     1     -10.237  17.988  67.968  1.00  0.00    -0.390 A  
HETATM   19  C   UNL     1      -9.633  19.238  68.121  1.00  0.00    -0.423 A  
HETATM   20 CL   UNL     1      -7.497  20.866  68.379  1.00  0.00     0.244 Cl 
HETATM   21  C   UNL     1      -8.253  19.323  68.284  1.00  0.00    -0.337 A  
ENDBRANCH  14  15
BRANCH  14  22
HETATM   22  C   UNL     1     -10.688  15.416  66.216  1.00  0.00    -0.312 A  
HETATM   23  C   UNL     1     -11.981  14.267  64.670  1.00  0.00    -0.455 A  
HETATM   24  C   UNL     1     -11.006  16.335  64.012  1.00  0.00     1.054 A  
HETATM   25  C   UNL     1     -10.448  16.430  65.284  1.00  0.00    -0.285 A  
HETATM   26  N   UNL     1     -11.458  14.334  65.913  1.00  0.00    -0.329 NA 
HETATM   27  C   UNL     1     -11.787  15.232  63.695  1.00  0.00     0.762 A  
ENDBRANCH  14  22
ENDBRANCH  13  14
ENDBRANCH  10  13
ENDBRANCH   6   7
ENDBRANCH   5   6
ENDBRANCH   4   5
TORSDOF 7
ENDMDL
MODEL      211
REMARK 921   NORMALIZED FREE ENERGY PREDICTED BY IDOCK:   -0.86 KCAL/MOL
REMARK 922        TOTAL FREE ENERGY PREDICTED BY IDOCK:   -2.67 KCAL/MOL
REMARK 923 INTER-LIGAND FREE ENERGY PREDICTED BY IDOCK:   -3.13 KCAL/MOL
REMARK 924 INTRA-LIGAND FREE ENERGY PREDICTED BY IDOCK:    0.46 KCAL/MOL
REMARK 927      BINDING AFFINITY PREDICTED BY RF-SCORE:    0.00 PKD
ROOT
HETATM    1  O   UNL     1     -10.363   7.130  74.167  1.00  0.00    -0.307 OA 
HETATM    2  C   UNL     1      -9.504   6.493  73.337  1.00  0.00    -0.140 C  
HETATM    3  O   UNL     1      -8.658   5.713  73.743  1.00  0.00    -0.119 OA 
HETATM    4  C   UNL     1      -9.737   6.861  71.893  1.00  0.00    -0.166 C  
ENDROOT
BRANCH   4   5
HETATM    5  C   UNL     1      -8.788   6.133  70.940  1.00  0.00    -0.136 C  
BRANCH   5   6
HETATM    6  C   UNL     1      -8.338   7.091  69.831  1.00  0.00    -0.139 C  
BRANCH   6   7
HETATM    7  N   UNL     1      -7.154   6.666  69.075  1.00  0.00    -0.086 NA 
HETATM    8  C   UNL     1      -7.148   5.255  68.663  1.00  0.00    -0.061 C  
HETATM    9  C   UNL     1      -8.167   4.928  67.570  1.00  0.00    -0.105 C  
HETATM   10  C   UNL     1      -7.987   5.830  66.346  1.00  0.00    -0.102 C  
HETATM   11  C   UNL     1      -7.986   7.297  66.787  1.00  0.00    -0.118 C  
HETATM   12  C   UNL     1      -6.949   7.528  67.893  1.00  0.00    -0.076 C  
BRANCH  10  13
HETATM   13  O   UNL     1      -6.749   5.635  65.647  1.00  0.00    -0.043 OA 
BRANCH  13  14
HETATM   14  C   UNL     1      -6.807   5.540  64.213  1.00  0.00    -0.047 C  
BRANCH  14  15
HETATM   15  C   UNL     1      -7.867   4.535  63.779  1.00  0.00    -0.085 A  
HETATM   16  C   UNL     1      -8.067   3.366  64.534  1.00  0.00    -0.086 A  
HETATM   17  C   UNL     1      -9.145   2.521  64.262  1.00  0.00    -0.121 A  
HETATM   18  C   UNL     1      -8.732   4.803  62.705  1.00  0.00    -0.126 A  
HETATM   19  C   UNL     1      -9.808   3.955  62.431  1.00  0.00    -0.135 A  
HETATM   20 CL   UNL     1     -11.400   1.839  62.948  1.00  0.00    -0.263 Cl 
HETATM   21  C   UNL     1     -10.022   2.831  63.225  1.00  0.00    -0.112 A  
ENDBRANCH  14  15
BRANCH  14  22
HETATM   22  C   UNL     1      -7.008   6.937  63.628  1.00  0.00    -0.057 A  
HETATM   23  C   UNL     1      -6.231   9.111  63.403  1.00  0.00    -0.089 A  
HETATM   24  C   UNL     1      -8.305   8.542  62.387  1.00  0.00    -0.192 A  
HETATM   25  C   UNL     1      -8.146   7.250  62.878  1.00  0.00    -0.057 A  
HETATM   26  N   UNL     1      -6.046   7.865  63.889  1.00  0.00    -0.057 NA 
HETATM   27  C   UNL     1      -7.331   9.495  62.655  1.00  0.00    -0.103 A  
ENDBRANCH  14  22
ENDBRANCH  13  14
ENDBRANCH  10  13
ENDBRANCH   6   7
ENDBRANCH   5   6
ENDBRANCH   4   5
TORSDOF 7
ENDMDL
MODEL      212
REMARK 921   NORMALIZED FREE ENERGY PREDICTED BY IDOCK:    0.71 KCAL/MOL
REMARK 922        TOTAL FREE ENERGY PREDICTED BY IDOCK:   -0.46 KCAL/MOL
REMARK 923 INTER-LIGAND FREE ENERGY PREDICTED BY IDOCK:   -3.67 KCAL/MOL
REMARK 924 INTRA-LIGAND FREE ENERGY PREDICTED BY IDOCK:    3.20 KCAL/MOL
REMARK 927      BINDING AFFINITY PREDICTED BY RF-SCORE:    0.00 PKD
ROOT
HETATM    1  O   UNL     1      -9.626   9.756  63.266  1.00  0.00    -0.104 OA 
HETATM    2  C   UNL     1     -10.151  10.873  63.824  1.00  0.00    -0.353 C  
HETATM    3  O   UNL     1     -10.694  11.742  63.162  1.00  0.00    -0.339 OA 
HETATM    4  C   UNL     1      -9.982  10.888  65.322  1.00  0.00    -0.330 C  
ENDROOT
BRANCH   4   5
HETATM    5  C   UNL     1     -10.588  12.135  65.970  1.00  0.00    -0.292 C  
BRANCH   5   6
HETATM    6  C   UNL     1     -11.096  11.790  67.374  1.00  0.00    -0.282 C  
BRANCH   6   7
HETATM    7  N   UNL     1     -11.448  10.382  67.587  1.00  0.00    -0.351 NA 
HETATM    8  C   UNL     1     -10.388   9.416  67.264  1.00  0.00    -0.260 C  
HETATM    9  C   UNL     1      -9.212   9.441  68.241  1.00  0.00    -0.133 C  
HETATM   10  C   UNL     1      -9.678   9.240  69.687  1.00  0.00    -0.182 C  
HETATM   11  C   UNL     1     -10.788  10.245  70.011  1.00  0.00    -0.364 C  
HETATM   12  C   UNL     1     -11.913  10.161  68.972  1.00  0.00     0.314 C  
BRANCH  10  13
HETATM   13  O   UNL     1     -10.238   7.946  69.950  1.00  0.00    -0.201 OA 
BRANCH  13  14
HETATM   14  C   UNL     1      -9.343   6.821  69.923  1.00  0.00    -0.157 C  
BRANCH  14  15
HETATM   15  C   UNL     1      -9.544   5.997  68.657  1.00  0.00    -0.141 A  
HETATM   16  C   UNL     1      -9.658   4.599  68.748  1.00  0.00    -0.229 A  
HETATM   17  C   UNL     1     -10.019   3.841  67.633  1.00  0.00     0.135 A  
HETATM   18  C   UNL     1      -9.735   6.611  67.408  1.00  0.00    -0.155 A  
HETATM   19  C   UNL     1     -10.093   5.852  66.291  1.00  0.00    -0.100 A  
HETATM   20 CL   UNL     1     -10.787   3.552  65.062  1.00  0.00     0.415 Cl 
HETATM   21  C   UNL     1     -10.254   4.474  66.414  1.00  0.00    -0.217 A  
ENDBRANCH  14  15
BRANCH  14  22
HETATM   22  C   UNL     1      -7.910   7.318  70.112  1.00  0.00    -0.100 A  
HETATM   23  C   UNL     1      -6.173   7.821  71.564  1.00  0.00    -0.035 A  
HETATM   24  C   UNL     1      -5.853   8.216  69.241  1.00  0.00    -0.034 A  
HETATM   25  C   UNL     1      -7.143   7.743  69.023  1.00  0.00    -0.074 A  
HETATM   26  N   UNL     1      -7.427   7.351  71.384  1.00  0.00    -0.079 NA 
HETATM   27  C   UNL     1      -5.355   8.259  70.536  1.00  0.00    -0.022 A  
ENDBRANCH  14  22
ENDBRANCH  13  14
ENDBRANCH  10  13
ENDBRANCH   6   7
ENDBRANCH   5   6
ENDBRANCH   4   5
TORSDOF 7
ENDMDL
MODEL      213
REMARK 921   NORMALIZED FREE ENERGY PREDICTED BY IDOCK:    0.90 KCAL/MOL
REMARK 922        TOTAL FREE ENERGY PREDICTED BY IDOCK:   -0.19 KCAL/MOL
REMARK 923 INTER-LIGAND FREE ENERGY PREDICTED BY IDOCK:   -3.13 KCAL/MOL
REMARK 924 INTRA-LIGAND FREE ENERGY PREDICTED BY IDOCK:    2.94 KCAL/MOL
REMARK 927      BINDING AFFINITY PREDICTED BY RF-SCORE:    0.00 PKD
ROOT
HETATM    1  O   UNL     1      -8.253   2.295  69.983  1.00  0.00    -0.041 OA 
HETATM    2  C   UNL     1      -7.988   3.142  68.960  1.00  0.00    -0.052 C  
HETATM    3  O   UNL     1      -7.154   2.895  68.105  1.00  0.00    -0.048 OA 
HETATM    4  C   UNL     1      -8.844   4.382  69.019  1.00  0.00    -0.131 C  
ENDROOT
BRANCH   4   5
HETATM    5  C   UNL     1      -8.571   5.341  67.859  1.00  0.00    -0.103 C  
BRANCH   5   6
HETATM    6  C   UNL     1      -7.278   6.118  68.126  1.00  0.00    -0.084 C  
BRANCH   6   7
HETATM    7  N   UNL     1      -7.439   7.567  68.298  1.00  0.00    -0.106 NA 
HETATM    8  C   UNL     1      -8.597   8.153  67.608  1.00  0.00    -0.130 C  
HETATM    9  C   UNL     1      -9.942   7.764  68.222  1.00  0.00    -0.201 C  
HETATM   10  C   UNL     1      -9.998   8.103  69.715  1.00  0.00    -0.191 C  
HETATM   11  C   UNL     1      -8.783   7.495  70.423  1.00  0.00    -0.144 C  
HETATM   12  C   UNL     1      -7.484   7.924  69.731  1.00  0.00    -0.088 C  
BRANCH  10  13
HETATM   13  O   UNL     1      -9.950   9.508  70.002  1.00  0.00    -0.205 OA 
BRANCH  13  14
HETATM   14  C   UNL     1     -11.200  10.173  70.256  1.00  0.00    -0.318 C  
BRANCH  14  15
HETATM   15  C   UNL     1     -11.573  11.088  69.096  1.00  0.00    -0.389 A  
HETATM   16  C   UNL     1     -12.408  12.195  69.326  1.00  0.00     0.058 A  
HETATM   17  C   UNL     1     -12.620  13.145  68.325  1.00  0.00     0.744 A  
HETATM   18  C   UNL     1     -11.010  10.919  67.821  1.00  0.00    -0.339 A  
HETATM   19  C   UNL     1     -11.225  11.867  66.818  1.00  0.00    -0.384 A  
HETATM   20 CL   UNL     1     -12.200  14.202  65.879  1.00  0.00    -0.445 Cl 
HETATM   21  C   UNL     1     -12.011  12.986  67.082  1.00  0.00    -0.329 A  
ENDBRANCH  14  15
BRANCH  14  22
HETATM   22  C   UNL     1     -12.265   9.127  70.582  1.00  0.00    -0.011 A  
HETATM   23  C   UNL     1     -14.306   8.631  71.566  1.00  0.00    -0.320 A  
HETATM   24  C   UNL     1     -13.069   6.857  70.576  1.00  0.00     0.546 A  
HETATM   25  C   UNL     1     -12.089   7.784  70.235  1.00  0.00     0.304 A  
HETATM   26  N   UNL     1     -13.375   9.555  71.244  1.00  0.00    -0.351 NA 
HETATM   27  C   UNL     1     -14.201   7.285  71.256  1.00  0.00    -0.368 A  
ENDBRANCH  14  22
ENDBRANCH  13  14
ENDBRANCH  10  13
ENDBRANCH   6   7
ENDBRANCH   5   6
ENDBRANCH   4   5
TORSDOF 7
ENDMDL
MODEL      214
REMARK 921   NORMALIZED FREE ENERGY PREDICTED BY IDOCK:    2.44 KCAL/MOL
REMARK 922        TOTAL FREE ENERGY PREDICTED BY IDOCK:    1.98 KCAL/MOL
REMARK 923 INTER-LIGAND FREE ENERGY PREDICTED BY IDOCK:    0.70 KCAL/MOL
REMARK 924 INTRA-LIGAND FREE ENERGY PREDICTED BY IDOCK:    1.28 KCAL/MOL
REMARK 927      BINDING AFFINITY PREDICTED BY RF-SCORE:    0.00 PKD
ROOT
HETATM    1  O   UNL     1      -7.190  19.054  69.467  1.00  0.00    -0.187 OA 
HETATM    2  C   UNL     1      -7.424  19.864  68.407  1.00  0.00    -0.277 C  
HETATM    3  O   UNL     1      -6.794  20.891  68.217  1.00  0.00    -0.199 OA 
HETATM    4  C   UNL     1      -8.524  19.334  67.524  1.00  0.00    -0.324 C  
ENDROOT
BRANCH   4   5
HETATM    5  C   UNL     1      -8.787  20.228  66.311  1.00  0.00    -0.223 C  
BRANCH   5   6
HETATM    6  C   UNL     1      -9.988  19.690  65.525  1.00  0.00     0.151 C  
BRANCH   6   7
HETATM    7  N   UNL     1     -10.770  18.650  66.205  1.00  0.00    -0.313 NA 
HETATM    8  C   UNL     1     -11.920  18.137  65.446  1.00  0.00     4.642 C  
HETATM    9  C   UNL     1     -11.531  17.286  64.237  1.00  0.00     1.971 C  
HETATM   10  C   UNL     1     -10.611  16.128  64.637  1.00  0.00     0.185 C  
HETATM   11  C   UNL     1      -9.421  16.672  65.433  1.00  0.00     0.525 C  
HETATM   12  C   UNL     1      -9.905  17.524  66.613  1.00  0.00    -0.306 C  
BRANCH  10  13
HETATM   13  O   UNL     1     -11.230  15.150  65.485  1.00  0.00    -0.345 OA 
BRANCH  13  14
HETATM   14  C   UNL     1     -10.366  14.339  66.299  1.00  0.00    -0.294 C  
BRANCH  14  15
HETATM   15  C   UNL     1     -10.869  14.283  67.736  1.00  0.00    -0.259 A  
HETATM   16  C   UNL     1     -11.127  15.478  68.428  1.00  0.00    -0.315 A  
HETATM   17  C   UNL     1     -11.754  15.455  69.675  1.00  0.00    -0.355 A  
HETATM   18  C   UNL     1     -11.192  13.062  68.350  1.00  0.00    -0.304 A  
HETATM   19  C   UNL     1     -11.816  13.039  69.599  1.00  0.00    -0.385 A  
HETATM   20 CL   UNL     1     -12.967  14.212  71.740  1.00  0.00    -0.406 Cl 
HETATM   21  C   UNL     1     -12.114  14.236  70.246  1.00  0.00    -0.335 A  
ENDBRANCH  14  15
BRANCH  14  22
HETATM   22  C   UNL     1     -10.211  12.965  65.647  1.00  0.00    -0.285 A  
HETATM   23  C   UNL     1      -9.161  10.897  65.631  1.00  0.00    -0.203 A  
HETATM   24  C   UNL     1     -10.738  11.376  63.916  1.00  0.00    -0.462 A  
HETATM   25  C   UNL     1     -10.929  12.627  64.496  1.00  0.00    -0.365 A  
HETATM   26  N   UNL     1      -9.329  12.101  66.220  1.00  0.00    -0.231 NA 
HETATM   27  C   UNL     1      -9.835  10.492  64.492  1.00  0.00    -0.401 A  
ENDBRANCH  14  22
ENDBRANCH  13  14
ENDBRANCH  10  13
ENDBRANCH   6   7
ENDBRANCH   5   6
ENDBRANCH   4   5
TORSDOF 7
ENDMDL
MODEL      215
REMARK 921   NORMALIZED FREE ENERGY PREDICTED BY IDOCK:    6.75 KCAL/MOL
REMARK 922        TOTAL FREE ENERGY PREDICTED BY IDOCK:    8.05 KCAL/MOL
REMARK 923 INTER-LIGAND FREE ENERGY PREDICTED BY IDOCK:    6.03 KCAL/MOL
REMARK 924 INTRA-LIGAND FREE ENERGY PREDICTED BY IDOCK:    2.02 KCAL/MOL
REMARK 927      BINDING AFFINITY PREDICTED BY RF-SCORE:    0.00 PKD
ROOT
HETATM    1  O   UNL     1     -12.795  12.042  63.357  1.00  0.00    -0.760 OA 
HETATM    2  C   UNL     1     -12.264  13.039  64.104  1.00  0.00    -0.401 C  
HETATM    3  O   UNL     1     -11.650  12.828  65.136  1.00  0.00    -0.312 OA 
HETATM    4  C   UNL     1     -12.522  14.396  63.498  1.00  0.00     0.493 C  
ENDROOT
BRANCH   4   5
HETATM    5  C   UNL     1     -11.911  15.533  64.319  1.00  0.00    -0.161 C  
BRANCH   5   6
HETATM    6  C   UNL     1     -10.382  15.439  64.270  1.00  0.00     1.311 C  
BRANCH   6   7
HETATM    7  N   UNL     1      -9.695  15.686  65.543  1.00  0.00    -0.325 NA 
HETATM    8  C   UNL     1     -10.048  16.948  66.209  1.00  0.00    -0.324 C  
HETATM    9  C   UNL     1     -11.467  16.967  66.782  1.00  0.00     0.999 C  
HETATM   10  C   UNL     1     -11.705  15.790  67.732  1.00  0.00     0.019 C  
HETATM   11  C   UNL     1     -11.327  14.481  67.031  1.00  0.00    -0.359 C  
HETATM   12  C   UNL     1      -9.899  14.559  66.477  1.00  0.00    -0.285 C  
BRANCH  10  13
HETATM   13  O   UNL     1     -10.916  15.831  68.929  1.00  0.00    -0.248 OA 
BRANCH  13  14
HETATM   14  C   UNL     1     -10.857  14.633  69.723  1.00  0.00    -0.152 C  
BRANCH  14  15
HETATM   15  C   UNL     1      -9.435  14.089  69.779  1.00  0.00     1.133 A  
HETATM   16  C   UNL     1      -8.356  14.978  69.927  1.00  0.00     0.237 A  
HETATM   17  C   UNL     1      -7.066  14.498  70.160  1.00  0.00     0.131 A  
HETATM   18  C   UNL     1      -9.180  12.707  69.804  1.00  0.00     2.446 A  
HETATM   19  C   UNL     1      -7.889  12.227  70.034  1.00  0.00     2.288 A  
HETATM   20 CL   UNL     1      -5.270  12.535  70.608  1.00  0.00    -0.123 Cl 
HETATM   21  C   UNL     1      -6.843  13.124  70.232  1.00  0.00     0.782 A  
ENDBRANCH  14  15
BRANCH  14  22
HETATM   22  C   UNL     1     -11.462  14.914  71.098  1.00  0.00    -0.264 A  
HETATM   23  C   UNL     1     -12.212  16.476  72.640  1.00  0.00    -0.248 A  
HETATM   24  C   UNL     1     -12.251  14.177  73.250  1.00  0.00     0.247 A  
HETATM   25  C   UNL     1     -11.726  13.877  71.997  1.00  0.00     1.076 A  
HETATM   26  N   UNL     1     -11.708  16.215  71.414  1.00  0.00    -0.459 NA 
HETATM   27  C   UNL     1     -12.499  15.503  73.582  1.00  0.00    -0.713 A  
ENDBRANCH  14  22
ENDBRANCH  13  14
ENDBRANCH  10  13
ENDBRANCH   6   7
ENDBRANCH   5   6
ENDBRANCH   4   5
TORSDOF 7
ENDMDL
MODEL      216
REMARK 921   NORMALIZED FREE ENERGY PREDICTED BY IDOCK:    6.81 KCAL/MOL
REMARK 922        TOTAL FREE ENERGY PREDICTED BY IDOCK:    8.14 KCAL/MOL
REMARK 923 INTER-LIGAND FREE ENERGY PREDICTED BY IDOCK:   -4.57 KCAL/MOL
REMARK 924 INTRA-LIGAND FREE ENERGY PREDICTED BY IDOCK:   12.70 KCAL/MOL
REMARK 927      BINDING AFFINITY PREDICTED BY RF-SCORE:    0.00 PKD
ROOT
HETATM    1  O   UNL     1      -9.037   9.358  65.351  1.00  0.00    -0.197 OA 
HETATM    2  C   UNL     1      -9.700  10.493  65.027  1.00  0.00    -0.292 C  
HETATM    3  O   UNL     1      -9.786  10.896  63.879  1.00  0.00    -0.271 OA 
HETATM    4  C   UNL     1     -10.301  11.160  66.238  1.00  0.00    -0.299 C  
ENDROOT
BRANCH   4   5
HETATM    5  C   UNL     1     -11.071  12.434  65.886  1.00  0.00    -0.349 C  
BRANCH   5   6
HETATM    6  C   UNL     1     -11.374  13.222  67.165  1.00  0.00    -0.317 C  
BRANCH   6   7
HETATM    7  N   UNL     1     -10.770  12.688  68.392  1.00  0.00    -0.235 NA 
HETATM    8  C   UNL     1     -10.515  11.240  68.383  1.00  0.00    -0.197 C  
HETATM    9  C   UNL     1      -9.383  10.818  67.445  1.00  0.00    -0.163 C  
HETATM   10  C   UNL     1      -8.087  11.575  67.753  1.00  0.00    -0.133 C  
HETATM   11  C   UNL     1      -8.365  13.081  67.767  1.00  0.00    -0.175 C  
HETATM   12  C   UNL     1      -9.522  13.408  68.719  1.00  0.00     0.068 C  
BRANCH  10  13
HETATM   13  O   UNL     1      -7.520  11.273  69.035  1.00  0.00    -0.121 OA 
BRANCH  13  14
HETATM   14  C   UNL     1      -7.242   9.892  69.327  1.00  0.00    -0.073 C  
BRANCH  14  15
HETATM   15  C   UNL     1      -8.508   9.163  69.759  1.00  0.00    -0.140 A  
HETATM   16  C   UNL     1      -8.908   8.001  69.076  1.00  0.00    -0.145 A  
HETATM   17  C   UNL     1      -9.958   7.219  69.561  1.00  0.00    -0.170 A  
HETATM   18  C   UNL     1      -9.226   9.558  70.900  1.00  0.00    -0.125 A  
HETATM   19  C   UNL     1     -10.278   8.776  71.382  1.00  0.00    -0.350 A  
HETATM   20 CL   UNL     1     -11.857   6.588  71.370  1.00  0.00    -0.381 Cl 
HETATM   21  C   UNL     1     -10.625   7.600  70.723  1.00  0.00    -0.221 A  
ENDBRANCH  14  15
BRANCH  14  22
HETATM   22  C   UNL     1      -6.548   9.258  68.122  1.00  0.00    -0.059 A  
HETATM   23  C   UNL     1      -5.190   9.526  66.261  1.00  0.00    -0.039 A  
HETATM   24  C   UNL     1      -6.094   7.370  66.697  1.00  0.00    -0.043 A  
HETATM   25  C   UNL     1      -6.720   7.903  67.820  1.00  0.00    -0.068 A  
HETATM   26  N   UNL     1      -5.780  10.072  67.347  1.00  0.00    -0.045 NA 
HETATM   27  C   UNL     1      -5.314   8.196  65.899  1.00  0.00    -0.028 A  
ENDBRANCH  14  22
ENDBRANCH  13  14
ENDBRANCH  10  13
ENDBRANCH   6   7
ENDBRANCH   5   6
ENDBRANCH   4   5
TORSDOF 7
ENDMDL
MODEL      217
REMARK 921   NORMALIZED FREE ENERGY PREDICTED BY IDOCK:    9.46 KCAL/MOL
REMARK 922        TOTAL FREE ENERGY PREDICTED BY IDOCK:   11.87 KCAL/MOL
REMARK 923 INTER-LIGAND FREE ENERGY PREDICTED BY IDOCK:    5.90 KCAL/MOL
REMARK 924 INTRA-LIGAND FREE ENERGY PREDICTED BY IDOCK:    5.97 KCAL/MOL
REMARK 927      BINDING AFFINITY PREDICTED BY RF-SCORE:    0.00 PKD
ROOT
HETATM    1  O   UNL     1      -5.126  14.511  66.855  1.00  0.00     0.447 OA 
HETATM    2  C   UNL     1      -6.195  14.803  67.632  1.00  0.00    -0.091 C  
HETATM    3  O   UNL     1      -7.079  15.561  67.271  1.00  0.00    -0.195 OA 
HETATM    4  C   UNL     1      -6.146  14.079  68.954  1.00  0.00    -0.086 C  
ENDROOT
BRANCH   4   5
HETATM    5  C   UNL     1      -7.358  14.383  69.836  1.00  0.00     0.182 C  
BRANCH   5   6
HETATM    6  C   UNL     1      -8.239  13.134  69.948  1.00  0.00     2.327 C  
BRANCH   6   7
HETATM    7  N   UNL     1      -9.679  13.362  69.775  1.00  0.00     1.424 NA 
HETATM    8  C   UNL     1     -10.049  14.147  68.588  1.00  0.00    -0.229 C  
HETATM    9  C   UNL     1      -9.842  13.402  67.268  1.00  0.00    -0.233 C  
HETATM   10  C   UNL     1     -10.579  12.059  67.258  1.00  0.00    -0.222 C  
HETATM   11  C   UNL     1     -10.192  11.254  68.503  1.00  0.00    -0.214 C  
HETATM   12  C   UNL     1     -10.417  12.083  69.773  1.00  0.00     0.821 C  
BRANCH  10  13
HETATM   13  O   UNL     1     -12.008  12.172  67.298  1.00  0.00    -0.573 OA 
BRANCH  13  14
HETATM   14  C   UNL     1     -12.619  13.147  66.435  1.00  0.00     0.121 C  
BRANCH  14  15
HETATM   15  C   UNL     1     -12.025  14.530  66.671  1.00  0.00    -0.358 A  
HETATM   16  C   UNL     1     -11.672  15.331  65.572  1.00  0.00     0.025 A  
HETATM   17  C   UNL     1     -11.296  16.663  65.755  1.00  0.00     0.554 A  
HETATM   18  C   UNL     1     -11.929  15.073  67.963  1.00  0.00    -0.167 A  
HETATM   19  C   UNL     1     -11.549  16.405  68.146  1.00  0.00     0.011 A  
HETATM   20 CL   UNL     1     -10.879  18.864  67.260  1.00  0.00    -0.511 Cl 
HETATM   21  C   UNL     1     -11.255  17.199  67.041  1.00  0.00     0.414 A  
ENDBRANCH  14  15
BRANCH  14  22
HETATM   22  C   UNL     1     -12.508  12.670  64.987  1.00  0.00    -0.487 A  
HETATM   23  C   UNL     1     -13.543  11.730  63.135  1.00  0.00     1.562 A  
HETATM   24  C   UNL     1     -11.223  12.237  62.997  1.00  0.00    -0.001 A  
HETATM   25  C   UNL     1     -11.289  12.708  64.305  1.00  0.00    -0.416 A  
HETATM   26  N   UNL     1     -13.639  12.185  64.404  1.00  0.00    -0.140 NA 
HETATM   27  C   UNL     1     -12.371  11.736  62.398  1.00  0.00     1.937 A  
ENDBRANCH  14  22
ENDBRANCH  13  14
ENDBRANCH  10  13
ENDBRANCH   6   7
ENDBRANCH   5   6
ENDBRANCH   4   5
TORSDOF 7
ENDMDL
MODEL      218
REMARK 921   NORMALIZED FREE ENERGY PREDICTED BY IDOCK:   11.06 KCAL/MOL
REMARK 922        TOTAL FREE ENERGY PREDICTED BY IDOCK:   14.13 KCAL/MOL
REMARK 923 INTER-LIGAND FREE ENERGY PREDICTED BY IDOCK:   -2.76 KCAL/MOL
REMARK 924 INTRA-LIGAND FREE ENERGY PREDICTED BY IDOCK:   16.89 KCAL/MOL
REMARK 927      BINDING AFFINITY PREDICTED BY RF-SCORE:    0.00 PKD
ROOT
HETATM    1  O   UNL     1      -7.066   8.937  64.887  1.00  0.00    -0.082 OA 
HETATM    2  C   UNL     1      -7.568  10.191  64.792  1.00  0.00    -0.139 C  
HETATM    3  O   UNL     1      -7.579  10.813  63.743  1.00  0.00     0.101 OA 
HETATM    4  C   UNL     1      -8.099  10.688  66.113  1.00  0.00    -0.154 C  
ENDROOT
BRANCH   4   5
HETATM    5  C   UNL     1      -8.688  12.096  66.017  1.00  0.00     0.174 C  
BRANCH   5   6
HETATM    6  C   UNL     1      -8.940  12.645  67.426  1.00  0.00    -0.190 C  
BRANCH   6   7
HETATM    7  N   UNL     1      -8.652  11.715  68.524  1.00  0.00    -0.156 NA 
HETATM    8  C   UNL     1      -9.071  10.325  68.292  1.00  0.00    -0.139 C  
HETATM    9  C   UNL     1      -8.234   9.598  67.237  1.00  0.00    -0.114 C  
HETATM   10  C   UNL     1      -6.741   9.645  67.575  1.00  0.00    -0.070 C  
HETATM   11  C   UNL     1      -6.318  11.096  67.823  1.00  0.00    -0.055 C  
HETATM   12  C   UNL     1      -7.219  11.748  68.878  1.00  0.00    -0.107 C  
BRANCH  10  13
HETATM   13  O   UNL     1      -6.383   8.928  68.765  1.00  0.00    -0.048 OA 
BRANCH  13  14
HETATM   14  C   UNL     1      -6.956   7.621  68.947  1.00  0.00    -0.070 C  
BRANCH  14  15
HETATM   15  C   UNL     1      -8.413   7.723  69.382  1.00  0.00    -0.134 A  
HETATM   16  C   UNL     1      -9.409   7.074  68.632  1.00  0.00    -0.136 A  
HETATM   17  C   UNL     1     -10.720   7.002  69.104  1.00  0.00    -0.240 A  
HETATM   18  C   UNL     1      -8.775   8.355  70.583  1.00  0.00    -0.158 A  
HETATM   19  C   UNL     1     -10.088   8.286  71.054  1.00  0.00    -0.230 A  
HETATM   20 CL   UNL     1     -12.643   7.425  70.949  1.00  0.00    -0.242 Cl 
HETATM   21  C   UNL     1     -11.049   7.591  70.323  1.00  0.00    -0.248 A  
ENDBRANCH  14  15
BRANCH  14  22
HETATM   22  C   UNL     1      -6.751   6.804  67.671  1.00  0.00    -0.071 A  
HETATM   23  C   UNL     1      -5.526   6.445  65.735  1.00  0.00    -0.014 A  
HETATM   24  C   UNL     1      -7.425   5.072  66.140  1.00  0.00    -0.086 A  
HETATM   25  C   UNL     1      -7.630   5.774  67.324  1.00  0.00    -0.096 A  
HETATM   26  N   UNL     1      -5.695   7.140  66.881  1.00  0.00    -0.022 NA 
HETATM   27  C   UNL     1      -6.354   5.414  65.325  1.00  0.00    -0.035 A  
ENDBRANCH  14  22
ENDBRANCH  13  14
ENDBRANCH  10  13
ENDBRANCH   6   7
ENDBRANCH   5   6
ENDBRANCH   4   5
TORSDOF 7
ENDMDL
MODEL      219
REMARK 921   NORMALIZED FREE ENERGY PREDICTED BY IDOCK:   11.70 KCAL/MOL
REMARK 922        TOTAL FREE ENERGY PREDICTED BY IDOCK:   15.02 KCAL/MOL
REMARK 923 INTER-LIGAND FREE ENERGY PREDICTED BY IDOCK:    3.78 KCAL/MOL
REMARK 924 INTRA-LIGAND FREE ENERGY PREDICTED BY IDOCK:   11.25 KCAL/MOL
REMARK 927      BINDING AFFINITY PREDICTED BY RF-SCORE:    0.00 PKD
ROOT
HETATM    1  O   UNL     1     -12.310   9.248  66.987  1.00  0.00     5.149 OA 
HETATM    2  C   UNL     1     -11.477   9.406  68.043  1.00  0.00     0.756 C  
HETATM    3  O   UNL     1     -10.773   8.502  68.462  1.00  0.00    -0.151 OA 
HETATM    4  C   UNL     1     -11.531  10.806  68.600  1.00  0.00    -0.365 C  
ENDROOT
BRANCH   4   5
HETATM    5  C   UNL     1     -10.580  11.006  69.781  1.00  0.00    -0.055 C  
BRANCH   5   6
HETATM    6  C   UNL     1     -11.330  10.758  71.094  1.00  0.00     0.480 C  
BRANCH   6   7
HETATM    7  N   UNL     1     -11.695   9.361  71.356  1.00  0.00    -0.349 NA 
HETATM    8  C   UNL     1     -11.427   8.427  70.252  1.00  0.00    -0.062 C  
HETATM    9  C   UNL     1      -9.939   8.167  70.013  1.00  0.00    -0.192 C  
HETATM   10  C   UNL     1      -9.241   7.682  71.288  1.00  0.00    -0.145 C  
HETATM   11  C   UNL     1      -9.534   8.657  72.433  1.00  0.00    -0.295 C  
HETATM   12  C   UNL     1     -11.045   8.870  72.588  1.00  0.00     0.346 C  
BRANCH  10  13
HETATM   13  O   UNL     1      -9.684   6.398  71.749  1.00  0.00    -0.161 OA 
BRANCH  13  14
HETATM   14  C   UNL     1      -8.772   5.637  72.560  1.00  0.00    -0.124 C  
BRANCH  14  15
HETATM   15  C   UNL     1      -8.170   4.485  71.765  1.00  0.00    -0.103 A  
HETATM   16  C   UNL     1      -8.450   4.367  70.392  1.00  0.00    -0.098 A  
HETATM   17  C   UNL     1      -7.774   3.432  69.607  1.00  0.00    -0.050 A  
HETATM   18  C   UNL     1      -7.247   3.600  72.345  1.00  0.00    -0.048 A  
HETATM   19  C   UNL     1      -6.573   2.661  71.560  1.00  0.00    -0.019 A  
HETATM   20 CL   UNL     1      -5.926   1.506  69.208  1.00  0.00    -0.023 Cl 
HETATM   21  C   UNL     1      -6.824   2.597  70.192  1.00  0.00    -0.033 A  
ENDBRANCH  14  15
BRANCH  14  22
HETATM   22  C   UNL     1      -7.730   6.581  73.159  1.00  0.00    -0.096 A  
HETATM   23  C   UNL     1      -7.267   8.391  74.534  1.00  0.00    -0.197 A  
HETATM   24  C   UNL     1      -5.466   7.381  73.354  1.00  0.00    -0.045 A  
HETATM   25  C   UNL     1      -6.380   6.484  72.808  1.00  0.00    -0.055 A  
HETATM   26  N   UNL     1      -8.177   7.531  74.026  1.00  0.00    -0.158 NA 
HETATM   27  C   UNL     1      -5.916   8.356  74.233  1.00  0.00    -0.128 A  
ENDBRANCH  14  22
ENDBRANCH  13  14
ENDBRANCH  10  13
ENDBRANCH   6   7
ENDBRANCH   5   6
ENDBRANCH   4   5
TORSDOF 7
ENDMDL
MODEL      220
REMARK 921   NORMALIZED FREE ENERGY PREDICTED BY IDOCK:   20.19 KCAL/MOL
REMARK 922        TOTAL FREE ENERGY PREDICTED BY IDOCK:   26.99 KCAL/MOL
REMARK 923 INTER-LIGAND FREE ENERGY PREDICTED BY IDOCK:   22.81 KCAL/MOL
REMARK 924 INTRA-LIGAND FREE ENERGY PREDICTED BY IDOCK:    4.18 KCAL/MOL
REMARK 927      BINDING AFFINITY PREDICTED BY RF-SCORE:    0.00 PKD
ROOT
HETATM    1  O   UNL     1     -12.892  12.080  63.410  1.00  0.00    -0.760 OA 
HETATM    2  C   UNL     1     -12.699  13.274  64.019  1.00  0.00    -0.013 C  
HETATM    3  O   UNL     1     -11.981  13.402  64.997  1.00  0.00    -0.341 OA 
HETATM    4  C   UNL     1     -13.460  14.384  63.339  1.00  0.00     3.797 C  
ENDROOT
BRANCH   4   5
HETATM    5  C   UNL     1     -13.237  15.743  64.003  1.00  0.00     2.169 C  
BRANCH   5   6
HETATM    6  C   UNL     1     -11.814  16.232  63.710  1.00  0.00     1.232 C  
BRANCH   6   7
HETATM    7  N   UNL     1     -11.161  16.960  64.804  1.00  0.00    -0.807 NA 
HETATM    8  C   UNL     1     -11.916  17.002  66.066  1.00  0.00     2.808 C  
HETATM    9  C   UNL     1     -11.987  15.654  66.785  1.00  0.00     0.690 C  
HETATM   10  C   UNL     1     -10.591  15.073  67.030  1.00  0.00    -0.293 C  
HETATM   11  C   UNL     1      -9.811  15.042  65.712  1.00  0.00    -0.386 C  
HETATM   12  C   UNL     1      -9.807  16.427  65.055  1.00  0.00     0.807 C  
BRANCH  10  13
HETATM   13  O   UNL     1      -9.786  15.837  67.939  1.00  0.00    -0.216 OA 
BRANCH  13  14
HETATM   14  C   UNL     1      -8.425  15.415  68.131  1.00  0.00    -0.147 C  
BRANCH  14  15
HETATM   15  C   UNL     1      -7.464  16.313  67.363  1.00  0.00    -0.190 A  
HETATM   16  C   UNL     1      -7.470  16.294  65.957  1.00  0.00     0.700 A  
HETATM   17  C   UNL     1      -6.731  17.230  65.231  1.00  0.00     1.555 A  
HETATM   18  C   UNL     1      -6.651  17.249  68.023  1.00  0.00    -0.168 A  
HETATM   19  C   UNL     1      -5.909  18.183  67.297  1.00  0.00    -0.151 A  
HETATM   20 CL   UNL     1      -5.131  19.392  65.013  1.00  0.00    -0.178 Cl 
HETATM   21  C   UNL     1      -5.970  18.183  65.905  1.00  0.00    -0.218 A  
ENDBRANCH  14  15
BRANCH  14  22
HETATM   22  C   UNL     1      -8.133  15.341  69.629  1.00  0.00    -0.125 A  
HETATM   23  C   UNL     1      -6.575  15.045  71.323  1.00  0.00     0.839 A  
HETATM   24  C   UNL     1      -8.856  15.344  71.927  1.00  0.00     5.839 A  
HETATM   25  C   UNL     1      -9.160  15.445  70.572  1.00  0.00     1.237 A  
HETATM   26  N   UNL     1      -6.837  15.145  70.001  1.00  0.00    -0.152 NA 
HETATM   27  C   UNL     1      -7.538  15.138  72.313  1.00  0.00     5.281 A  
ENDBRANCH  14  22
ENDBRANCH  13  14
ENDBRANCH  10  13
ENDBRANCH   6   7
ENDBRANCH   5   6
ENDBRANCH   4   5
TORSDOF 7
ENDMDL
MODEL      221
REMARK 921   NORMALIZED FREE ENERGY PREDICTED BY IDOCK:   29.51 KCAL/MOL
REMARK 922        TOTAL FREE ENERGY PREDICTED BY IDOCK:   40.12 KCAL/MOL
REMARK 923 INTER-LIGAND FREE ENERGY PREDICTED BY IDOCK:   31.20 KCAL/MOL
REMARK 924 INTRA-LIGAND FREE ENERGY PREDICTED BY IDOCK:    8.92 KCAL/MOL
REMARK 927      BINDING AFFINITY PREDICTED BY RF-SCORE:    0.00 PKD
ROOT
HETATM    1  O   UNL     1      -8.934   9.867  64.499  1.00  0.00    -0.199 OA 
HETATM    2  C   UNL     1     -10.202   9.459  64.739  1.00  0.00     1.316 C  
HETATM    3  O   UNL     1     -10.550   8.296  64.617  1.00  0.00     4.997 OA 
HETATM    4  C   UNL     1     -11.089  10.599  65.171  1.00  0.00     0.364 C  
ENDROOT
BRANCH   4   5
HETATM    5  C   UNL     1     -12.522  10.151  65.465  1.00  0.00     8.133 C  
BRANCH   5   6
HETATM    6  C   UNL     1     -13.223  11.204  66.330  1.00  0.00     8.798 C  
BRANCH   6   7
HETATM    7  N   UNL     1     -12.785  12.588  66.115  1.00  0.00     0.030 NA 
HETATM    8  C   UNL     1     -13.167  13.536  67.173  1.00  0.00     3.059 C  
HETATM    9  C   UNL     1     -12.414  13.327  68.488  1.00  0.00     0.352 C  
HETATM   10  C   UNL     1     -10.897  13.361  68.279  1.00  0.00    -0.256 C  
HETATM   11  C   UNL     1     -10.511  12.377  67.171  1.00  0.00    -0.236 C  
HETATM   12  C   UNL     1     -11.325  12.650  65.900  1.00  0.00    -0.334 C  
BRANCH  10  13
HETATM   13  O   UNL     1     -10.389  14.635  67.861  1.00  0.00    -0.234 OA 
BRANCH  13  14
HETATM   14  C   UNL     1     -10.258  15.657  68.865  1.00  0.00    -0.214 C  
BRANCH  14  15
HETATM   15  C   UNL     1     -10.626  17.023  68.300  1.00  0.00    -0.372 A  
HETATM   16  C   UNL     1     -11.421  17.898  69.061  1.00  0.00     1.997 A  
HETATM   17  C   UNL     1     -11.623  19.216  68.647  1.00  0.00     2.680 A  
HETATM   18  C   UNL     1     -10.092  17.480  67.084  1.00  0.00    -0.321 A  
HETATM   19  C   UNL     1     -10.297  18.797  66.668  1.00  0.00    -0.472 A  
HETATM   20 CL   UNL     1     -11.217  21.312  66.998  1.00  0.00     3.825 Cl 
HETATM   21  C   UNL     1     -11.043  19.665  67.462  1.00  0.00    -0.059 A  
ENDBRANCH  14  15
BRANCH  14  22
HETATM   22  C   UNL     1     -11.077  15.258  70.092  1.00  0.00    -0.293 A  
HETATM   23  C   UNL     1     -11.394  15.406  72.385  1.00  0.00    -0.277 A  
HETATM   24  C   UNL     1     -12.858  14.013  71.131  1.00  0.00    -0.427 A  
HETATM   25  C   UNL     1     -12.155  14.374  69.985  1.00  0.00    -0.401 A  
HETATM   26  N   UNL     1     -10.696  15.780  71.291  1.00  0.00     0.093 NA 
HETATM   27  C   UNL     1     -12.471  14.536  72.357  1.00  0.00    -0.351 A  
ENDBRANCH  14  22
ENDBRANCH  13  14
ENDBRANCH  10  13
ENDBRANCH   6   7
ENDBRANCH   5   6
ENDBRANCH   4   5
TORSDOF 7
ENDMDL
