MODEL        1
REMARK 921   NORMALIZED FREE ENERGY PREDICTED BY IDOCK:   -7.76 KCAL/MOL
REMARK 922        TOTAL FREE ENERGY PREDICTED BY IDOCK:   -8.79 KCAL/MOL
REMARK 923 INTER-LIGAND FREE ENERGY PREDICTED BY IDOCK:   -8.67 KCAL/MOL
REMARK 924 INTRA-LIGAND FREE ENERGY PREDICTED BY IDOCK:   -0.12 KCAL/MOL
REMARK 927      BINDING AFFINITY PREDICTED BY RF-SCORE:    0.00 PKD
ROOT
HETATM    1  C   UNL     1     -13.905   8.989  72.326  1.00  0.00    -0.484 C  
HETATM    2  O   UNL     1     -12.598   9.455  72.005  1.00  0.00    -0.371 OA 
ENDROOT
BRANCH   2   3
HETATM    3  C   UNL     1     -12.505  10.682  71.390  1.00  0.00    -0.390 A  
HETATM    4  C   UNL     1     -13.079  11.836  71.911  1.00  0.00    -0.482 A  
HETATM    5  C   UNL     1     -12.899  13.054  71.267  1.00  0.00    -0.370 A  
HETATM    6  C   UNL     1     -12.144  13.141  70.094  1.00  0.00    -0.392 A  
HETATM    7  C   UNL     1     -11.969  14.396  69.505  1.00  0.00    -0.376 A  
HETATM    8  C   UNL     1     -11.221  14.533  68.335  1.00  0.00    -0.271 A  
HETATM    9  C   UNL     1     -10.922  15.813  67.668  1.00  0.00    -0.302 A  
HETATM   10  C   UNL     1     -10.848  17.029  68.371  1.00  0.00    -0.333 A  
HETATM   11  C   UNL     1     -10.489  18.171  67.681  1.00  0.00    -0.416 A  
HETATM   12  C   UNL     1     -10.241  18.162  66.332  1.00  0.00    -0.399 A  
HETATM   13  C   UNL     1     -10.327  17.007  65.590  1.00  0.00    -0.226 A  
HETATM   14  O   UNL     1      -9.876  19.381  65.861  1.00  0.00    -0.411 OA 
HETATM   15  C   UNL     1      -9.829  20.143  67.086  1.00  0.00    -0.446 C  
HETATM   16  C   UNL     1     -10.635  15.823  66.272  1.00  0.00    -0.313 A  
HETATM   17  C   UNL     1     -10.625  14.506  65.549  1.00  0.00    -0.364 C  
HETATM   18  O   UNL     1     -10.307  19.400  68.231  1.00  0.00    -0.412 OA 
HETATM   19  C   UNL     1      -9.959  13.498  66.471  1.00  0.00    -0.287 C  
HETATM   20  N   UNL     1     -10.716  13.414  67.752  1.00  0.00    -0.245 NA 
HETATM   21  C   UNL     1     -10.849  12.199  68.333  1.00  0.00    -0.224 A  
HETATM   22  C   UNL     1     -11.556  11.984  69.526  1.00  0.00    -0.389 A  
HETATM   23  C   UNL     1     -11.735  10.734  70.198  1.00  0.00    -0.339 A  
BRANCH  23  24
HETATM   24  O   UNL     1     -11.265   9.494  69.855  1.00  0.00    -0.234 OA 
HETATM   25  C   UNL     1      -9.928   9.063  69.973  1.00  0.00    -0.188 C  
ENDBRANCH  23  24
ENDBRANCH   2   3
TORSDOF 2
ENDMDL
MODEL        2
REMARK 921   NORMALIZED FREE ENERGY PREDICTED BY IDOCK:   -7.63 KCAL/MOL
REMARK 922        TOTAL FREE ENERGY PREDICTED BY IDOCK:   -8.65 KCAL/MOL
REMARK 923 INTER-LIGAND FREE ENERGY PREDICTED BY IDOCK:   -8.90 KCAL/MOL
REMARK 924 INTRA-LIGAND FREE ENERGY PREDICTED BY IDOCK:    0.25 KCAL/MOL
REMARK 927      BINDING AFFINITY PREDICTED BY RF-SCORE:    0.00 PKD
ROOT
HETATM    1  C   UNL     1     -10.624  19.751  65.585  1.00  0.00    -0.355 C  
HETATM    2  O   UNL     1      -9.667  18.762  65.947  1.00  0.00    -0.485 OA 
ENDROOT
BRANCH   2   3
HETATM    3  C   UNL     1     -10.152  17.582  66.465  1.00  0.00    -0.331 A  
HETATM    4  C   UNL     1     -10.302  16.427  65.707  1.00  0.00    -0.388 A  
HETATM    5  C   UNL     1     -10.745  15.255  66.307  1.00  0.00    -0.315 A  
HETATM    6  C   UNL     1     -11.044  15.216  67.672  1.00  0.00    -0.318 A  
HETATM    7  C   UNL     1     -11.455  14.002  68.231  1.00  0.00    -0.337 A  
HETATM    8  C   UNL     1     -11.762  13.914  69.588  1.00  0.00    -0.311 A  
HETATM    9  C   UNL     1     -12.143  12.674  70.290  1.00  0.00    -0.372 A  
HETATM   10  C   UNL     1     -11.715  11.405  69.861  1.00  0.00    -0.424 A  
HETATM   11  C   UNL     1     -12.056  10.301  70.619  1.00  0.00    -0.338 A  
HETATM   12  C   UNL     1     -12.827  10.401  71.749  1.00  0.00    -0.456 A  
HETATM   13  C   UNL     1     -13.296  11.613  72.198  1.00  0.00    -0.310 A  
HETATM   14  O   UNL     1     -13.017   9.203  72.357  1.00  0.00    -0.410 OA 
HETATM   15  C   UNL     1     -12.198   8.346  71.533  1.00  0.00    -0.302 C  
HETATM   16  C   UNL     1     -12.921  12.756  71.481  1.00  0.00    -0.388 A  
HETATM   17  C   UNL     1     -13.294  14.123  71.981  1.00  0.00    -0.502 C  
HETATM   18  O   UNL     1     -11.660   9.024  70.376  1.00  0.00    -0.226 OA 
HETATM   19  C   UNL     1     -12.080  15.015  71.785  1.00  0.00    -0.361 C  
HETATM   20  N   UNL     1     -11.707  15.043  70.342  1.00  0.00    -0.271 NA 
HETATM   21  C   UNL     1     -11.276  16.215  69.820  1.00  0.00    -0.343 A  
HETATM   22  C   UNL     1     -10.917  16.377  68.473  1.00  0.00    -0.350 A  
HETATM   23  C   UNL     1     -10.450  17.579  67.853  1.00  0.00    -0.384 A  
BRANCH  23  24
HETATM   24  O   UNL     1     -10.239  18.812  68.411  1.00  0.00    -0.368 OA 
HETATM   25  C   UNL     1      -9.060  19.227  69.062  1.00  0.00    -0.252 C  
ENDBRANCH  23  24
ENDBRANCH   2   3
TORSDOF 2
ENDMDL
MODEL        3
REMARK 921   NORMALIZED FREE ENERGY PREDICTED BY IDOCK:   -7.36 KCAL/MOL
REMARK 922        TOTAL FREE ENERGY PREDICTED BY IDOCK:   -8.34 KCAL/MOL
REMARK 923 INTER-LIGAND FREE ENERGY PREDICTED BY IDOCK:   -8.26 KCAL/MOL
REMARK 924 INTRA-LIGAND FREE ENERGY PREDICTED BY IDOCK:   -0.08 KCAL/MOL
REMARK 927      BINDING AFFINITY PREDICTED BY RF-SCORE:    0.00 PKD
ROOT
HETATM    1  C   UNL     1     -10.864   7.378  73.181  1.00  0.00    -0.386 C  
HETATM    2  O   UNL     1     -11.715   7.392  72.040  1.00  0.00    -0.274 OA 
ENDROOT
BRANCH   2   3
HETATM    3  C   UNL     1     -11.790   8.568  71.330  1.00  0.00    -0.296 A  
HETATM    4  C   UNL     1     -12.444   9.699  71.807  1.00  0.00    -0.487 A  
HETATM    5  C   UNL     1     -12.434  10.872  71.062  1.00  0.00    -0.514 A  
HETATM    6  C   UNL     1     -11.773  10.937  69.832  1.00  0.00    -0.418 A  
HETATM    7  C   UNL     1     -11.769  12.151  69.139  1.00  0.00    -0.384 A  
HETATM    8  C   UNL     1     -11.121  12.264  67.910  1.00  0.00    -0.243 A  
HETATM    9  C   UNL     1     -11.002  13.508  67.129  1.00  0.00    -0.302 A  
HETATM   10  C   UNL     1     -11.006  14.779  67.732  1.00  0.00    -0.294 A  
HETATM   11  C   UNL     1     -10.814  15.890  66.934  1.00  0.00    -0.240 A  
HETATM   12  C   UNL     1     -10.659  15.796  65.575  1.00  0.00    -0.406 A  
HETATM   13  C   UNL     1     -10.675  14.582  64.929  1.00  0.00    -0.448 A  
HETATM   14  O   UNL     1     -10.454  17.002  64.988  1.00  0.00    -0.660 OA 
HETATM   15  C   UNL     1     -10.404  17.863  66.146  1.00  0.00    -0.352 C  
HETATM   16  C   UNL     1     -10.813  13.433  65.718  1.00  0.00    -0.283 A  
HETATM   17  C   UNL     1     -10.716  12.068  65.096  1.00  0.00    -0.332 C  
HETATM   18  O   UNL     1     -10.723  17.173  67.375  1.00  0.00    -0.323 OA 
HETATM   19  C   UNL     1      -9.889  11.208  66.037  1.00  0.00    -0.228 C  
HETATM   20  N   UNL     1     -10.545  11.156  67.375  1.00  0.00    -0.220 NA 
HETATM   21  C   UNL     1     -10.512   9.985  68.052  1.00  0.00    -0.218 A  
HETATM   22  C   UNL     1     -11.110   9.800  69.308  1.00  0.00    -0.184 A  
HETATM   23  C   UNL     1     -11.113   8.598  70.083  1.00  0.00    -0.192 A  
BRANCH  23  24
HETATM   24  O   UNL     1     -10.542   7.385  69.798  1.00  0.00    -0.227 OA 
HETATM   25  C   UNL     1     -11.075   6.412  68.930  1.00  0.00    -0.348 C  
ENDBRANCH  23  24
ENDBRANCH   2   3
TORSDOF 2
ENDMDL
MODEL        4
REMARK 921   NORMALIZED FREE ENERGY PREDICTED BY IDOCK:   -7.32 KCAL/MOL
REMARK 922        TOTAL FREE ENERGY PREDICTED BY IDOCK:   -8.30 KCAL/MOL
REMARK 923 INTER-LIGAND FREE ENERGY PREDICTED BY IDOCK:   -8.16 KCAL/MOL
REMARK 924 INTRA-LIGAND FREE ENERGY PREDICTED BY IDOCK:   -0.14 KCAL/MOL
REMARK 927      BINDING AFFINITY PREDICTED BY RF-SCORE:    0.00 PKD
ROOT
HETATM    1  C   UNL     1     -11.146   7.801  72.940  1.00  0.00    -0.398 C  
HETATM    2  O   UNL     1     -11.790   7.877  71.673  1.00  0.00    -0.268 OA 
ENDROOT
BRANCH   2   3
HETATM    3  C   UNL     1     -11.851   9.114  71.074  1.00  0.00    -0.292 A  
HETATM    4  C   UNL     1     -12.567  10.179  71.608  1.00  0.00    -0.533 A  
HETATM    5  C   UNL     1     -12.540  11.419  70.981  1.00  0.00    -0.487 A  
HETATM    6  C   UNL     1     -11.799  11.616  69.812  1.00  0.00    -0.428 A  
HETATM    7  C   UNL     1     -11.782  12.891  69.239  1.00  0.00    -0.378 A  
HETATM    8  C   UNL     1     -11.056  13.136  68.075  1.00  0.00    -0.263 A  
HETATM    9  C   UNL     1     -10.919  14.453  67.425  1.00  0.00    -0.303 A  
HETATM   10  C   UNL     1     -11.000  15.659  68.145  1.00  0.00    -0.314 A  
HETATM   11  C   UNL     1     -10.786  16.846  67.471  1.00  0.00    -0.270 A  
HETATM   12  C   UNL     1     -10.536  16.886  66.123  1.00  0.00    -0.272 A  
HETATM   13  C   UNL     1     -10.474  15.740  65.365  1.00  0.00    -0.438 A  
HETATM   14  O   UNL     1     -10.326  18.148  65.669  1.00  0.00    -0.603 OA 
HETATM   15  C   UNL     1     -10.378  18.893  66.905  1.00  0.00    -0.406 C  
HETATM   16  C   UNL     1     -10.632  14.518  66.030  1.00  0.00    -0.311 A  
HETATM   17  C   UNL     1     -10.455  13.222  65.291  1.00  0.00    -0.324 C  
HETATM   18  O   UNL     1     -10.760  18.081  68.037  1.00  0.00    -0.376 OA 
HETATM   19  C   UNL     1      -9.670  12.293  66.202  1.00  0.00    -0.245 C  
HETATM   20  N   UNL     1     -10.413  12.098  67.479  1.00  0.00    -0.207 NA 
HETATM   21  C   UNL     1     -10.393  10.868  68.043  1.00  0.00    -0.185 A  
HETATM   22  C   UNL     1     -11.070  10.550  69.231  1.00  0.00    -0.298 A  
HETATM   23  C   UNL     1     -11.091   9.278  69.886  1.00  0.00    -0.181 A  
BRANCH  23  24
HETATM   24  O   UNL     1     -10.468   8.112  69.528  1.00  0.00    -0.223 OA 
HETATM   25  C   UNL     1      -9.080   7.873  69.586  1.00  0.00    -0.153 C  
ENDBRANCH  23  24
ENDBRANCH   2   3
TORSDOF 2
ENDMDL
MODEL        5
REMARK 921   NORMALIZED FREE ENERGY PREDICTED BY IDOCK:   -7.11 KCAL/MOL
REMARK 922        TOTAL FREE ENERGY PREDICTED BY IDOCK:   -8.06 KCAL/MOL
REMARK 923 INTER-LIGAND FREE ENERGY PREDICTED BY IDOCK:   -7.93 KCAL/MOL
REMARK 924 INTRA-LIGAND FREE ENERGY PREDICTED BY IDOCK:   -0.14 KCAL/MOL
REMARK 927      BINDING AFFINITY PREDICTED BY RF-SCORE:    0.00 PKD
ROOT
HETATM    1  C   UNL     1     -12.174   6.532  72.056  1.00  0.00    -0.295 C  
HETATM    2  O   UNL     1     -11.073   7.024  71.300  1.00  0.00    -0.243 OA 
ENDROOT
BRANCH   2   3
HETATM    3  C   UNL     1     -11.223   8.256  70.706  1.00  0.00    -0.264 A  
HETATM    4  C   UNL     1     -11.787   9.347  71.357  1.00  0.00    -0.447 A  
HETATM    5  C   UNL     1     -11.857  10.579  70.717  1.00  0.00    -0.465 A  
HETATM    6  C   UNL     1     -11.365  10.742  69.419  1.00  0.00    -0.351 A  
HETATM    7  C   UNL     1     -11.433  12.010  68.834  1.00  0.00    -0.356 A  
HETATM    8  C   UNL     1     -10.953  12.221  67.541  1.00  0.00    -0.254 A  
HETATM    9  C   UNL     1     -10.918  13.526  66.856  1.00  0.00    -0.296 A  
HETATM   10  C   UNL     1     -10.820  14.742  67.557  1.00  0.00    -0.287 A  
HETATM   11  C   UNL     1     -10.717  15.915  66.835  1.00  0.00    -0.289 A  
HETATM   12  C   UNL     1     -10.746  15.933  65.464  1.00  0.00    -0.372 A  
HETATM   13  C   UNL     1     -10.870  14.778  64.728  1.00  0.00    -0.395 A  
HETATM   14  O   UNL     1     -10.601  17.183  64.956  1.00  0.00    -0.704 OA 
HETATM   15  C   UNL     1     -10.381  17.944  66.163  1.00  0.00    -0.352 C  
HETATM   16  C   UNL     1     -10.921  13.567  65.432  1.00  0.00    -0.300 A  
HETATM   17  C   UNL     1     -10.931  12.259  64.693  1.00  0.00    -0.349 C  
HETATM   18  O   UNL     1     -10.545  17.155  67.363  1.00  0.00    -0.337 OA 
HETATM   19  C   UNL     1     -10.001  11.319  65.440  1.00  0.00    -0.250 C  
HETATM   20  N   UNL     1     -10.472  11.159  66.845  1.00  0.00    -0.235 NA 
HETATM   21  C   UNL     1     -10.370   9.935  67.413  1.00  0.00    -0.246 A  
HETATM   22  C   UNL     1     -10.798   9.649  68.719  1.00  0.00    -0.199 A  
HETATM   23  C   UNL     1     -10.718   8.386  69.385  1.00  0.00    -0.152 A  
BRANCH  23  24
HETATM   24  O   UNL     1     -10.210   7.198  68.927  1.00  0.00    -0.175 OA 
HETATM   25  C   UNL     1     -10.821   6.360  67.973  1.00  0.00    -0.316 C  
ENDBRANCH  23  24
ENDBRANCH   2   3
TORSDOF 2
ENDMDL
MODEL        6
REMARK 921   NORMALIZED FREE ENERGY PREDICTED BY IDOCK:   -6.87 KCAL/MOL
REMARK 922        TOTAL FREE ENERGY PREDICTED BY IDOCK:   -7.80 KCAL/MOL
REMARK 923 INTER-LIGAND FREE ENERGY PREDICTED BY IDOCK:   -7.72 KCAL/MOL
REMARK 924 INTRA-LIGAND FREE ENERGY PREDICTED BY IDOCK:   -0.08 KCAL/MOL
REMARK 927      BINDING AFFINITY PREDICTED BY RF-SCORE:    0.00 PKD
ROOT
HETATM    1  C   UNL     1     -11.673   8.383  72.008  1.00  0.00    -0.352 C  
HETATM    2  O   UNL     1     -11.580   8.666  70.616  1.00  0.00    -0.271 OA 
ENDROOT
BRANCH   2   3
HETATM    3  C   UNL     1     -11.631   9.989  70.242  1.00  0.00    -0.280 A  
HETATM    4  C   UNL     1     -12.241  10.971  71.014  1.00  0.00    -0.456 A  
HETATM    5  C   UNL     1     -12.207  12.299  70.603  1.00  0.00    -0.378 A  
HETATM    6  C   UNL     1     -11.566  12.667  69.417  1.00  0.00    -0.369 A  
HETATM    7  C   UNL     1     -11.536  14.020  69.067  1.00  0.00    -0.337 A  
HETATM    8  C   UNL     1     -10.905  14.435  67.895  1.00  0.00    -0.251 A  
HETATM    9  C   UNL     1     -10.760  15.838  67.465  1.00  0.00    -0.317 A  
HETATM   10  C   UNL     1     -10.715  16.905  68.380  1.00  0.00    -0.368 A  
HETATM   11  C   UNL     1     -10.502  18.182  67.897  1.00  0.00    -0.392 A  
HETATM   12  C   UNL     1     -10.373  18.444  66.558  1.00  0.00    -0.400 A  
HETATM   13  C   UNL     1     -10.438  17.444  65.616  1.00  0.00    -0.173 A  
HETATM   14  O   UNL     1     -10.140  19.757  66.303  1.00  0.00    -0.420 OA 
HETATM   15  C   UNL     1     -10.043  20.281  67.645  1.00  0.00    -0.375 C  
HETATM   16  C   UNL     1     -10.598  16.131  66.080  1.00  0.00    -0.303 A  
HETATM   17  C   UNL     1     -10.554  14.976  65.120  1.00  0.00    -0.440 C  
HETATM   18  O   UNL     1     -10.363  19.300  68.657  1.00  0.00    -0.380 OA 
HETATM   19  C   UNL     1      -9.738  13.878  65.781  1.00  0.00    -0.164 C  
HETATM   20  N   UNL     1     -10.372  13.493  67.074  1.00  0.00    -0.251 NA 
HETATM   21  C   UNL     1     -10.365  12.184  67.420  1.00  0.00    -0.205 A  
HETATM   22  C   UNL     1     -10.947  11.691  68.598  1.00  0.00    -0.266 A  
HETATM   23  C   UNL     1     -10.974  10.328  69.030  1.00  0.00    -0.232 A  
BRANCH  23  24
HETATM   24  O   UNL     1     -10.446   9.219  68.423  1.00  0.00    -0.204 OA 
HETATM   25  C   UNL     1     -10.781   8.751  67.136  1.00  0.00    -0.134 C  
ENDBRANCH  23  24
ENDBRANCH   2   3
TORSDOF 2
ENDMDL
MODEL        7
REMARK 921   NORMALIZED FREE ENERGY PREDICTED BY IDOCK:   -6.84 KCAL/MOL
REMARK 922        TOTAL FREE ENERGY PREDICTED BY IDOCK:   -7.76 KCAL/MOL
REMARK 923 INTER-LIGAND FREE ENERGY PREDICTED BY IDOCK:   -7.64 KCAL/MOL
REMARK 924 INTRA-LIGAND FREE ENERGY PREDICTED BY IDOCK:   -0.12 KCAL/MOL
REMARK 927      BINDING AFFINITY PREDICTED BY RF-SCORE:    0.00 PKD
ROOT
HETATM    1  C   UNL     1      -9.427   3.740  72.500  1.00  0.00    -0.124 C  
HETATM    2  O   UNL     1      -9.884   4.261  71.257  1.00  0.00    -0.178 OA 
ENDROOT
BRANCH   2   3
HETATM    3  C   UNL     1     -10.519   5.482  71.286  1.00  0.00    -0.239 A  
HETATM    4  C   UNL     1     -11.657   5.725  72.048  1.00  0.00    -0.226 A  
HETATM    5  C   UNL     1     -12.216   6.997  72.075  1.00  0.00    -0.317 A  
HETATM    6  C   UNL     1     -11.650   8.045  71.344  1.00  0.00    -0.301 A  
HETATM    7  C   UNL     1     -12.236   9.312  71.432  1.00  0.00    -0.426 A  
HETATM    8  C   UNL     1     -11.705  10.389  70.723  1.00  0.00    -0.368 A  
HETATM    9  C   UNL     1     -12.204  11.774  70.794  1.00  0.00    -0.424 A  
HETATM   10  C   UNL     1     -12.850  12.285  71.934  1.00  0.00    -0.318 A  
HETATM   11  C   UNL     1     -13.219  13.616  71.944  1.00  0.00    -0.411 A  
HETATM   12  C   UNL     1     -13.011  14.441  70.868  1.00  0.00    -0.348 A  
HETATM   13  C   UNL     1     -12.410  13.988  69.717  1.00  0.00    -0.344 A  
HETATM   14  O   UNL     1     -13.420  15.714  71.099  1.00  0.00    -0.552 OA 
HETATM   15  C   UNL     1     -13.825  15.622  72.482  1.00  0.00    -0.555 C  
HETATM   16  C   UNL     1     -11.975  12.656  69.697  1.00  0.00    -0.352 A  
HETATM   17  C   UNL     1     -11.202  12.127  68.522  1.00  0.00    -0.307 C  
HETATM   18  O   UNL     1     -13.784  14.271  72.993  1.00  0.00    -0.613 OA 
HETATM   19  C   UNL     1     -10.076  11.272  69.079  1.00  0.00    -0.128 C  
HETATM   20  N   UNL     1     -10.645  10.168  69.903  1.00  0.00    -0.269 NA 
HETATM   21  C   UNL     1     -10.049   8.955  69.837  1.00  0.00    -0.195 A  
HETATM   22  C   UNL     1     -10.501   7.831  70.545  1.00  0.00    -0.217 A  
HETATM   23  C   UNL     1      -9.922   6.523  70.529  1.00  0.00    -0.184 A  
BRANCH  23  24
HETATM   24  O   UNL     1      -8.819   6.075  69.850  1.00  0.00    -0.135 OA 
HETATM   25  C   UNL     1      -8.773   5.763  68.476  1.00  0.00    -0.111 C  
ENDBRANCH  23  24
ENDBRANCH   2   3
TORSDOF 2
ENDMDL
MODEL        8
REMARK 921   NORMALIZED FREE ENERGY PREDICTED BY IDOCK:   -6.83 KCAL/MOL
REMARK 922        TOTAL FREE ENERGY PREDICTED BY IDOCK:   -7.74 KCAL/MOL
REMARK 923 INTER-LIGAND FREE ENERGY PREDICTED BY IDOCK:   -7.70 KCAL/MOL
REMARK 924 INTRA-LIGAND FREE ENERGY PREDICTED BY IDOCK:   -0.05 KCAL/MOL
REMARK 927      BINDING AFFINITY PREDICTED BY RF-SCORE:    0.00 PKD
ROOT
HETATM    1  C   UNL     1     -12.112  12.993  63.206  1.00  0.00    -0.422 C  
HETATM    2  O   UNL     1     -11.117  13.207  64.202  1.00  0.00    -0.375 OA 
ENDROOT
BRANCH   2   3
HETATM    3  C   UNL     1     -10.993  12.246  65.179  1.00  0.00    -0.303 A  
HETATM    4  C   UNL     1     -10.310  11.051  64.983  1.00  0.00    -0.360 A  
HETATM    5  C   UNL     1     -10.175  10.148  66.030  1.00  0.00    -0.288 A  
HETATM    6  C   UNL     1     -10.718  10.421  67.288  1.00  0.00    -0.331 A  
HETATM    7  C   UNL     1     -10.526   9.492  68.315  1.00  0.00    -0.265 A  
HETATM    8  C   UNL     1     -11.048   9.723  69.587  1.00  0.00    -0.217 A  
HETATM    9  C   UNL     1     -10.850   8.843  70.754  1.00  0.00    -0.294 A  
HETATM   10  C   UNL     1      -9.716   8.022  70.895  1.00  0.00    -0.183 A  
HETATM   11  C   UNL     1      -9.574   7.284  72.054  1.00  0.00    -0.150 A  
HETATM   12  C   UNL     1     -10.518   7.298  73.049  1.00  0.00    -0.310 A  
HETATM   13  C   UNL     1     -11.659   8.058  72.951  1.00  0.00    -0.281 A  
HETATM   14  O   UNL     1     -10.168   6.528  74.110  1.00  0.00    -0.315 OA 
HETATM   15  C   UNL     1      -8.848   6.100  73.712  1.00  0.00    -0.123 C  
HETATM   16  C   UNL     1     -11.806   8.860  71.812  1.00  0.00    -0.429 A  
HETATM   17  C   UNL     1     -12.965   9.809  71.693  1.00  0.00    -0.517 C  
HETATM   18  O   UNL     1      -8.506   6.505  72.367  1.00  0.00    -0.119 OA 
HETATM   19  C   UNL     1     -12.421  11.105  71.117  1.00  0.00    -0.393 C  
HETATM   20  N   UNL     1     -11.793  10.840  69.792  1.00  0.00    -0.312 NA 
HETATM   21  C   UNL     1     -11.956  11.763  68.816  1.00  0.00    -0.257 A  
HETATM   22  C   UNL     1     -11.434  11.621  67.521  1.00  0.00    -0.360 A  
HETATM   23  C   UNL     1     -11.561  12.553  66.443  1.00  0.00    -0.391 A  
BRANCH  23  24
HETATM   24  O   UNL     1     -12.191  13.770  66.423  1.00  0.00    -0.429 OA 
HETATM   25  C   UNL     1     -11.757  14.928  67.098  1.00  0.00    -0.277 C  
ENDBRANCH  23  24
ENDBRANCH   2   3
TORSDOF 2
ENDMDL
MODEL        9
REMARK 921   NORMALIZED FREE ENERGY PREDICTED BY IDOCK:   -6.77 KCAL/MOL
REMARK 922        TOTAL FREE ENERGY PREDICTED BY IDOCK:   -7.68 KCAL/MOL
REMARK 923 INTER-LIGAND FREE ENERGY PREDICTED BY IDOCK:   -7.56 KCAL/MOL
REMARK 924 INTRA-LIGAND FREE ENERGY PREDICTED BY IDOCK:   -0.12 KCAL/MOL
REMARK 927      BINDING AFFINITY PREDICTED BY RF-SCORE:    0.00 PKD
ROOT
HETATM    1  C   UNL     1     -11.506  15.863  64.341  1.00  0.00    -0.264 C  
HETATM    2  O   UNL     1     -10.875  15.673  65.603  1.00  0.00    -0.334 OA 
ENDROOT
BRANCH   2   3
HETATM    3  C   UNL     1     -11.004  14.432  66.186  1.00  0.00    -0.320 A  
HETATM    4  C   UNL     1     -10.723  13.248  65.514  1.00  0.00    -0.299 A  
HETATM    5  C   UNL     1     -10.820  12.032  66.181  1.00  0.00    -0.325 A  
HETATM    6  C   UNL     1     -11.198  11.979  67.525  1.00  0.00    -0.357 A  
HETATM    7  C   UNL     1     -11.249  10.731  68.154  1.00  0.00    -0.365 A  
HETATM    8  C   UNL     1     -11.619  10.628  69.495  1.00  0.00    -0.288 A  
HETATM    9  C   UNL     1     -11.644   9.375  70.271  1.00  0.00    -0.181 A  
HETATM   10  C   UNL     1     -10.806   8.286  69.969  1.00  0.00    -0.232 A  
HETATM   11  C   UNL     1     -10.842   7.177  70.792  1.00  0.00    -0.244 A  
HETATM   12  C   UNL     1     -11.691   7.090  71.866  1.00  0.00    -0.296 A  
HETATM   13  C   UNL     1     -12.552   8.112  72.189  1.00  0.00    -0.349 A  
HETATM   14  O   UNL     1     -11.543   5.931  72.556  1.00  0.00    -0.302 OA 
HETATM   15  C   UNL     1     -10.433   5.335  71.850  1.00  0.00    -0.219 C  
HETATM   16  C   UNL     1     -12.501   9.272  71.406  1.00  0.00    -0.418 A  
HETATM   17  C   UNL     1     -13.322  10.475  71.774  1.00  0.00    -0.446 C  
HETATM   18  O   UNL     1     -10.046   6.081  70.675  1.00  0.00    -0.182 OA 
HETATM   19  C   UNL     1     -12.439  11.695  71.576  1.00  0.00    -0.133 C  
HETATM   20  N   UNL     1     -11.981  11.757  70.158  1.00  0.00    -0.342 NA 
HETATM   21  C   UNL     1     -11.901  12.974  69.570  1.00  0.00    -0.323 A  
HETATM   22  C   UNL     1     -11.506  13.164  68.237  1.00  0.00    -0.349 A  
HETATM   23  C   UNL     1     -11.394  14.414  67.551  1.00  0.00    -0.328 A  
BRANCH  23  24
HETATM   24  O   UNL     1     -11.626  15.680  68.019  1.00  0.00    -0.332 OA 
HETATM   25  C   UNL     1     -10.847  16.354  68.981  1.00  0.00    -0.331 C  
ENDBRANCH  23  24
ENDBRANCH   2   3
TORSDOF 2
ENDMDL
MODEL       10
REMARK 921   NORMALIZED FREE ENERGY PREDICTED BY IDOCK:   -6.75 KCAL/MOL
REMARK 922        TOTAL FREE ENERGY PREDICTED BY IDOCK:   -7.66 KCAL/MOL
REMARK 923 INTER-LIGAND FREE ENERGY PREDICTED BY IDOCK:   -7.52 KCAL/MOL
REMARK 924 INTRA-LIGAND FREE ENERGY PREDICTED BY IDOCK:   -0.14 KCAL/MOL
REMARK 927      BINDING AFFINITY PREDICTED BY RF-SCORE:    0.00 PKD
ROOT
HETATM    1  C   UNL     1     -10.390  17.120  68.803  1.00  0.00    -0.353 C  
HETATM    2  O   UNL     1     -11.520  16.302  68.519  1.00  0.00    -0.371 OA 
ENDROOT
BRANCH   2   3
HETATM    3  C   UNL     1     -11.362  14.943  68.669  1.00  0.00    -0.292 A  
HETATM    4  C   UNL     1     -10.500  14.190  67.879  1.00  0.00    -0.237 A  
HETATM    5  C   UNL     1     -10.347  12.830  68.120  1.00  0.00    -0.243 A  
HETATM    6  C   UNL     1     -11.049  12.200  69.151  1.00  0.00    -0.263 A  
HETATM    7  C   UNL     1     -10.833  10.836  69.369  1.00  0.00    -0.289 A  
HETATM    8  C   UNL     1     -11.510  10.166  70.388  1.00  0.00    -0.322 A  
HETATM    9  C   UNL     1     -11.310   8.749  70.744  1.00  0.00    -0.313 A  
HETATM   10  C   UNL     1     -10.092   8.081  70.522  1.00  0.00    -0.195 A  
HETATM   11  C   UNL     1      -9.967   6.775  70.953  1.00  0.00    -0.186 A  
HETATM   12  C   UNL     1     -10.999   6.100  71.553  1.00  0.00    -0.273 A  
HETATM   13  C   UNL     1     -12.221   6.694  71.769  1.00  0.00    -0.400 A  
HETATM   14  O   UNL     1     -10.655   4.842  71.925  1.00  0.00    -0.173 OA 
HETATM   15  C   UNL     1      -9.254   4.830  71.576  1.00  0.00    -0.142 C  
HETATM   16  C   UNL     1     -12.361   8.037  71.392  1.00  0.00    -0.328 A  
HETATM   17  C   UNL     1     -13.624   8.786  71.708  1.00  0.00    -0.453 C  
HETATM   18  O   UNL     1      -8.837   6.023  70.876  1.00  0.00    -0.134 OA 
HETATM   19  C   UNL     1     -13.213  10.169  72.187  1.00  0.00    -0.362 C  
HETATM   20  N   UNL     1     -12.422  10.852  71.124  1.00  0.00    -0.390 NA 
HETATM   21  C   UNL     1     -12.613  12.180  70.945  1.00  0.00    -0.247 A  
HETATM   22  C   UNL     1     -11.947  12.933  69.966  1.00  0.00    -0.380 A  
HETATM   23  C   UNL     1     -12.093  14.334  69.722  1.00  0.00    -0.347 A  
BRANCH  23  24
HETATM   24  O   UNL     1     -12.883  15.246  70.372  1.00  0.00    -0.370 OA 
HETATM   25  C   UNL     1     -12.686  15.710  71.688  1.00  0.00    -0.456 C  
ENDBRANCH  23  24
ENDBRANCH   2   3
TORSDOF 2
ENDMDL
MODEL       11
REMARK 921   NORMALIZED FREE ENERGY PREDICTED BY IDOCK:   -6.74 KCAL/MOL
REMARK 922        TOTAL FREE ENERGY PREDICTED BY IDOCK:   -7.65 KCAL/MOL
REMARK 923 INTER-LIGAND FREE ENERGY PREDICTED BY IDOCK:   -7.56 KCAL/MOL
REMARK 924 INTRA-LIGAND FREE ENERGY PREDICTED BY IDOCK:   -0.09 KCAL/MOL
REMARK 927      BINDING AFFINITY PREDICTED BY RF-SCORE:    0.00 PKD
ROOT
HETATM    1  C   UNL     1     -11.080   5.973  71.195  1.00  0.00    -0.271 C  
HETATM    2  O   UNL     1     -10.288   6.436  70.106  1.00  0.00    -0.184 OA 
ENDROOT
BRANCH   2   3
HETATM    3  C   UNL     1     -10.560   7.698  69.627  1.00  0.00    -0.243 A  
HETATM    4  C   UNL     1     -10.990   8.739  70.440  1.00  0.00    -0.262 A  
HETATM    5  C   UNL     1     -11.193  10.004  69.901  1.00  0.00    -0.327 A  
HETATM    6  C   UNL     1     -10.969  10.249  68.543  1.00  0.00    -0.294 A  
HETATM    7  C   UNL     1     -11.159  11.547  68.059  1.00  0.00    -0.313 A  
HETATM    8  C   UNL     1     -10.946  11.840  66.712  1.00  0.00    -0.288 A  
HETATM    9  C   UNL     1     -11.055  13.182  66.112  1.00  0.00    -0.301 A  
HETATM   10  C   UNL     1     -10.827  14.358  66.851  1.00  0.00    -0.301 A  
HETATM   11  C   UNL     1     -10.877  15.571  66.193  1.00  0.00    -0.295 A  
HETATM   12  C   UNL     1     -11.178  15.667  64.858  1.00  0.00    -0.369 A  
HETATM   13  C   UNL     1     -11.438  14.554  64.095  1.00  0.00    -0.072 A  
HETATM   14  O   UNL     1     -11.143  16.947  64.407  1.00  0.00    -1.128 OA 
HETATM   15  C   UNL     1     -10.693  17.641  65.590  1.00  0.00    -0.084 C  
HETATM   16  C   UNL     1     -11.341  13.304  64.721  1.00  0.00    -0.350 A  
HETATM   17  C   UNL     1     -11.490  12.040  63.923  1.00  0.00    -0.518 C  
HETATM   18  O   UNL     1     -10.611  16.782  66.750  1.00  0.00    -0.288 OA 
HETATM   19  C   UNL     1     -10.424  11.075  64.414  1.00  0.00    -0.354 C  
HETATM   20  N   UNL     1     -10.607  10.827  65.873  1.00  0.00    -0.192 NA 
HETATM   21  C   UNL     1     -10.386   9.575  66.336  1.00  0.00    -0.173 A  
HETATM   22  C   UNL     1     -10.545   9.208  67.681  1.00  0.00    -0.307 A  
HETATM   23  C   UNL     1     -10.327   7.911  68.243  1.00  0.00    -0.197 A  
BRANCH  23  24
HETATM   24  O   UNL     1      -9.914   6.760  67.624  1.00  0.00    -0.126 OA 
HETATM   25  C   UNL     1     -10.746   5.858  66.931  1.00  0.00    -0.321 C  
ENDBRANCH  23  24
ENDBRANCH   2   3
TORSDOF 2
ENDMDL
MODEL       12
REMARK 921   NORMALIZED FREE ENERGY PREDICTED BY IDOCK:   -6.74 KCAL/MOL
REMARK 922        TOTAL FREE ENERGY PREDICTED BY IDOCK:   -7.65 KCAL/MOL
REMARK 923 INTER-LIGAND FREE ENERGY PREDICTED BY IDOCK:   -7.58 KCAL/MOL
REMARK 924 INTRA-LIGAND FREE ENERGY PREDICTED BY IDOCK:   -0.07 KCAL/MOL
REMARK 927      BINDING AFFINITY PREDICTED BY RF-SCORE:    0.00 PKD
ROOT
HETATM    1  C   UNL     1     -10.752   6.555  73.074  1.00  0.00    -0.263 C  
HETATM    2  O   UNL     1     -11.690   6.754  72.021  1.00  0.00    -0.281 OA 
ENDROOT
BRANCH   2   3
HETATM    3  C   UNL     1     -11.778   8.022  71.494  1.00  0.00    -0.284 A  
HETATM    4  C   UNL     1     -12.412   9.072  72.149  1.00  0.00    -0.450 A  
HETATM    5  C   UNL     1     -12.417  10.342  71.585  1.00  0.00    -0.491 A  
HETATM    6  C   UNL     1     -11.790  10.585  70.360  1.00  0.00    -0.431 A  
HETATM    7  C   UNL     1     -11.798  11.888  69.853  1.00  0.00    -0.418 A  
HETATM    8  C   UNL     1     -11.183  12.179  68.636  1.00  0.00    -0.269 A  
HETATM    9  C   UNL     1     -11.078  13.525  68.043  1.00  0.00    -0.283 A  
HETATM   10  C   UNL     1     -11.060  14.693  68.826  1.00  0.00    -0.274 A  
HETATM   11  C   UNL     1     -10.884  15.910  68.195  1.00  0.00    -0.317 A  
HETATM   12  C   UNL     1     -10.766  16.015  66.833  1.00  0.00    -0.262 A  
HETATM   13  C   UNL     1     -10.807  14.910  66.016  1.00  0.00    -0.328 A  
HETATM   14  O   UNL     1     -10.571  17.295  66.424  1.00  0.00    -0.281 OA 
HETATM   15  C   UNL     1     -10.484  17.976  67.694  1.00  0.00    -0.409 C  
HETATM   16  C   UNL     1     -10.929  13.657  66.632  1.00  0.00    -0.295 A  
HETATM   17  C   UNL     1     -10.856  12.399  65.814  1.00  0.00    -0.312 C  
HETATM   18  O   UNL     1     -10.773  17.113  68.817  1.00  0.00    -0.337 OA 
HETATM   19  C   UNL     1     -10.008  11.409  66.595  1.00  0.00    -0.208 C  
HETATM   20  N   UNL     1     -10.627  11.161  67.928  1.00  0.00    -0.187 NA 
HETATM   21  C   UNL     1     -10.583   9.903  68.425  1.00  0.00    -0.222 A  
HETATM   22  C   UNL     1     -11.147   9.537  69.657  1.00  0.00    -0.196 A  
HETATM   23  C   UNL     1     -11.135   8.234  70.246  1.00  0.00    -0.219 A  
BRANCH  23  24
HETATM   24  O   UNL     1     -10.578   7.076  69.771  1.00  0.00    -0.218 OA 
HETATM   25  C   UNL     1     -11.116   6.267  68.749  1.00  0.00    -0.346 C  
ENDBRANCH  23  24
ENDBRANCH   2   3
TORSDOF 2
ENDMDL
MODEL       13
REMARK 921   NORMALIZED FREE ENERGY PREDICTED BY IDOCK:   -6.65 KCAL/MOL
REMARK 922        TOTAL FREE ENERGY PREDICTED BY IDOCK:   -7.55 KCAL/MOL
REMARK 923 INTER-LIGAND FREE ENERGY PREDICTED BY IDOCK:   -7.47 KCAL/MOL
REMARK 924 INTRA-LIGAND FREE ENERGY PREDICTED BY IDOCK:   -0.09 KCAL/MOL
REMARK 927      BINDING AFFINITY PREDICTED BY RF-SCORE:    0.00 PKD
ROOT
HETATM    1  C   UNL     1     -10.690   5.543  71.259  1.00  0.00    -0.218 C  
HETATM    2  O   UNL     1     -11.741   6.381  70.791  1.00  0.00    -0.366 OA 
ENDROOT
BRANCH   2   3
HETATM    3  C   UNL     1     -11.390   7.634  70.342  1.00  0.00    -0.219 A  
HETATM    4  C   UNL     1     -10.449   7.842  69.341  1.00  0.00    -0.222 A  
HETATM    5  C   UNL     1     -10.182   9.131  68.896  1.00  0.00    -0.221 A  
HETATM    6  C   UNL     1     -10.850  10.231  69.441  1.00  0.00    -0.282 A  
HETATM    7  C   UNL     1     -10.566  11.503  68.934  1.00  0.00    -0.236 A  
HETATM    8  C   UNL     1     -11.209  12.630  69.445  1.00  0.00    -0.139 A  
HETATM    9  C   UNL     1     -11.032  14.004  68.942  1.00  0.00    -0.283 A  
HETATM   10  C   UNL     1     -10.675  14.278  67.609  1.00  0.00    -0.259 A  
HETATM   11  C   UNL     1     -10.603  15.596  67.201  1.00  0.00    -0.308 A  
HETATM   12  C   UNL     1     -10.829  16.640  68.061  1.00  0.00    -0.337 A  
HETATM   13  C   UNL     1     -11.153  16.432  69.381  1.00  0.00    -0.300 A  
HETATM   14  O   UNL     1     -10.737  17.849  67.450  1.00  0.00    -0.370 OA 
HETATM   15  C   UNL     1     -10.518  17.445  66.081  1.00  0.00    -0.284 C  
HETATM   16  C   UNL     1     -11.288  15.105  69.811  1.00  0.00    -0.307 A  
HETATM   17  C   UNL     1     -11.759  14.802  71.205  1.00  0.00    -0.360 C  
HETATM   18  O   UNL     1     -10.342  16.018  65.936  1.00  0.00    -0.328 OA 
HETATM   19  C   UNL     1     -12.744  13.650  71.101  1.00  0.00    -0.353 C  
HETATM   20  N   UNL     1     -12.073  12.472  70.481  1.00  0.00    -0.345 NA 
HETATM   21  C   UNL     1     -12.383  11.242  70.956  1.00  0.00    -0.366 A  
HETATM   22  C   UNL     1     -11.805  10.058  70.473  1.00  0.00    -0.387 A  
HETATM   23  C   UNL     1     -12.084   8.729  70.920  1.00  0.00    -0.162 A  
BRANCH  23  24
HETATM   24  O   UNL     1     -12.961   8.309  71.886  1.00  0.00    -0.328 OA 
HETATM   25  C   UNL     1     -14.348   8.132  71.713  1.00  0.00    -0.484 C  
ENDBRANCH  23  24
ENDBRANCH   2   3
TORSDOF 2
ENDMDL
MODEL       14
REMARK 921   NORMALIZED FREE ENERGY PREDICTED BY IDOCK:   -6.54 KCAL/MOL
REMARK 922        TOTAL FREE ENERGY PREDICTED BY IDOCK:   -7.43 KCAL/MOL
REMARK 923 INTER-LIGAND FREE ENERGY PREDICTED BY IDOCK:   -7.30 KCAL/MOL
REMARK 924 INTRA-LIGAND FREE ENERGY PREDICTED BY IDOCK:   -0.13 KCAL/MOL
REMARK 927      BINDING AFFINITY PREDICTED BY RF-SCORE:    0.00 PKD
ROOT
HETATM    1  C   UNL     1     -13.268  15.770  73.215  1.00  0.00    -0.581 C  
HETATM    2  O   UNL     1     -13.782  15.255  71.991  1.00  0.00    -0.404 OA 
ENDROOT
BRANCH   2   3
HETATM    3  C   UNL     1     -13.214  14.096  71.512  1.00  0.00    -0.353 A  
HETATM    4  C   UNL     1     -13.428  12.852  72.095  1.00  0.00    -0.619 A  
HETATM    5  C   UNL     1     -12.869  11.714  71.526  1.00  0.00    -0.469 A  
HETATM    6  C   UNL     1     -12.089  11.799  70.370  1.00  0.00    -0.440 A  
HETATM    7  C   UNL     1     -11.576  10.618  69.823  1.00  0.00    -0.385 A  
HETATM    8  C   UNL     1     -10.794  10.653  68.668  1.00  0.00    -0.227 A  
HETATM    9  C   UNL     1     -10.259   9.467  67.975  1.00  0.00    -0.248 A  
HETATM   10  C   UNL     1     -10.894   8.213  68.029  1.00  0.00    -0.009 A  
HETATM   11  C   UNL     1     -10.366   7.172  67.289  1.00  0.00    -0.272 A  
HETATM   12  C   UNL     1      -9.227   7.314  66.539  1.00  0.00    -0.157 A  
HETATM   13  C   UNL     1      -8.549   8.508  66.473  1.00  0.00    -0.130 A  
HETATM   14  O   UNL     1      -8.899   6.180  65.869  1.00  0.00    -0.153 OA 
HETATM   15  C   UNL     1     -10.017   5.332  66.208  1.00  0.00    -0.192 C  
HETATM   16  C   UNL     1      -9.091   9.597  67.168  1.00  0.00    -0.152 A  
HETATM   17  C   UNL     1      -8.475  10.962  67.043  1.00  0.00    -0.134 C  
HETATM   18  O   UNL     1     -10.903   5.928  67.182  1.00  0.00    -0.296 OA 
HETATM   19  C   UNL     1      -9.617  11.956  66.921  1.00  0.00    -0.200 C  
HETATM   20  N   UNL     1     -10.496  11.860  68.121  1.00  0.00    -0.200 NA 
HETATM   21  C   UNL     1     -11.015  13.005  68.621  1.00  0.00    -0.265 A  
HETATM   22  C   UNL     1     -11.837  13.051  69.758  1.00  0.00    -0.381 A  
HETATM   23  C   UNL     1     -12.424  14.219  70.339  1.00  0.00    -0.362 A  
BRANCH  23  24
HETATM   24  O   UNL     1     -12.335  15.524  69.932  1.00  0.00    -0.357 OA 
HETATM   25  C   UNL     1     -11.184  16.333  70.019  1.00  0.00    -0.319 C  
ENDBRANCH  23  24
ENDBRANCH   2   3
TORSDOF 2
ENDMDL
MODEL       15
REMARK 921   NORMALIZED FREE ENERGY PREDICTED BY IDOCK:   -6.54 KCAL/MOL
REMARK 922        TOTAL FREE ENERGY PREDICTED BY IDOCK:   -7.43 KCAL/MOL
REMARK 923 INTER-LIGAND FREE ENERGY PREDICTED BY IDOCK:   -7.34 KCAL/MOL
REMARK 924 INTRA-LIGAND FREE ENERGY PREDICTED BY IDOCK:   -0.09 KCAL/MOL
REMARK 927      BINDING AFFINITY PREDICTED BY RF-SCORE:    0.00 PKD
ROOT
HETATM    1  C   UNL     1     -10.633   6.249  73.632  1.00  0.00    -0.263 C  
HETATM    2  O   UNL     1     -11.481   6.328  72.491  1.00  0.00    -0.276 OA 
ENDROOT
BRANCH   2   3
HETATM    3  C   UNL     1     -11.595   7.556  71.880  1.00  0.00    -0.275 A  
HETATM    4  C   UNL     1     -12.275   8.626  72.452  1.00  0.00    -0.419 A  
HETATM    5  C   UNL     1     -12.304   9.856  71.805  1.00  0.00    -0.456 A  
HETATM    6  C   UNL     1     -11.655  10.039  70.581  1.00  0.00    -0.422 A  
HETATM    7  C   UNL     1     -11.690  11.305  69.990  1.00  0.00    -0.428 A  
HETATM    8  C   UNL     1     -11.056  11.536  68.770  1.00  0.00    -0.233 A  
HETATM    9  C   UNL     1     -10.977  12.843  68.093  1.00  0.00    -0.273 A  
HETATM   10  C   UNL     1     -11.012  14.060  68.798  1.00  0.00    -0.282 A  
HETATM   11  C   UNL     1     -10.857  15.238  68.093  1.00  0.00    -0.273 A  
HETATM   12  C   UNL     1     -10.710  15.259  66.730  1.00  0.00    -0.313 A  
HETATM   13  C   UNL     1     -10.698  14.102  65.986  1.00  0.00    -0.299 A  
HETATM   14  O   UNL     1     -10.544  16.514  66.242  1.00  0.00    -0.294 OA 
HETATM   15  C   UNL     1     -10.507  17.279  67.467  1.00  0.00    -0.356 C  
HETATM   16  C   UNL     1     -10.798  12.889  66.680  1.00  0.00    -0.288 A  
HETATM   17  C   UNL     1     -10.668  11.583  65.948  1.00  0.00    -0.325 C  
HETATM   18  O   UNL     1     -10.797  16.482  68.637  1.00  0.00    -0.310 OA 
HETATM   19  C   UNL     1      -9.810  10.673  66.810  1.00  0.00    -0.198 C  
HETATM   20  N   UNL     1     -10.453  10.493  68.143  1.00  0.00    -0.174 NA 
HETATM   21  C   UNL     1     -10.382   9.271  68.722  1.00  0.00    -0.211 A  
HETATM   22  C   UNL     1     -10.965   8.968  69.962  1.00  0.00    -0.230 A  
HETATM   23  C   UNL     1     -10.928   7.707  70.636  1.00  0.00    -0.249 A  
BRANCH  23  24
HETATM   24  O   UNL     1     -10.326   6.538  70.249  1.00  0.00    -0.191 OA 
HETATM   25  C   UNL     1     -10.718   5.736  69.159  1.00  0.00    -0.300 C  
ENDBRANCH  23  24
ENDBRANCH   2   3
TORSDOF 2
ENDMDL
MODEL       16
REMARK 921   NORMALIZED FREE ENERGY PREDICTED BY IDOCK:   -6.47 KCAL/MOL
REMARK 922        TOTAL FREE ENERGY PREDICTED BY IDOCK:   -7.34 KCAL/MOL
REMARK 923 INTER-LIGAND FREE ENERGY PREDICTED BY IDOCK:   -7.28 KCAL/MOL
REMARK 924 INTRA-LIGAND FREE ENERGY PREDICTED BY IDOCK:   -0.07 KCAL/MOL
REMARK 927      BINDING AFFINITY PREDICTED BY RF-SCORE:    0.00 PKD
ROOT
HETATM    1  C   UNL     1      -9.170  19.246  66.322  1.00  0.00    -0.331 C  
HETATM    2  O   UNL     1     -10.424  18.574  66.316  1.00  0.00    -0.408 OA 
ENDROOT
BRANCH   2   3
HETATM    3  C   UNL     1     -10.538  17.453  67.107  1.00  0.00    -0.264 A  
HETATM    4  C   UNL     1     -10.683  17.513  68.488  1.00  0.00    -0.237 A  
HETATM    5  C   UNL     1     -10.848  16.344  69.220  1.00  0.00    -0.327 A  
HETATM    6  C   UNL     1     -10.871  15.098  68.588  1.00  0.00    -0.245 A  
HETATM    7  C   UNL     1     -11.072  13.956  69.370  1.00  0.00    -0.226 A  
HETATM    8  C   UNL     1     -11.104  12.691  68.783  1.00  0.00    -0.263 A  
HETATM    9  C   UNL     1     -11.371  11.433  69.502  1.00  0.00    -0.357 A  
HETATM   10  C   UNL     1     -12.150  11.385  70.673  1.00  0.00    -0.469 A  
HETATM   11  C   UNL     1     -12.413  10.154  71.243  1.00  0.00    -0.406 A  
HETATM   12  C   UNL     1     -11.909   8.988  70.726  1.00  0.00    -0.206 A  
HETATM   13  C   UNL     1     -11.119   8.978  69.601  1.00  0.00    -0.080 A  
HETATM   14  O   UNL     1     -12.313   7.894  71.420  1.00  0.00    -0.307 OA 
HETATM   15  C   UNL     1     -13.209   8.495  72.379  1.00  0.00    -0.282 C  
HETATM   16  C   UNL     1     -10.880  10.205  68.969  1.00  0.00    -0.257 A  
HETATM   17  C   UNL     1     -10.129  10.257  67.669  1.00  0.00    -0.229 C  
HETATM   18  O   UNL     1     -13.203   9.939  72.327  1.00  0.00    -0.431 OA 
HETATM   19  C   UNL     1     -10.849  11.256  66.779  1.00  0.00    -0.282 C  
HETATM   20  N   UNL     1     -10.882  12.589  67.446  1.00  0.00    -0.234 NA 
HETATM   21  C   UNL     1     -10.722  13.689  66.675  1.00  0.00    -0.280 A  
HETATM   22  C   UNL     1     -10.711  14.997  67.184  1.00  0.00    -0.303 A  
HETATM   23  C   UNL     1     -10.552  16.204  66.433  1.00  0.00    -0.269 A  
BRANCH  23  24
HETATM   24  O   UNL     1     -10.391  16.365  65.082  1.00  0.00    -0.610 OA 
HETATM   25  C   UNL     1     -11.366  16.090  64.101  1.00  0.00     0.028 C  
ENDBRANCH  23  24
ENDBRANCH   2   3
TORSDOF 2
ENDMDL
MODEL       17
REMARK 921   NORMALIZED FREE ENERGY PREDICTED BY IDOCK:   -6.36 KCAL/MOL
REMARK 922        TOTAL FREE ENERGY PREDICTED BY IDOCK:   -7.23 KCAL/MOL
REMARK 923 INTER-LIGAND FREE ENERGY PREDICTED BY IDOCK:   -7.11 KCAL/MOL
REMARK 924 INTRA-LIGAND FREE ENERGY PREDICTED BY IDOCK:   -0.12 KCAL/MOL
REMARK 927      BINDING AFFINITY PREDICTED BY RF-SCORE:    0.00 PKD
ROOT
HETATM    1  C   UNL     1     -14.129  15.324  71.654  1.00  0.00    -0.541 C  
HETATM    2  O   UNL     1     -13.054  15.347  70.721  1.00  0.00    -0.453 OA 
ENDROOT
BRANCH   2   3
HETATM    3  C   UNL     1     -12.533  14.132  70.336  1.00  0.00    -0.357 A  
HETATM    4  C   UNL     1     -12.622  12.989  71.121  1.00  0.00    -0.388 A  
HETATM    5  C   UNL     1     -12.123  11.781  70.647  1.00  0.00    -0.407 A  
HETATM    6  C   UNL     1     -11.529  11.695  69.384  1.00  0.00    -0.372 A  
HETATM    7  C   UNL     1     -11.072  10.449  68.945  1.00  0.00    -0.296 A  
HETATM    8  C   UNL     1     -10.475  10.314  67.692  1.00  0.00    -0.239 A  
HETATM    9  C   UNL     1     -10.018   9.041  67.107  1.00  0.00    -0.286 A  
HETATM   10  C   UNL     1     -10.602   7.806  67.441  1.00  0.00    -0.345 A  
HETATM   11  C   UNL     1     -10.163   6.669  66.791  1.00  0.00    -0.195 A  
HETATM   12  C   UNL     1      -9.155   6.702  65.862  1.00  0.00    -0.029 A  
HETATM   13  C   UNL     1      -8.529   7.877  65.517  1.00  0.00    -0.153 A  
HETATM   14  O   UNL     1      -8.901   5.483  65.324  1.00  0.00    -0.156 OA 
HETATM   15  C   UNL     1      -9.930   4.689  65.951  1.00  0.00    -0.239 C  
HETATM   16  C   UNL     1      -8.989   9.055  66.120  1.00  0.00    -0.216 A  
HETATM   17  C   UNL     1      -8.438  10.389  65.702  1.00  0.00    -0.169 C  
HETATM   18  O   UNL     1     -10.675   5.420  66.951  1.00  0.00    -0.271 OA 
HETATM   19  C   UNL     1      -9.612  11.348  65.612  1.00  0.00    -0.231 C  
HETATM   20  N   UNL     1     -10.297  11.428  66.934  1.00  0.00    -0.219 NA 
HETATM   21  C   UNL     1     -10.766  12.632  67.334  1.00  0.00    -0.229 A  
HETATM   22  C   UNL     1     -11.408  12.843  68.564  1.00  0.00    -0.324 A  
HETATM   23  C   UNL     1     -11.933  14.082  69.050  1.00  0.00    -0.357 A  
BRANCH  23  24
HETATM   24  O   UNL     1     -11.943  15.312  68.447  1.00  0.00    -0.303 OA 
HETATM   25  C   UNL     1     -10.810  16.112  68.199  1.00  0.00    -0.329 C  
ENDBRANCH  23  24
ENDBRANCH   2   3
TORSDOF 2
ENDMDL
MODEL       18
REMARK 921   NORMALIZED FREE ENERGY PREDICTED BY IDOCK:   -6.36 KCAL/MOL
REMARK 922        TOTAL FREE ENERGY PREDICTED BY IDOCK:   -7.23 KCAL/MOL
REMARK 923 INTER-LIGAND FREE ENERGY PREDICTED BY IDOCK:   -7.11 KCAL/MOL
REMARK 924 INTRA-LIGAND FREE ENERGY PREDICTED BY IDOCK:   -0.12 KCAL/MOL
REMARK 927      BINDING AFFINITY PREDICTED BY RF-SCORE:    0.00 PKD
ROOT
HETATM    1  C   UNL     1     -11.229  15.270  64.880  1.00  0.00    -0.415 C  
HETATM    2  O   UNL     1     -11.219  15.088  66.292  1.00  0.00    -0.344 OA 
ENDROOT
BRANCH   2   3
HETATM    3  C   UNL     1     -11.152  13.795  66.756  1.00  0.00    -0.308 A  
HETATM    4  C   UNL     1     -10.596  12.754  66.020  1.00  0.00    -0.289 A  
HETATM    5  C   UNL     1     -10.509  11.482  66.572  1.00  0.00    -0.284 A  
HETATM    6  C   UNL     1     -10.975  11.227  67.865  1.00  0.00    -0.302 A  
HETATM    7  C   UNL     1     -10.835   9.936  68.382  1.00  0.00    -0.263 A  
HETATM    8  C   UNL     1     -11.283   9.635  69.668  1.00  0.00    -0.141 A  
HETATM    9  C   UNL     1     -11.128   8.328  70.332  1.00  0.00    -0.238 A  
HETATM   10  C   UNL     1     -10.074   7.447  70.025  1.00  0.00    -0.191 A  
HETATM   11  C   UNL     1      -9.960   6.275  70.747  1.00  0.00    -0.187 A  
HETATM   12  C   UNL     1     -10.859   5.928  71.723  1.00  0.00    -0.260 A  
HETATM   13  C   UNL     1     -11.924   6.736  72.044  1.00  0.00    -0.355 A  
HETATM   14  O   UNL     1     -10.546   4.754  72.327  1.00  0.00    -0.203 OA 
HETATM   15  C   UNL     1      -9.290   4.445  71.685  1.00  0.00    -0.141 C  
HETATM   16  C   UNL     1     -12.035   7.957  71.367  1.00  0.00    -0.331 A  
HETATM   17  C   UNL     1     -13.100   8.945  71.751  1.00  0.00    -0.423 C  
HETATM   18  O   UNL     1      -8.962   5.362  70.618  1.00  0.00    -0.138 OA 
HETATM   19  C   UNL     1     -12.456  10.321  71.740  1.00  0.00    -0.335 C  
HETATM   20  N   UNL     1     -11.907  10.606  70.383  1.00  0.00    -0.319 NA 
HETATM   21  C   UNL     1     -12.017  11.868  69.907  1.00  0.00    -0.325 A  
HETATM   22  C   UNL     1     -11.562  12.259  68.638  1.00  0.00    -0.372 A  
HETATM   23  C   UNL     1     -11.638  13.570  68.071  1.00  0.00    -0.337 A  
BRANCH  23  24
HETATM   24  O   UNL     1     -12.147  14.719  68.617  1.00  0.00    -0.277 OA 
HETATM   25  C   UNL     1     -11.579  15.439  69.686  1.00  0.00    -0.331 C  
ENDBRANCH  23  24
ENDBRANCH   2   3
TORSDOF 2
ENDMDL
MODEL       19
REMARK 921   NORMALIZED FREE ENERGY PREDICTED BY IDOCK:   -6.36 KCAL/MOL
REMARK 922        TOTAL FREE ENERGY PREDICTED BY IDOCK:   -7.22 KCAL/MOL
REMARK 923 INTER-LIGAND FREE ENERGY PREDICTED BY IDOCK:   -7.10 KCAL/MOL
REMARK 924 INTRA-LIGAND FREE ENERGY PREDICTED BY IDOCK:   -0.12 KCAL/MOL
REMARK 927      BINDING AFFINITY PREDICTED BY RF-SCORE:    0.00 PKD
ROOT
HETATM    1  C   UNL     1     -11.852  15.636  64.364  1.00  0.00    -0.182 C  
HETATM    2  O   UNL     1     -12.576  14.449  64.668  1.00  0.00    -0.622 OA 
ENDROOT
BRANCH   2   3
HETATM    3  C   UNL     1     -12.148  13.716  65.752  1.00  0.00    -0.428 A  
HETATM    4  C   UNL     1     -12.283  14.157  67.064  1.00  0.00    -0.374 A  
HETATM    5  C   UNL     1     -11.881  13.342  68.115  1.00  0.00    -0.388 A  
HETATM    6  C   UNL     1     -11.339  12.076  67.876  1.00  0.00    -0.369 A  
HETATM    7  C   UNL     1     -10.980  11.285  68.971  1.00  0.00    -0.288 A  
HETATM    8  C   UNL     1     -10.437  10.015  68.781  1.00  0.00    -0.208 A  
HETATM    9  C   UNL     1     -10.084   9.076  69.863  1.00  0.00    -0.213 A  
HETATM   10  C   UNL     1     -10.735   9.086  71.110  1.00  0.00    -0.358 A  
HETATM   11  C   UNL     1     -10.394   8.124  72.040  1.00  0.00    -0.254 A  
HETATM   12  C   UNL     1      -9.419   7.189  71.802  1.00  0.00    -0.151 A  
HETATM   13  C   UNL     1      -8.731   7.152  70.612  1.00  0.00    -0.148 A  
HETATM   14  O   UNL     1      -9.264   6.322  72.834  1.00  0.00    -0.135 OA 
HETATM   15  C   UNL     1     -10.320   6.758  73.716  1.00  0.00    -0.368 C  
HETATM   16  C   UNL     1      -9.092   8.080  69.627  1.00  0.00    -0.152 A  
HETATM   17  C   UNL     1      -8.471   8.020  68.261  1.00  0.00    -0.123 C  
HETATM   18  O   UNL     1     -10.980   7.959  73.256  1.00  0.00    -0.334 OA 
HETATM   19  C   UNL     1      -9.583   8.260  67.254  1.00  0.00    -0.166 C  
HETATM   20  N   UNL     1     -10.214   9.586  67.512  1.00  0.00    -0.212 NA 
HETATM   21  C   UNL     1     -10.590  10.328  66.444  1.00  0.00    -0.107 A  
HETATM   22  C   UNL     1     -11.173  11.600  66.552  1.00  0.00    -0.356 A  
HETATM   23  C   UNL     1     -11.598  12.437  65.473  1.00  0.00    -0.385 A  
BRANCH  23  24
HETATM   24  O   UNL     1     -11.550  12.200  64.125  1.00  0.00    -0.344 OA 
HETATM   25  C   UNL     1     -10.376  12.052  63.360  1.00  0.00    -0.434 C  
ENDBRANCH  23  24
ENDBRANCH   2   3
TORSDOF 2
ENDMDL
MODEL       20
REMARK 921   NORMALIZED FREE ENERGY PREDICTED BY IDOCK:   -6.30 KCAL/MOL
REMARK 922        TOTAL FREE ENERGY PREDICTED BY IDOCK:   -7.16 KCAL/MOL
REMARK 923 INTER-LIGAND FREE ENERGY PREDICTED BY IDOCK:   -7.09 KCAL/MOL
REMARK 924 INTRA-LIGAND FREE ENERGY PREDICTED BY IDOCK:   -0.08 KCAL/MOL
REMARK 927      BINDING AFFINITY PREDICTED BY RF-SCORE:    0.00 PKD
ROOT
HETATM    1  C   UNL     1     -12.971  11.856  63.525  1.00  0.00    -0.171 C  
HETATM    2  O   UNL     1     -13.180  12.603  64.718  1.00  0.00    -0.846 OA 
ENDROOT
BRANCH   2   3
HETATM    3  C   UNL     1     -12.207  13.511  65.066  1.00  0.00    -0.419 A  
HETATM    4  C   UNL     1     -11.916  14.638  64.305  1.00  0.00    -0.406 A  
HETATM    5  C   UNL     1     -10.958  15.544  64.744  1.00  0.00    -0.416 A  
HETATM    6  C   UNL     1     -10.276  15.341  65.947  1.00  0.00    -0.353 A  
HETATM    7  C   UNL     1      -9.345  16.301  66.356  1.00  0.00    -0.322 A  
HETATM    8  C   UNL     1      -8.642  16.142  67.550  1.00  0.00    -0.177 A  
HETATM    9  C   UNL     1      -7.688  17.120  68.105  1.00  0.00    -0.204 A  
HETATM   10  C   UNL     1      -7.782  18.498  67.839  1.00  0.00    -0.265 A  
HETATM   11  C   UNL     1      -6.892  19.354  68.459  1.00  0.00    -0.291 A  
HETATM   12  C   UNL     1      -5.901  18.899  69.290  1.00  0.00    -0.228 A  
HETATM   13  C   UNL     1      -5.744  17.561  69.563  1.00  0.00    -0.222 A  
HETATM   14  O   UNL     1      -5.158  19.906  69.816  1.00  0.00    -0.175 OA 
HETATM   15  C   UNL     1      -5.855  21.058  69.295  1.00  0.00    -0.125 C  
HETATM   16  C   UNL     1      -6.666  16.673  68.992  1.00  0.00    -0.202 A  
HETATM   17  C   UNL     1      -6.632  15.213  69.343  1.00  0.00    -0.151 C  
HETATM   18  O   UNL     1      -6.900  20.709  68.360  1.00  0.00    -0.240 OA 
HETATM   19  C   UNL     1      -8.072  14.767  69.530  1.00  0.00     0.014 C  
HETATM   20  N   UNL     1      -8.840  15.012  68.277  1.00  0.00    -0.167 NA 
HETATM   21  C   UNL     1      -9.764  14.094  67.909  1.00  0.00    -0.224 A  
HETATM   22  C   UNL     1     -10.535  14.197  66.741  1.00  0.00    -0.277 A  
HETATM   23  C   UNL     1     -11.530  13.273  66.291  1.00  0.00    -0.325 A  
BRANCH  23  24
HETATM   24  O   UNL     1     -11.959  12.112  66.880  1.00  0.00    -0.603 OA 
HETATM   25  C   UNL     1     -11.144  11.011  67.210  1.00  0.00    -0.294 C  
ENDBRANCH  23  24
ENDBRANCH   2   3
TORSDOF 2
ENDMDL
MODEL       21
REMARK 921   NORMALIZED FREE ENERGY PREDICTED BY IDOCK:   -6.30 KCAL/MOL
REMARK 922        TOTAL FREE ENERGY PREDICTED BY IDOCK:   -7.15 KCAL/MOL
REMARK 923 INTER-LIGAND FREE ENERGY PREDICTED BY IDOCK:   -7.02 KCAL/MOL
REMARK 924 INTRA-LIGAND FREE ENERGY PREDICTED BY IDOCK:   -0.14 KCAL/MOL
REMARK 927      BINDING AFFINITY PREDICTED BY RF-SCORE:    0.00 PKD
ROOT
HETATM    1  C   UNL     1      -9.350   6.942  66.446  1.00  0.00    -0.141 C  
HETATM    2  O   UNL     1     -10.449   7.775  66.798  1.00  0.00    -0.321 OA 
ENDROOT
BRANCH   2   3
HETATM    3  C   UNL     1     -10.263   9.135  66.690  1.00  0.00    -0.258 A  
HETATM    4  C   UNL     1      -9.683   9.733  65.578  1.00  0.00    -0.382 A  
HETATM    5  C   UNL     1      -9.576  11.117  65.510  1.00  0.00    -0.263 A  
HETATM    6  C   UNL     1     -10.046  11.925  66.548  1.00  0.00    -0.229 A  
HETATM    7  C   UNL     1      -9.942  13.313  66.414  1.00  0.00    -0.288 A  
HETATM    8  C   UNL     1     -10.399  14.159  67.424  1.00  0.00    -0.256 A  
HETATM    9  C   UNL     1     -10.395  15.632  67.357  1.00  0.00    -0.275 A  
HETATM   10  C   UNL     1     -10.475  16.331  66.139  1.00  0.00    -0.330 A  
HETATM   11  C   UNL     1     -10.540  17.711  66.172  1.00  0.00    -0.220 A  
HETATM   12  C   UNL     1     -10.492  18.417  67.346  1.00  0.00    -0.415 A  
HETATM   13  C   UNL     1     -10.385  17.787  68.564  1.00  0.00    -0.366 A  
HETATM   14  O   UNL     1     -10.602  19.756  67.155  1.00  0.00    -0.455 OA 
HETATM   15  C   UNL     1     -10.820  19.809  65.728  1.00  0.00    -0.275 C  
HETATM   16  C   UNL     1     -10.372  16.386  68.567  1.00  0.00    -0.270 A  
HETATM   17  C   UNL     1     -10.381  15.629  69.864  1.00  0.00    -0.322 C  
HETATM   18  O   UNL     1     -10.691  18.519  65.090  1.00  0.00    -0.524 OA 
HETATM   19  C   UNL     1     -11.343  14.465  69.694  1.00  0.00    -0.263 C  
HETATM   20  N   UNL     1     -10.894  13.606  68.561  1.00  0.00    -0.250 NA 
HETATM   21  C   UNL     1     -11.033  12.266  68.687  1.00  0.00    -0.239 A  
HETATM   22  C   UNL     1     -10.629  11.350  67.704  1.00  0.00    -0.240 A  
HETATM   23  C   UNL     1     -10.747   9.926  67.765  1.00  0.00    -0.277 A  
BRANCH  23  24
HETATM   24  O   UNL     1     -11.275   9.145  68.760  1.00  0.00     0.063 OA 
HETATM   25  C   UNL     1     -10.659   8.864  69.995  1.00  0.00    -0.220 C  
ENDBRANCH  23  24
ENDBRANCH   2   3
TORSDOF 2
ENDMDL
MODEL       22
REMARK 921   NORMALIZED FREE ENERGY PREDICTED BY IDOCK:   -6.22 KCAL/MOL
REMARK 922        TOTAL FREE ENERGY PREDICTED BY IDOCK:   -7.06 KCAL/MOL
REMARK 923 INTER-LIGAND FREE ENERGY PREDICTED BY IDOCK:   -6.95 KCAL/MOL
REMARK 924 INTRA-LIGAND FREE ENERGY PREDICTED BY IDOCK:   -0.12 KCAL/MOL
REMARK 927      BINDING AFFINITY PREDICTED BY RF-SCORE:    0.00 PKD
ROOT
HETATM    1  C   UNL     1      -8.181   6.023  65.305  1.00  0.00    -0.138 C  
HETATM    2  O   UNL     1      -8.170   7.415  65.007  1.00  0.00    -0.134 OA 
ENDROOT
BRANCH   2   3
HETATM    3  C   UNL     1      -8.967   8.228  65.780  1.00  0.00    -0.138 A  
HETATM    4  C   UNL     1      -9.971   7.738  66.606  1.00  0.00    -0.299 A  
HETATM    5  C   UNL     1     -10.703   8.610  67.404  1.00  0.00    -0.212 A  
HETATM    6  C   UNL     1     -10.444   9.983  67.390  1.00  0.00    -0.316 A  
HETATM    7  C   UNL     1     -11.188  10.811  68.235  1.00  0.00    -0.358 A  
HETATM    8  C   UNL     1     -10.964  12.188  68.257  1.00  0.00    -0.234 A  
HETATM    9  C   UNL     1     -11.645  13.140  69.153  1.00  0.00    -0.368 A  
HETATM   10  C   UNL     1     -12.144  12.764  70.413  1.00  0.00    -0.382 A  
HETATM   11  C   UNL     1     -12.703  13.737  71.220  1.00  0.00    -0.371 A  
HETATM   12  C   UNL     1     -12.820  15.042  70.816  1.00  0.00    -0.392 A  
HETATM   13  C   UNL     1     -12.375  15.460  69.584  1.00  0.00    -0.250 A  
HETATM   14  O   UNL     1     -13.368  15.836  71.771  1.00  0.00    -0.481 OA 
HETATM   15  C   UNL     1     -13.499  14.899  72.861  1.00  0.00    -0.451 C  
HETATM   16  C   UNL     1     -11.754  14.508  68.765  1.00  0.00    -0.362 A  
HETATM   17  C   UNL     1     -11.135  14.917  67.459  1.00  0.00    -0.319 C  
HETATM   18  O   UNL     1     -13.162  13.545  72.485  1.00  0.00    -0.486 OA 
HETATM   19  C   UNL     1      -9.811  14.181  67.344  1.00  0.00    -0.239 C  
HETATM   20  N   UNL     1     -10.048  12.711  67.401  1.00  0.00    -0.216 NA 
HETATM   21  C   UNL     1      -9.297  11.915  66.605  1.00  0.00    -0.205 A  
HETATM   22  C   UNL     1      -9.438  10.520  66.549  1.00  0.00    -0.200 A  
HETATM   23  C   UNL     1      -8.680   9.618  65.739  1.00  0.00    -0.147 A  
BRANCH  23  24
HETATM   24  O   UNL     1      -7.663   9.891  64.862  1.00  0.00    -0.122 OA 
HETATM   25  C   UNL     1      -6.368  10.318  65.217  1.00  0.00    -0.125 C  
ENDBRANCH  23  24
ENDBRANCH   2   3
TORSDOF 2
ENDMDL
MODEL       23
REMARK 921   NORMALIZED FREE ENERGY PREDICTED BY IDOCK:   -6.19 KCAL/MOL
REMARK 922        TOTAL FREE ENERGY PREDICTED BY IDOCK:   -7.03 KCAL/MOL
REMARK 923 INTER-LIGAND FREE ENERGY PREDICTED BY IDOCK:   -7.06 KCAL/MOL
REMARK 924 INTRA-LIGAND FREE ENERGY PREDICTED BY IDOCK:    0.02 KCAL/MOL
REMARK 927      BINDING AFFINITY PREDICTED BY RF-SCORE:    0.00 PKD
ROOT
HETATM    1  C   UNL     1      -8.387   4.104  70.552  1.00  0.00    -0.066 C  
HETATM    2  O   UNL     1      -9.116   4.663  69.464  1.00  0.00    -0.097 OA 
ENDROOT
BRANCH   2   3
HETATM    3  C   UNL     1      -9.832   5.812  69.715  1.00  0.00    -0.178 A  
HETATM    4  C   UNL     1     -10.944   5.843  70.548  1.00  0.00    -0.362 A  
HETATM    5  C   UNL     1     -11.588   7.048  70.802  1.00  0.00    -0.381 A  
HETATM    6  C   UNL     1     -11.133   8.239  70.230  1.00  0.00    -0.220 A  
HETATM    7  C   UNL     1     -11.799   9.428  70.545  1.00  0.00    -0.207 A  
HETATM    8  C   UNL     1     -11.380  10.641  70.000  1.00  0.00    -0.324 A  
HETATM    9  C   UNL     1     -11.969  11.956  70.313  1.00  0.00    -0.416 A  
HETATM   10  C   UNL     1     -12.592  12.228  71.544  1.00  0.00    -0.258 A  
HETATM   11  C   UNL     1     -13.051  13.509  71.784  1.00  0.00    -0.387 A  
HETATM   12  C   UNL     1     -12.954  14.507  70.849  1.00  0.00    -0.361 A  
HETATM   13  C   UNL     1     -12.382  14.289  69.617  1.00  0.00    -0.312 A  
HETATM   14  O   UNL     1     -13.438  15.692  71.298  1.00  0.00    -0.512 OA 
HETATM   15  C   UNL     1     -13.767  15.351  72.662  1.00  0.00    -0.542 C  
HETATM   16  C   UNL     1     -11.857  13.015  69.365  1.00  0.00    -0.380 A  
HETATM   17  C   UNL     1     -11.108  12.740  68.092  1.00  0.00    -0.288 C  
HETATM   18  O   UNL     1     -13.607  13.943  72.946  1.00  0.00    -0.680 OA 
HETATM   19  C   UNL     1      -9.900  11.896  68.460  1.00  0.00    -0.183 C  
HETATM   20  N   UNL     1     -10.349  10.635  69.115  1.00  0.00    -0.212 NA 
HETATM   21  C   UNL     1      -9.675   9.497  68.831  1.00  0.00    -0.164 A  
HETATM   22  C   UNL     1     -10.012   8.243  69.364  1.00  0.00    -0.188 A  
HETATM   23  C   UNL     1      -9.346   7.002  69.114  1.00  0.00    -0.140 A  
BRANCH  23  24
HETATM   24  O   UNL     1      -8.250   6.754  68.330  1.00  0.00    -0.118 OA 
HETATM   25  C   UNL     1      -7.056   7.503  68.329  1.00  0.00    -0.084 C  
ENDBRANCH  23  24
ENDBRANCH   2   3
TORSDOF 2
ENDMDL
MODEL       24
REMARK 921   NORMALIZED FREE ENERGY PREDICTED BY IDOCK:   -6.16 KCAL/MOL
REMARK 922        TOTAL FREE ENERGY PREDICTED BY IDOCK:   -7.00 KCAL/MOL
REMARK 923 INTER-LIGAND FREE ENERGY PREDICTED BY IDOCK:   -6.87 KCAL/MOL
REMARK 924 INTRA-LIGAND FREE ENERGY PREDICTED BY IDOCK:   -0.13 KCAL/MOL
REMARK 927      BINDING AFFINITY PREDICTED BY RF-SCORE:    0.00 PKD
ROOT
HETATM    1  C   UNL     1      -6.977  20.730  67.044  1.00  0.00    -0.325 C  
HETATM    2  O   UNL     1      -7.709  19.960  66.097  1.00  0.00    -0.306 OA 
ENDROOT
BRANCH   2   3
HETATM    3  C   UNL     1      -7.811  18.608  66.334  1.00  0.00    -0.283 A  
HETATM    4  C   UNL     1      -6.712  17.803  66.607  1.00  0.00    -0.240 A  
HETATM    5  C   UNL     1      -6.893  16.455  66.893  1.00  0.00    -0.231 A  
HETATM    6  C   UNL     1      -8.171  15.890  66.912  1.00  0.00    -0.283 A  
HETATM    7  C   UNL     1      -8.297  14.536  67.236  1.00  0.00    -0.232 A  
HETATM    8  C   UNL     1      -9.553  13.929  67.270  1.00  0.00    -0.243 A  
HETATM    9  C   UNL     1      -9.805  12.530  67.660  1.00  0.00    -0.202 A  
HETATM   10  C   UNL     1      -8.964  11.833  68.546  1.00  0.00    -0.132 A  
HETATM   11  C   UNL     1      -9.314  10.549  68.917  1.00  0.00    -0.187 A  
HETATM   12  C   UNL     1     -10.429   9.923  68.419  1.00  0.00    -0.208 A  
HETATM   13  C   UNL     1     -11.269  10.546  67.528  1.00  0.00    -0.299 A  
HETATM   14  O   UNL     1     -10.603   8.680  68.936  1.00  0.00    -0.209 OA 
HETATM   15  C   UNL     1      -9.521   8.628  69.890  1.00  0.00    -0.167 C  
HETATM   16  C   UNL     1     -10.971  11.869  67.175  1.00  0.00    -0.319 A  
HETATM   17  C   UNL     1     -11.910  12.653  66.304  1.00  0.00    -0.471 C  
HETATM   18  O   UNL     1      -8.647   9.777  69.815  1.00  0.00    -0.169 OA 
HETATM   19  C   UNL     1     -11.998  14.052  66.890  1.00  0.00    -0.447 C  
HETATM   20  N   UNL     1     -10.641  14.667  66.926  1.00  0.00    -0.277 NA 
HETATM   21  C   UNL     1     -10.534  15.987  66.645  1.00  0.00    -0.304 A  
HETATM   22  C   UNL     1      -9.313  16.677  66.624  1.00  0.00    -0.272 A  
HETATM   23  C   UNL     1      -9.123  18.066  66.341  1.00  0.00    -0.235 A  
BRANCH  23  24
HETATM   24  O   UNL     1     -10.059  19.023  66.046  1.00  0.00    -0.424 OA 
HETATM   25  C   UNL     1     -10.908  19.654  66.977  1.00  0.00    -0.399 C  
ENDBRANCH  23  24
ENDBRANCH   2   3
TORSDOF 2
ENDMDL
MODEL       25
REMARK 921   NORMALIZED FREE ENERGY PREDICTED BY IDOCK:   -6.07 KCAL/MOL
REMARK 922        TOTAL FREE ENERGY PREDICTED BY IDOCK:   -6.90 KCAL/MOL
REMARK 923 INTER-LIGAND FREE ENERGY PREDICTED BY IDOCK:   -6.81 KCAL/MOL
REMARK 924 INTRA-LIGAND FREE ENERGY PREDICTED BY IDOCK:   -0.09 KCAL/MOL
REMARK 927      BINDING AFFINITY PREDICTED BY RF-SCORE:    0.00 PKD
ROOT
HETATM    1  C   UNL     1      -6.807  20.866  67.137  1.00  0.00    -0.354 C  
HETATM    2  O   UNL     1      -8.007  20.267  67.613  1.00  0.00    -0.301 OA 
ENDROOT
BRANCH   2   3
HETATM    3  C   UNL     1      -8.056  18.892  67.631  1.00  0.00    -0.255 A  
HETATM    4  C   UNL     1      -7.326  18.120  68.528  1.00  0.00    -0.285 A  
HETATM    5  C   UNL     1      -7.465  16.738  68.529  1.00  0.00    -0.213 A  
HETATM    6  C   UNL     1      -8.332  16.103  67.635  1.00  0.00    -0.163 A  
HETATM    7  C   UNL     1      -8.456  14.712  67.700  1.00  0.00    -0.187 A  
HETATM    8  C   UNL     1      -9.312  14.035  66.831  1.00  0.00    -0.257 A  
HETATM    9  C   UNL     1      -9.565  12.583  66.855  1.00  0.00    -0.229 A  
HETATM   10  C   UNL     1      -9.451  11.819  68.030  1.00  0.00    -0.188 A  
HETATM   11  C   UNL     1      -9.779  10.478  67.980  1.00  0.00    -0.147 A  
HETATM   12  C   UNL     1     -10.172   9.864  66.819  1.00  0.00    -0.236 A  
HETATM   13  C   UNL     1     -10.273  10.556  65.635  1.00  0.00    -0.315 A  
HETATM   14  O   UNL     1     -10.475   8.553  66.998  1.00  0.00    -0.300 OA 
HETATM   15  C   UNL     1     -10.319   8.431  68.428  1.00  0.00    -0.200 C  
HETATM   16  C   UNL     1     -10.000  11.930  65.665  1.00  0.00    -0.269 A  
HETATM   17  C   UNL     1     -10.208  12.773  64.439  1.00  0.00    -0.344 C  
HETATM   18  O   UNL     1      -9.789   9.628  69.041  1.00  0.00    -0.169 OA 
HETATM   19  C   UNL     1     -10.858  14.069  64.895  1.00  0.00    -0.410 C  
HETATM   20  N   UNL     1      -9.976  14.750  65.885  1.00  0.00    -0.308 NA 
HETATM   21  C   UNL     1      -9.891  16.100  65.836  1.00  0.00    -0.353 A  
HETATM   22  C   UNL     1      -9.080  16.856  66.697  1.00  0.00    -0.280 A  
HETATM   23  C   UNL     1      -8.943  18.279  66.708  1.00  0.00    -0.284 A  
BRANCH  23  24
HETATM   24  O   UNL     1      -9.558  19.212  65.915  1.00  0.00    -0.445 OA 
HETATM   25  C   UNL     1     -10.889  19.656  66.053  1.00  0.00    -0.320 C  
ENDBRANCH  23  24
ENDBRANCH   2   3
TORSDOF 2
ENDMDL
MODEL       26
REMARK 921   NORMALIZED FREE ENERGY PREDICTED BY IDOCK:   -6.06 KCAL/MOL
REMARK 922        TOTAL FREE ENERGY PREDICTED BY IDOCK:   -6.89 KCAL/MOL
REMARK 923 INTER-LIGAND FREE ENERGY PREDICTED BY IDOCK:   -6.77 KCAL/MOL
REMARK 924 INTRA-LIGAND FREE ENERGY PREDICTED BY IDOCK:   -0.12 KCAL/MOL
REMARK 927      BINDING AFFINITY PREDICTED BY RF-SCORE:    0.00 PKD
ROOT
HETATM    1  C   UNL     1     -10.300   7.916  66.839  1.00  0.00    -0.330 C  
HETATM    2  O   UNL     1     -10.718   8.915  67.763  1.00  0.00    -0.223 OA 
ENDROOT
BRANCH   2   3
HETATM    3  C   UNL     1     -10.129  10.155  67.653  1.00  0.00    -0.190 A  
HETATM    4  C   UNL     1      -8.847  10.342  67.150  1.00  0.00    -0.141 A  
HETATM    5  C   UNL     1      -8.335  11.626  67.014  1.00  0.00    -0.169 A  
HETATM    6  C   UNL     1      -9.092  12.743  67.377  1.00  0.00    -0.192 A  
HETATM    7  C   UNL     1      -8.539  14.014  67.190  1.00  0.00    -0.220 A  
HETATM    8  C   UNL     1      -9.258  15.158  67.536  1.00  0.00    -0.186 A  
HETATM    9  C   UNL     1      -8.797  16.542  67.323  1.00  0.00    -0.206 A  
HETATM   10  C   UNL     1      -7.906  16.888  66.291  1.00  0.00    -0.346 A  
HETATM   11  C   UNL     1      -7.583  18.220  66.115  1.00  0.00    -0.241 A  
HETATM   12  C   UNL     1      -8.073  19.204  66.935  1.00  0.00    -0.263 A  
HETATM   13  C   UNL     1      -8.925  18.920  67.976  1.00  0.00    -0.338 A  
HETATM   14  O   UNL     1      -7.656  20.443  66.569  1.00  0.00    -0.267 OA 
HETATM   15  C   UNL     1      -6.921  20.137  65.365  1.00  0.00    -0.296 C  
HETATM   16  C   UNL     1      -9.314  17.585  68.146  1.00  0.00    -0.276 A  
HETATM   17  C   UNL     1     -10.336  17.217  69.183  1.00  0.00    -0.290 C  
HETATM   18  O   UNL     1      -6.797  18.717  65.125  1.00  0.00    -0.512 OA 
HETATM   19  C   UNL     1     -11.266  16.197  68.550  1.00  0.00    -0.365 C  
HETATM   20  N   UNL     1     -10.481  15.009  68.109  1.00  0.00    -0.241 NA 
HETATM   21  C   UNL     1     -11.040  13.786  68.262  1.00  0.00    -0.255 A  
HETATM   22  C   UNL     1     -10.396  12.590  67.908  1.00  0.00    -0.219 A  
HETATM   23  C   UNL     1     -10.924  11.267  68.035  1.00  0.00    -0.247 A  
BRANCH  23  24
HETATM   24  O   UNL     1     -12.147  10.867  68.507  1.00  0.00    -0.545 OA 
HETATM   25  C   UNL     1     -12.531  10.833  69.862  1.00  0.00    -0.209 C  
ENDBRANCH  23  24
ENDBRANCH   2   3
TORSDOF 2
ENDMDL
MODEL       27
REMARK 921   NORMALIZED FREE ENERGY PREDICTED BY IDOCK:   -6.05 KCAL/MOL
REMARK 922        TOTAL FREE ENERGY PREDICTED BY IDOCK:   -6.88 KCAL/MOL
REMARK 923 INTER-LIGAND FREE ENERGY PREDICTED BY IDOCK:   -6.76 KCAL/MOL
REMARK 924 INTRA-LIGAND FREE ENERGY PREDICTED BY IDOCK:   -0.12 KCAL/MOL
REMARK 927      BINDING AFFINITY PREDICTED BY RF-SCORE:    0.00 PKD
ROOT
HETATM    1  C   UNL     1      -6.220   6.081  72.852  1.00  0.00    -0.057 C  
HETATM    2  O   UNL     1      -7.608   6.277  72.603  1.00  0.00    -0.098 OA 
ENDROOT
BRANCH   2   3
HETATM    3  C   UNL     1      -7.945   7.140  71.585  1.00  0.00    -0.097 A  
HETATM    4  C   UNL     1      -7.272   7.176  70.369  1.00  0.00    -0.070 A  
HETATM    5  C   UNL     1      -7.700   8.034  69.363  1.00  0.00    -0.104 A  
HETATM    6  C   UNL     1      -8.805   8.868  69.553  1.00  0.00    -0.144 A  
HETATM    7  C   UNL     1      -9.212   9.688  68.497  1.00  0.00    -0.137 A  
HETATM    8  C   UNL     1     -10.310  10.536  68.639  1.00  0.00    -0.185 A  
HETATM    9  C   UNL     1     -10.860  11.392  67.572  1.00  0.00    -0.291 A  
HETATM   10  C   UNL     1     -10.739  11.068  66.209  1.00  0.00    -0.273 A  
HETATM   11  C   UNL     1     -11.348  11.887  65.278  1.00  0.00    -0.275 A  
HETATM   12  C   UNL     1     -12.031  13.021  65.638  1.00  0.00    -0.429 A  
HETATM   13  C   UNL     1     -12.155  13.402  66.953  1.00  0.00    -0.406 A  
HETATM   14  O   UNL     1     -12.576  13.662  64.573  1.00  0.00    -0.608 OA 
HETATM   15  C   UNL     1     -12.239  12.750  63.505  1.00  0.00    -0.525 C  
HETATM   16  C   UNL     1     -11.595  12.562  67.924  1.00  0.00    -0.403 A  
HETATM   17  C   UNL     1     -11.798  12.848  69.385  1.00  0.00    -0.371 C  
HETATM   18  O   UNL     1     -11.382  11.669  63.937  1.00  0.00    -0.382 OA 
HETATM   19  C   UNL     1     -12.082  11.519  70.064  1.00  0.00    -0.331 C  
HETATM   20  N   UNL     1     -10.939  10.588  69.842  1.00  0.00    -0.288 NA 
HETATM   21  C   UNL     1     -10.577   9.773  70.860  1.00  0.00    -0.274 A  
HETATM   22  C   UNL     1      -9.506   8.869  70.784  1.00  0.00    -0.280 A  
HETATM   23  C   UNL     1      -9.069   7.977  71.813  1.00  0.00    -0.158 A  
BRANCH  23  24
HETATM   24  O   UNL     1      -9.582   7.791  73.070  1.00  0.00    -0.207 OA 
HETATM   25  C   UNL     1     -10.779   7.112  73.374  1.00  0.00    -0.368 C  
ENDBRANCH  23  24
ENDBRANCH   2   3
TORSDOF 2
ENDMDL
MODEL       28
REMARK 921   NORMALIZED FREE ENERGY PREDICTED BY IDOCK:   -6.02 KCAL/MOL
REMARK 922        TOTAL FREE ENERGY PREDICTED BY IDOCK:   -6.85 KCAL/MOL
REMARK 923 INTER-LIGAND FREE ENERGY PREDICTED BY IDOCK:   -6.73 KCAL/MOL
REMARK 924 INTRA-LIGAND FREE ENERGY PREDICTED BY IDOCK:   -0.12 KCAL/MOL
REMARK 927      BINDING AFFINITY PREDICTED BY RF-SCORE:    0.00 PKD
ROOT
HETATM    1  C   UNL     1      -9.386   3.438  70.463  1.00  0.00    -0.161 C  
HETATM    2  O   UNL     1      -9.788   4.620  71.146  1.00  0.00    -0.169 OA 
ENDROOT
BRANCH   2   3
HETATM    3  C   UNL     1      -9.857   5.778  70.404  1.00  0.00    -0.186 A  
HETATM    4  C   UNL     1      -9.225   5.928  69.175  1.00  0.00    -0.131 A  
HETATM    5  C   UNL     1      -9.383   7.104  68.452  1.00  0.00    -0.135 A  
HETATM    6  C   UNL     1     -10.172   8.148  68.943  1.00  0.00    -0.221 A  
HETATM    7  C   UNL     1     -10.320   9.297  68.160  1.00  0.00    -0.261 A  
HETATM    8  C   UNL     1     -11.100  10.364  68.607  1.00  0.00    -0.262 A  
HETATM    9  C   UNL     1     -11.374  11.591  67.837  1.00  0.00    -0.372 A  
HETATM   10  C   UNL     1     -11.381  11.611  66.431  1.00  0.00    -0.312 A  
HETATM   11  C   UNL     1     -11.721  12.786  65.788  1.00  0.00    -0.402 A  
HETATM   12  C   UNL     1     -12.013  13.936  66.475  1.00  0.00    -0.439 A  
HETATM   13  C   UNL     1     -11.993  13.981  67.850  1.00  0.00    -0.387 A  
HETATM   14  O   UNL     1     -12.349  14.963  65.654  1.00  0.00    -0.075 OA 
HETATM   15  C   UNL     1     -12.328  14.303  64.371  1.00  0.00    -0.391 C  
HETATM   16  C   UNL     1     -11.705  12.791  68.530  1.00  0.00    -0.371 A  
HETATM   17  C   UNL     1     -11.787  12.735  70.030  1.00  0.00    -0.352 C  
HETATM   18  O   UNL     1     -11.842  12.944  64.444  1.00  0.00    -0.342 OA 
HETATM   19  C   UNL     1     -12.458  11.420  70.390  1.00  0.00    -0.261 C  
HETATM   20  N   UNL     1     -11.663  10.285  69.841  1.00  0.00    -0.245 NA 
HETATM   21  C   UNL     1     -11.555   9.164  70.592  1.00  0.00    -0.235 A  
HETATM   22  C   UNL     1     -10.818   8.037  70.198  1.00  0.00    -0.242 A  
HETATM   23  C   UNL     1     -10.663   6.820  70.934  1.00  0.00    -0.233 A  
BRANCH  23  24
HETATM   24  O   UNL     1     -11.188   6.473  72.151  1.00  0.00    -0.246 OA 
HETATM   25  C   UNL     1     -10.840   7.051  73.388  1.00  0.00    -0.299 C  
ENDBRANCH  23  24
ENDBRANCH   2   3
TORSDOF 2
ENDMDL
MODEL       29
REMARK 921   NORMALIZED FREE ENERGY PREDICTED BY IDOCK:   -6.02 KCAL/MOL
REMARK 922        TOTAL FREE ENERGY PREDICTED BY IDOCK:   -6.85 KCAL/MOL
REMARK 923 INTER-LIGAND FREE ENERGY PREDICTED BY IDOCK:   -6.76 KCAL/MOL
REMARK 924 INTRA-LIGAND FREE ENERGY PREDICTED BY IDOCK:   -0.09 KCAL/MOL
REMARK 927      BINDING AFFINITY PREDICTED BY RF-SCORE:    0.00 PKD
ROOT
HETATM    1  C   UNL     1     -11.002  16.538  68.504  1.00  0.00    -0.350 C  
HETATM    2  O   UNL     1     -12.106  15.686  68.786  1.00  0.00    -0.301 OA 
ENDROOT
BRANCH   2   3
HETATM    3  C   UNL     1     -11.906  14.332  68.639  1.00  0.00    -0.344 A  
HETATM    4  C   UNL     1     -11.569  13.745  67.425  1.00  0.00    -0.393 A  
HETATM    5  C   UNL     1     -11.326  12.378  67.359  1.00  0.00    -0.381 A  
HETATM    6  C   UNL     1     -11.414  11.577  68.501  1.00  0.00    -0.354 A  
HETATM    7  C   UNL     1     -11.129  10.213  68.383  1.00  0.00    -0.273 A  
HETATM    8  C   UNL     1     -11.202   9.375  69.495  1.00  0.00    -0.033 A  
HETATM    9  C   UNL     1     -10.862   7.940  69.496  1.00  0.00    -0.141 A  
HETATM   10  C   UNL     1      -9.929   7.388  68.599  1.00  0.00    -0.174 A  
HETATM   11  C   UNL     1      -9.613   6.048  68.717  1.00  0.00    -0.129 A  
HETATM   12  C   UNL     1     -10.206   5.237  69.650  1.00  0.00    -0.278 A  
HETATM   13  C   UNL     1     -11.145   5.717  70.533  1.00  0.00    -0.199 A  
HETATM   14  O   UNL     1      -9.731   3.966  69.614  1.00  0.00    -0.200 OA 
HETATM   15  C   UNL     1      -8.699   4.090  68.611  1.00  0.00    -0.098 C  
HETATM   16  C   UNL     1     -11.446   7.084  70.474  1.00  0.00    -0.363 A  
HETATM   17  C   UNL     1     -12.369   7.703  71.485  1.00  0.00    -0.356 C  
HETATM   18  O   UNL     1      -8.684   5.388  67.976  1.00  0.00    -0.107 OA 
HETATM   19  C   UNL     1     -11.760   9.037  71.885  1.00  0.00    -0.374 C  
HETATM   20  N   UNL     1     -11.610   9.900  70.680  1.00  0.00    -0.311 NA 
HETATM   21  C   UNL     1     -11.854  11.225  70.813  1.00  0.00    -0.183 A  
HETATM   22  C   UNL     1     -11.770  12.139  69.751  1.00  0.00    -0.381 A  
HETATM   23  C   UNL     1     -12.008  13.547  69.818  1.00  0.00    -0.340 A  
BRANCH  23  24
HETATM   24  O   UNL     1     -12.353  14.315  70.899  1.00  0.00    -0.313 OA 
HETATM   25  C   UNL     1     -13.659  14.483  71.402  1.00  0.00    -0.381 C  
ENDBRANCH  23  24
ENDBRANCH   2   3
TORSDOF 2
ENDMDL
MODEL       30
REMARK 921   NORMALIZED FREE ENERGY PREDICTED BY IDOCK:   -5.96 KCAL/MOL
REMARK 922        TOTAL FREE ENERGY PREDICTED BY IDOCK:   -6.78 KCAL/MOL
REMARK 923 INTER-LIGAND FREE ENERGY PREDICTED BY IDOCK:   -6.67 KCAL/MOL
REMARK 924 INTRA-LIGAND FREE ENERGY PREDICTED BY IDOCK:   -0.10 KCAL/MOL
REMARK 927      BINDING AFFINITY PREDICTED BY RF-SCORE:    0.00 PKD
ROOT
HETATM    1  C   UNL     1     -11.111  15.388  66.247  1.00  0.00    -0.226 C  
HETATM    2  O   UNL     1     -12.063  14.334  66.333  1.00  0.00    -0.422 OA 
ENDROOT
BRANCH   2   3
HETATM    3  C   UNL     1     -11.772  13.296  67.188  1.00  0.00    -0.376 A  
HETATM    4  C   UNL     1     -11.879  13.402  68.570  1.00  0.00    -0.401 A  
HETATM    5  C   UNL     1     -11.623  12.296  69.373  1.00  0.00    -0.378 A  
HETATM    6  C   UNL     1     -11.257  11.070  68.811  1.00  0.00    -0.327 A  
HETATM    7  C   UNL     1     -11.042   9.983  69.664  1.00  0.00    -0.300 A  
HETATM    8  C   UNL     1     -10.678   8.739  69.149  1.00  0.00    -0.131 A  
HETATM    9  C   UNL     1     -10.489   7.516  69.949  1.00  0.00    -0.232 A  
HETATM   10  C   UNL     1     -11.165   7.299  71.164  1.00  0.00    -0.284 A  
HETATM   11  C   UNL     1     -10.987   6.093  71.813  1.00  0.00    -0.264 A  
HETATM   12  C   UNL     1     -10.147   5.121  71.333  1.00  0.00    -0.200 A  
HETATM   13  C   UNL     1      -9.439   5.291  70.166  1.00  0.00    -0.217 A  
HETATM   14  O   UNL     1     -10.142   4.006  72.106  1.00  0.00    -0.170 OA 
HETATM   15  C   UNL     1     -11.150   4.348  73.082  1.00  0.00    -0.236 C  
HETATM   16  C   UNL     1      -9.641   6.482  69.456  1.00  0.00    -0.152 A  
HETATM   17  C   UNL     1      -8.997   6.685  68.114  1.00  0.00    -0.121 C  
HETATM   18  O   UNL     1     -11.622   5.708  72.952  1.00  0.00    -0.277 OA 
HETATM   19  C   UNL     1     -10.038   7.330  67.214  1.00  0.00    -0.225 C  
HETATM   20  N   UNL     1     -10.483   8.622  67.809  1.00  0.00    -0.238 NA 
HETATM   21  C   UNL     1     -10.723   9.658  66.972  1.00  0.00    -0.155 A  
HETATM   22  C   UNL     1     -11.124  10.930  67.408  1.00  0.00    -0.373 A  
HETATM   23  C   UNL     1     -11.400  12.066  66.585  1.00  0.00    -0.340 A  
BRANCH  23  24
HETATM   24  O   UNL     1     -11.349  12.176  65.220  1.00  0.00    -0.324 OA 
HETATM   25  C   UNL     1     -10.182  12.100  64.434  1.00  0.00    -0.306 C  
ENDBRANCH  23  24
ENDBRANCH   2   3
TORSDOF 2
ENDMDL
MODEL       31
REMARK 921   NORMALIZED FREE ENERGY PREDICTED BY IDOCK:   -5.81 KCAL/MOL
REMARK 922        TOTAL FREE ENERGY PREDICTED BY IDOCK:   -6.61 KCAL/MOL
REMARK 923 INTER-LIGAND FREE ENERGY PREDICTED BY IDOCK:   -6.50 KCAL/MOL
REMARK 924 INTRA-LIGAND FREE ENERGY PREDICTED BY IDOCK:   -0.12 KCAL/MOL
REMARK 927      BINDING AFFINITY PREDICTED BY RF-SCORE:    0.00 PKD
ROOT
HETATM    1  C   UNL     1     -10.738  16.883  65.289  1.00  0.00    -0.134 C  
HETATM    2  O   UNL     1     -11.289  15.586  65.092  1.00  0.00    -0.318 OA 
ENDROOT
BRANCH   2   3
HETATM    3  C   UNL     1     -11.035  14.643  66.062  1.00  0.00    -0.325 A  
HETATM    4  C   UNL     1     -10.950  14.953  67.414  1.00  0.00    -0.314 A  
HETATM    5  C   UNL     1     -10.746  13.943  68.347  1.00  0.00    -0.267 A  
HETATM    6  C   UNL     1     -10.623  12.610  67.946  1.00  0.00    -0.232 A  
HETATM    7  C   UNL     1     -10.449  11.631  68.928  1.00  0.00    -0.201 A  
HETATM    8  C   UNL     1     -10.324  10.287  68.576  1.00  0.00    -0.178 A  
HETATM    9  C   UNL     1     -10.202   9.171  69.532  1.00  0.00    -0.208 A  
HETATM   10  C   UNL     1     -10.742   9.228  70.829  1.00  0.00    -0.350 A  
HETATM   11  C   UNL     1     -10.647   8.110  71.635  1.00  0.00    -0.232 A  
HETATM   12  C   UNL     1     -10.012   6.966  71.224  1.00  0.00    -0.179 A  
HETATM   13  C   UNL     1      -9.441   6.864  69.978  1.00  0.00    -0.158 A  
HETATM   14  O   UNL     1     -10.060   5.980  72.156  1.00  0.00    -0.179 OA 
HETATM   15  C   UNL     1     -10.881   6.602  73.168  1.00  0.00    -0.269 C  
HETATM   16  C   UNL     1      -9.569   7.963  69.118  1.00  0.00    -0.153 A  
HETATM   17  C   UNL     1      -9.079   7.879  67.700  1.00  0.00    -0.139 C  
HETATM   18  O   UNL     1     -11.179   7.986  72.879  1.00  0.00    -0.401 OA 
HETATM   19  C   UNL     1     -10.129   8.544  66.826  1.00  0.00    -0.299 C  
HETATM   20  N   UNL     1     -10.317   9.958  67.258  1.00  0.00    -0.229 NA 
HETATM   21  C   UNL     1     -10.520  10.893  66.300  1.00  0.00    -0.245 A  
HETATM   22  C   UNL     1     -10.688  12.259  66.575  1.00  0.00    -0.279 A  
HETATM   23  C   UNL     1     -10.910  13.300  65.620  1.00  0.00    -0.279 A  
BRANCH  23  24
HETATM   24  O   UNL     1     -11.019  13.212  64.256  1.00  0.00    -0.368 OA 
HETATM   25  C   UNL     1     -12.065  12.578  63.557  1.00  0.00    -0.562 C  
ENDBRANCH  23  24
ENDBRANCH   2   3
TORSDOF 2
ENDMDL
MODEL       32
REMARK 921   NORMALIZED FREE ENERGY PREDICTED BY IDOCK:   -5.78 KCAL/MOL
REMARK 922        TOTAL FREE ENERGY PREDICTED BY IDOCK:   -6.58 KCAL/MOL
REMARK 923 INTER-LIGAND FREE ENERGY PREDICTED BY IDOCK:   -6.61 KCAL/MOL
REMARK 924 INTRA-LIGAND FREE ENERGY PREDICTED BY IDOCK:    0.03 KCAL/MOL
REMARK 927      BINDING AFFINITY PREDICTED BY RF-SCORE:    0.00 PKD
ROOT
HETATM    1  C   UNL     1     -14.141  14.472  72.288  1.00  0.00    -0.500 C  
HETATM    2  O   UNL     1     -13.438  13.236  72.350  1.00  0.00    -0.549 OA 
ENDROOT
BRANCH   2   3
HETATM    3  C   UNL     1     -12.745  12.854  71.224  1.00  0.00    -0.278 A  
HETATM    4  C   UNL     1     -12.326  13.754  70.250  1.00  0.00    -0.407 A  
HETATM    5  C   UNL     1     -11.582  13.308  69.165  1.00  0.00    -0.370 A  
HETATM    6  C   UNL     1     -11.242  11.958  69.034  1.00  0.00    -0.316 A  
HETATM    7  C   UNL     1     -10.465  11.569  67.939  1.00  0.00    -0.211 A  
HETATM    8  C   UNL     1     -10.100  10.234  67.768  1.00  0.00    -0.180 A  
HETATM    9  C   UNL     1      -9.233   9.728  66.688  1.00  0.00    -0.184 A  
HETATM   10  C   UNL     1      -8.251  10.526  66.073  1.00  0.00    -0.150 A  
HETATM   11  C   UNL     1      -7.432   9.950  65.122  1.00  0.00    -0.133 A  
HETATM   12  C   UNL     1      -7.571   8.643  64.732  1.00  0.00    -0.102 A  
HETATM   13  C   UNL     1      -8.532   7.825  65.278  1.00  0.00    -0.099 A  
HETATM   14  O   UNL     1      -6.647   8.272  63.809  1.00  0.00    -0.074 OA 
HETATM   15  C   UNL     1      -5.847   9.471  63.730  1.00  0.00    -0.092 C  
HETATM   16  C   UNL     1      -9.342   8.364  66.286  1.00  0.00    -0.283 A  
HETATM   17  C   UNL     1     -10.329   7.496  67.013  1.00  0.00    -0.395 C  
HETATM   18  O   UNL     1      -6.397  10.568  64.494  1.00  0.00    -0.093 OA 
HETATM   19  C   UNL     1     -10.248   7.867  68.484  1.00  0.00    -0.205 C  
HETATM   20  N   UNL     1     -10.562   9.315  68.654  1.00  0.00    -0.209 NA 
HETATM   21  C   UNL     1     -11.285   9.685  69.737  1.00  0.00    -0.174 A  
HETATM   22  C   UNL     1     -11.664  11.010  69.998  1.00  0.00    -0.437 A  
HETATM   23  C   UNL     1     -12.421  11.476  71.119  1.00  0.00    -0.337 A  
BRANCH  23  24
HETATM   24  O   UNL     1     -12.928  10.763  72.174  1.00  0.00    -0.424 OA 
HETATM   25  C   UNL     1     -13.635   9.548  72.078  1.00  0.00    -0.415 C  
ENDBRANCH  23  24
ENDBRANCH   2   3
TORSDOF 2
ENDMDL
MODEL       33
REMARK 921   NORMALIZED FREE ENERGY PREDICTED BY IDOCK:   -5.76 KCAL/MOL
REMARK 922        TOTAL FREE ENERGY PREDICTED BY IDOCK:   -6.55 KCAL/MOL
REMARK 923 INTER-LIGAND FREE ENERGY PREDICTED BY IDOCK:   -6.45 KCAL/MOL
REMARK 924 INTRA-LIGAND FREE ENERGY PREDICTED BY IDOCK:   -0.10 KCAL/MOL
REMARK 927      BINDING AFFINITY PREDICTED BY RF-SCORE:    0.00 PKD
ROOT
HETATM    1  C   UNL     1      -8.585   5.025  65.064  1.00  0.00    -0.149 C  
HETATM    2  O   UNL     1      -8.105   6.353  65.249  1.00  0.00    -0.122 OA 
ENDROOT
BRANCH   2   3
HETATM    3  C   UNL     1      -8.908   7.214  65.962  1.00  0.00    -0.131 A  
HETATM    4  C   UNL     1      -9.957   6.782  66.764  1.00  0.00    -0.242 A  
HETATM    5  C   UNL     1     -10.693   7.702  67.502  1.00  0.00    -0.280 A  
HETATM    6  C   UNL     1     -10.393   9.066  67.452  1.00  0.00    -0.335 A  
HETATM    7  C   UNL     1     -11.145   9.944  68.238  1.00  0.00    -0.207 A  
HETATM    8  C   UNL     1     -10.881  11.313  68.222  1.00  0.00    -0.205 A  
HETATM    9  C   UNL     1     -11.569  12.315  69.057  1.00  0.00    -0.368 A  
HETATM   10  C   UNL     1     -12.127  11.998  70.308  1.00  0.00    -0.395 A  
HETATM   11  C   UNL     1     -12.687  13.013  71.059  1.00  0.00    -0.262 A  
HETATM   12  C   UNL     1     -12.750  14.307  70.607  1.00  0.00    -0.343 A  
HETATM   13  C   UNL     1     -12.246  14.668  69.379  1.00  0.00    -0.270 A  
HETATM   14  O   UNL     1     -13.312  15.149  71.511  1.00  0.00    -0.376 OA 
HETATM   15  C   UNL     1     -13.511  14.255  72.627  1.00  0.00    -0.525 C  
HETATM   16  C   UNL     1     -11.622  13.671  68.619  1.00  0.00    -0.364 A  
HETATM   17  C   UNL     1     -10.941  14.017  67.325  1.00  0.00    -0.303 C  
HETATM   18  O   UNL     1     -13.200  12.879  72.310  1.00  0.00    -0.476 OA 
HETATM   19  C   UNL     1      -9.636  13.240  67.288  1.00  0.00    -0.234 C  
HETATM   20  N   UNL     1      -9.918  11.780  67.386  1.00  0.00    -0.184 NA 
HETATM   21  C   UNL     1      -9.160  10.936  66.647  1.00  0.00    -0.162 A  
HETATM   22  C   UNL     1      -9.340   9.544  66.634  1.00  0.00    -0.207 A  
HETATM   23  C   UNL     1      -8.579   8.593  65.885  1.00  0.00    -0.157 A  
BRANCH  23  24
HETATM   24  O   UNL     1      -7.521   8.806  65.040  1.00  0.00    -0.093 OA 
HETATM   25  C   UNL     1      -6.192   9.055  65.438  1.00  0.00    -0.063 C  
ENDBRANCH  23  24
ENDBRANCH   2   3
TORSDOF 2
ENDMDL
MODEL       34
REMARK 921   NORMALIZED FREE ENERGY PREDICTED BY IDOCK:   -5.71 KCAL/MOL
REMARK 922        TOTAL FREE ENERGY PREDICTED BY IDOCK:   -6.50 KCAL/MOL
REMARK 923 INTER-LIGAND FREE ENERGY PREDICTED BY IDOCK:   -6.39 KCAL/MOL
REMARK 924 INTRA-LIGAND FREE ENERGY PREDICTED BY IDOCK:   -0.11 KCAL/MOL
REMARK 927      BINDING AFFINITY PREDICTED BY RF-SCORE:    0.00 PKD
ROOT
HETATM    1  C   UNL     1     -10.036   8.564  66.577  1.00  0.00    -0.280 C  
HETATM    2  O   UNL     1     -10.242   9.808  65.917  1.00  0.00    -0.259 OA 
ENDROOT
BRANCH   2   3
HETATM    3  C   UNL     1      -9.789  10.939  66.558  1.00  0.00    -0.204 A  
HETATM    4  C   UNL     1      -8.896  10.900  67.622  1.00  0.00    -0.133 A  
HETATM    5  C   UNL     1      -8.436  12.083  68.188  1.00  0.00    -0.171 A  
HETATM    6  C   UNL     1      -8.859  13.323  67.701  1.00  0.00    -0.200 A  
HETATM    7  C   UNL     1      -8.341  14.482  68.287  1.00  0.00    -0.152 A  
HETATM    8  C   UNL     1      -8.733  15.741  67.833  1.00  0.00    -0.170 A  
HETATM    9  C   UNL     1      -8.202  17.022  68.335  1.00  0.00    -0.250 A  
HETATM   10  C   UNL     1      -6.910  17.141  68.878  1.00  0.00    -0.221 A  
HETATM   11  C   UNL     1      -6.465  18.393  69.256  1.00  0.00    -0.257 A  
HETATM   12  C   UNL     1      -7.253  19.510  69.156  1.00  0.00    -0.347 A  
HETATM   13  C   UNL     1      -8.534  19.448  68.660  1.00  0.00    -0.395 A  
HETATM   14  O   UNL     1      -6.612  20.639  69.553  1.00  0.00    -0.107 OA 
HETATM   15  C   UNL     1      -5.294  20.119  69.828  1.00  0.00    -0.238 C  
HETATM   16  C   UNL     1      -8.995  18.201  68.217  1.00  0.00    -0.306 A  
HETATM   17  C   UNL     1     -10.336  18.079  67.550  1.00  0.00    -0.394 C  
HETATM   18  O   UNL     1      -5.222  18.679  69.728  1.00  0.00    -0.176 OA 
HETATM   19  C   UNL     1     -10.163  17.138  66.370  1.00  0.00    -0.328 C  
HETATM   20  N   UNL     1      -9.668  15.817  66.851  1.00  0.00    -0.225 NA 
HETATM   21  C   UNL     1     -10.150  14.703  66.253  1.00  0.00    -0.294 A  
HETATM   22  C   UNL     1      -9.781  13.402  66.628  1.00  0.00    -0.275 A  
HETATM   23  C   UNL     1     -10.243  12.182  66.042  1.00  0.00    -0.237 A  
BRANCH  23  24
HETATM   24  O   UNL     1     -11.117  12.000  65.002  1.00  0.00    -0.303 OA 
HETATM   25  C   UNL     1     -10.828  12.222  63.640  1.00  0.00    -0.469 C  
ENDBRANCH  23  24
ENDBRANCH   2   3
TORSDOF 2
ENDMDL
MODEL       35
REMARK 921   NORMALIZED FREE ENERGY PREDICTED BY IDOCK:   -5.69 KCAL/MOL
REMARK 922        TOTAL FREE ENERGY PREDICTED BY IDOCK:   -6.48 KCAL/MOL
REMARK 923 INTER-LIGAND FREE ENERGY PREDICTED BY IDOCK:   -6.43 KCAL/MOL
REMARK 924 INTRA-LIGAND FREE ENERGY PREDICTED BY IDOCK:   -0.05 KCAL/MOL
REMARK 927      BINDING AFFINITY PREDICTED BY RF-SCORE:    0.00 PKD
ROOT
HETATM    1  C   UNL     1      -5.869  21.377  67.226  1.00  0.00    -0.352 C  
HETATM    2  O   UNL     1      -7.223  20.940  67.174  1.00  0.00    -0.343 OA 
ENDROOT
BRANCH   2   3
HETATM    3  C   UNL     1      -7.440  19.603  66.927  1.00  0.00    -0.235 A  
HETATM    4  C   UNL     1      -6.472  18.768  66.382  1.00  0.00    -0.223 A  
HETATM    5  C   UNL     1      -6.739  17.415  66.210  1.00  0.00    -0.295 A  
HETATM    6  C   UNL     1      -7.974  16.874  66.578  1.00  0.00    -0.329 A  
HETATM    7  C   UNL     1      -8.177  15.501  66.412  1.00  0.00    -0.055 A  
HETATM    8  C   UNL     1      -9.393  14.917  66.767  1.00  0.00    -0.250 A  
HETATM    9  C   UNL     1      -9.690  13.475  66.693  1.00  0.00    -0.281 A  
HETATM   10  C   UNL     1      -8.689  12.493  66.807  1.00  0.00    -0.147 A  
HETATM   11  C   UNL     1      -9.064  11.163  66.802  1.00  0.00    -0.166 A  
HETATM   12  C   UNL     1     -10.370  10.773  66.650  1.00  0.00    -0.241 A  
HETATM   13  C   UNL     1     -11.385  11.689  66.506  1.00  0.00    -0.331 A  
HETATM   14  O   UNL     1     -10.521   9.425  66.703  1.00  0.00    -0.233 OA 
HETATM   15  C   UNL     1      -9.170   9.012  67.001  1.00  0.00    -0.136 C  
HETATM   16  C   UNL     1     -11.043  13.046  66.563  1.00  0.00    -0.315 A  
HETATM   17  C   UNL     1     -12.113  14.101  66.536  1.00  0.00    -0.481 C  
HETATM   18  O   UNL     1      -8.227  10.106  66.973  1.00  0.00    -0.117 OA 
HETATM   19  C   UNL     1     -11.727  15.152  67.563  1.00  0.00    -0.199 C  
HETATM   20  N   UNL     1     -10.390  15.718  67.224  1.00  0.00    -0.283 NA 
HETATM   21  C   UNL     1     -10.193  17.042  67.422  1.00  0.00    -0.314 A  
HETATM   22  C   UNL     1      -8.989  17.698  67.122  1.00  0.00    -0.249 A  
HETATM   23  C   UNL     1      -8.707  19.088  67.308  1.00  0.00    -0.278 A  
BRANCH  23  24
HETATM   24  O   UNL     1      -9.512  20.073  67.817  1.00  0.00    -0.348 OA 
HETATM   25  C   UNL     1     -10.149  20.043  69.074  1.00  0.00    -0.229 C  
ENDBRANCH  23  24
ENDBRANCH   2   3
TORSDOF 2
ENDMDL
MODEL       36
REMARK 921   NORMALIZED FREE ENERGY PREDICTED BY IDOCK:   -5.68 KCAL/MOL
REMARK 922        TOTAL FREE ENERGY PREDICTED BY IDOCK:   -6.46 KCAL/MOL
REMARK 923 INTER-LIGAND FREE ENERGY PREDICTED BY IDOCK:   -6.35 KCAL/MOL
REMARK 924 INTRA-LIGAND FREE ENERGY PREDICTED BY IDOCK:   -0.11 KCAL/MOL
REMARK 927      BINDING AFFINITY PREDICTED BY RF-SCORE:    0.00 PKD
ROOT
HETATM    1  C   UNL     1     -12.191  12.692  63.337  1.00  0.00    -0.517 C  
HETATM    2  O   UNL     1     -10.905  12.531  63.928  1.00  0.00    -0.366 OA 
ENDROOT
BRANCH   2   3
HETATM    3  C   UNL     1     -10.838  11.794  65.088  1.00  0.00    -0.297 A  
HETATM    4  C   UNL     1     -11.423  12.206  66.280  1.00  0.00    -0.433 A  
HETATM    5  C   UNL     1     -11.364  11.387  67.402  1.00  0.00    -0.359 A  
HETATM    6  C   UNL     1     -10.723  10.146  67.352  1.00  0.00    -0.336 A  
HETATM    7  C   UNL     1     -10.721   9.349  68.501  1.00  0.00    -0.203 A  
HETATM    8  C   UNL     1     -10.096   8.103  68.498  1.00  0.00    -0.200 A  
HETATM    9  C   UNL     1     -10.089   7.158  69.630  1.00  0.00    -0.196 A  
HETATM   10  C   UNL     1     -11.120   7.121  70.585  1.00  0.00    -0.294 A  
HETATM   11  C   UNL     1     -11.073   6.155  71.572  1.00  0.00    -0.286 A  
HETATM   12  C   UNL     1     -10.038   5.261  71.670  1.00  0.00    -0.199 A  
HETATM   13  C   UNL     1      -8.989   5.270  70.781  1.00  0.00    -0.160 A  
HETATM   14  O   UNL     1     -10.203   4.381  72.690  1.00  0.00    -0.169 OA 
HETATM   15  C   UNL     1     -11.511   4.763  73.168  1.00  0.00    -0.260 C  
HETATM   16  C   UNL     1      -9.036   6.203  69.737  1.00  0.00    -0.144 A  
HETATM   17  C   UNL     1      -7.990   6.190  68.659  1.00  0.00    -0.101 C  
HETATM   18  O   UNL     1     -12.026   5.947  72.519  1.00  0.00    -0.274 OA 
HETATM   19  C   UNL     1      -8.708   6.409  67.338  1.00  0.00    -0.106 C  
HETATM   20  N   UNL     1      -9.442   7.706  67.375  1.00  0.00    -0.139 NA 
HETATM   21  C   UNL     1      -9.467   8.453  66.247  1.00  0.00    -0.224 A  
HETATM   22  C   UNL     1     -10.103   9.701  66.159  1.00  0.00    -0.328 A  
HETATM   23  C   UNL     1     -10.175  10.542  65.004  1.00  0.00    -0.295 A  
BRANCH  23  24
HETATM   24  O   UNL     1      -9.667  10.331  63.749  1.00  0.00    -0.302 OA 
HETATM   25  C   UNL     1      -8.299  10.274  63.417  1.00  0.00    -0.169 C  
ENDBRANCH  23  24
ENDBRANCH   2   3
TORSDOF 2
ENDMDL
MODEL       37
REMARK 921   NORMALIZED FREE ENERGY PREDICTED BY IDOCK:   -5.64 KCAL/MOL
REMARK 922        TOTAL FREE ENERGY PREDICTED BY IDOCK:   -6.42 KCAL/MOL
REMARK 923 INTER-LIGAND FREE ENERGY PREDICTED BY IDOCK:   -6.35 KCAL/MOL
REMARK 924 INTRA-LIGAND FREE ENERGY PREDICTED BY IDOCK:   -0.06 KCAL/MOL
REMARK 927      BINDING AFFINITY PREDICTED BY RF-SCORE:    0.00 PKD
ROOT
HETATM    1  C   UNL     1      -9.589   1.934  72.175  1.00  0.00    -0.107 C  
HETATM    2  O   UNL     1      -9.204   3.083  72.922  1.00  0.00    -0.089 OA 
ENDROOT
BRANCH   2   3
HETATM    3  C   UNL     1      -9.899   4.247  72.683  1.00  0.00    -0.149 A  
HETATM    4  C   UNL     1     -11.186   4.471  73.158  1.00  0.00    -0.339 A  
HETATM    5  C   UNL     1     -11.809   5.691  72.927  1.00  0.00    -0.106 A  
HETATM    6  C   UNL     1     -11.159   6.707  72.220  1.00  0.00    -0.292 A  
HETATM    7  C   UNL     1     -11.820   7.926  72.044  1.00  0.00    -0.364 A  
HETATM    8  C   UNL     1     -11.210   8.969  71.347  1.00  0.00    -0.324 A  
HETATM    9  C   UNL     1     -11.789  10.311  71.159  1.00  0.00    -0.455 A  
HETATM   10  C   UNL     1     -12.695  10.876  72.075  1.00  0.00    -0.211 A  
HETATM   11  C   UNL     1     -13.132  12.169  71.861  1.00  0.00    -0.369 A  
HETATM   12  C   UNL     1     -12.743  12.901  70.769  1.00  0.00    -0.149 A  
HETATM   13  C   UNL     1     -11.882  12.389  69.826  1.00  0.00    -0.387 A  
HETATM   14  O   UNL     1     -13.264  14.154  70.767  1.00  0.00    -0.290 OA 
HETATM   15  C   UNL     1     -13.953  14.163  72.036  1.00  0.00    -0.513 C  
HETATM   16  C   UNL     1     -11.378  11.100  70.044  1.00  0.00    -0.326 A  
HETATM   17  C   UNL     1     -10.340  10.524  69.124  1.00  0.00    -0.240 C  
HETATM   18  O   UNL     1     -13.947  12.874  72.689  1.00  0.00    -0.589 OA 
HETATM   19  C   UNL     1      -9.315   9.817  69.995  1.00  0.00    -0.235 C  
HETATM   20  N   UNL     1      -9.986   8.755  70.797  1.00  0.00    -0.199 NA 
HETATM   21  C   UNL     1      -9.322   7.592  70.992  1.00  0.00    -0.152 A  
HETATM   22  C   UNL     1      -9.853   6.509  71.709  1.00  0.00    -0.178 A  
HETATM   23  C   UNL     1      -9.211   5.255  71.958  1.00  0.00    -0.137 A  
BRANCH  23  24
HETATM   24  O   UNL     1      -7.964   4.833  71.579  1.00  0.00    -0.096 OA 
HETATM   25  C   UNL     1      -6.743   5.385  72.018  1.00  0.00    -0.058 C  
ENDBRANCH  23  24
ENDBRANCH   2   3
TORSDOF 2
ENDMDL
MODEL       38
REMARK 921   NORMALIZED FREE ENERGY PREDICTED BY IDOCK:   -5.63 KCAL/MOL
REMARK 922        TOTAL FREE ENERGY PREDICTED BY IDOCK:   -6.41 KCAL/MOL
REMARK 923 INTER-LIGAND FREE ENERGY PREDICTED BY IDOCK:   -6.28 KCAL/MOL
REMARK 924 INTRA-LIGAND FREE ENERGY PREDICTED BY IDOCK:   -0.13 KCAL/MOL
REMARK 927      BINDING AFFINITY PREDICTED BY RF-SCORE:    0.00 PKD
ROOT
HETATM    1  C   UNL     1     -11.384  15.183  67.851  1.00  0.00    -0.338 C  
HETATM    2  O   UNL     1     -12.160  14.359  68.715  1.00  0.00    -0.308 OA 
ENDROOT
BRANCH   2   3
HETATM    3  C   UNL     1     -11.890  13.010  68.702  1.00  0.00    -0.318 A  
HETATM    4  C   UNL     1     -11.603  12.307  67.538  1.00  0.00    -0.422 A  
HETATM    5  C   UNL     1     -11.285  10.956  67.603  1.00  0.00    -0.379 A  
HETATM    6  C   UNL     1     -11.248  10.285  68.828  1.00  0.00    -0.260 A  
HETATM    7  C   UNL     1     -10.891   8.933  68.839  1.00  0.00    -0.052 A  
HETATM    8  C   UNL     1     -10.838   8.224  70.039  1.00  0.00    -0.232 A  
HETATM    9  C   UNL     1     -10.415   6.818  70.170  1.00  0.00    -0.240 A  
HETATM   10  C   UNL     1      -9.515   6.215  69.272  1.00  0.00    -0.147 A  
HETATM   11  C   UNL     1      -9.113   4.915  69.512  1.00  0.00    -0.104 A  
HETATM   12  C   UNL     1      -9.591   4.186  70.570  1.00  0.00    -0.191 A  
HETATM   13  C   UNL     1     -10.494   4.714  71.462  1.00  0.00    -0.102 A  
HETATM   14  O   UNL     1      -9.045   2.945  70.637  1.00  0.00    -0.097 OA 
HETATM   15  C   UNL     1      -8.094   3.008  69.553  1.00  0.00    -0.047 C  
HETATM   16  C   UNL     1     -10.879   6.048  71.277  1.00  0.00    -0.331 A  
HETATM   17  C   UNL     1     -11.765   6.730  72.281  1.00  0.00    -0.300 C  
HETATM   18  O   UNL     1      -8.199   4.225  68.780  1.00  0.00    -0.078 OA 
HETATM   19  C   UNL     1     -11.211   8.129  72.486  1.00  0.00    -0.391 C  
HETATM   20  N   UNL     1     -11.195   8.858  71.186  1.00  0.00    -0.264 NA 
HETATM   21  C   UNL     1     -11.507  10.175  71.192  1.00  0.00    -0.307 A  
HETATM   22  C   UNL     1     -11.550  10.966  70.033  1.00  0.00    -0.424 A  
HETATM   23  C   UNL     1     -11.866  12.359  69.963  1.00  0.00    -0.288 A  
BRANCH  23  24
HETATM   24  O   UNL     1     -12.180  13.225  70.977  1.00  0.00    -0.340 OA 
HETATM   25  C   UNL     1     -13.404  13.258  71.676  1.00  0.00    -0.322 C  
ENDBRANCH  23  24
ENDBRANCH   2   3
TORSDOF 2
ENDMDL
MODEL       39
REMARK 921   NORMALIZED FREE ENERGY PREDICTED BY IDOCK:   -5.58 KCAL/MOL
REMARK 922        TOTAL FREE ENERGY PREDICTED BY IDOCK:   -6.35 KCAL/MOL
REMARK 923 INTER-LIGAND FREE ENERGY PREDICTED BY IDOCK:   -6.23 KCAL/MOL
REMARK 924 INTRA-LIGAND FREE ENERGY PREDICTED BY IDOCK:   -0.12 KCAL/MOL
REMARK 927      BINDING AFFINITY PREDICTED BY RF-SCORE:    0.00 PKD
ROOT
HETATM    1  C   UNL     1      -9.215   3.724  64.579  1.00  0.00    -0.144 C  
HETATM    2  O   UNL     1      -8.524   4.507  65.546  1.00  0.00    -0.117 OA 
ENDROOT
BRANCH   2   3
HETATM    3  C   UNL     1      -9.198   5.582  66.079  1.00  0.00    -0.158 A  
HETATM    4  C   UNL     1     -10.242   5.446  66.986  1.00  0.00    -0.274 A  
HETATM    5  C   UNL     1     -10.843   6.576  67.528  1.00  0.00    -0.433 A  
HETATM    6  C   UNL     1     -10.412   7.858  67.174  1.00  0.00    -0.414 A  
HETATM    7  C   UNL     1     -11.031   8.959  67.773  1.00  0.00     0.036 A  
HETATM    8  C   UNL     1     -10.633  10.257  67.453  1.00  0.00    -0.270 A  
HETATM    9  C   UNL     1     -11.172  11.482  68.070  1.00  0.00    -0.335 A  
HETATM   10  C   UNL     1     -11.694  11.501  69.377  1.00  0.00    -0.413 A  
HETATM   11  C   UNL     1     -12.110  12.707  69.905  1.00  0.00    -0.252 A  
HETATM   12  C   UNL     1     -12.067  13.874  69.186  1.00  0.00    -0.338 A  
HETATM   13  C   UNL     1     -11.595  13.909  67.895  1.00  0.00    -0.377 A  
HETATM   14  O   UNL     1     -12.494  14.944  69.902  1.00  0.00    -0.299 OA 
HETATM   15  C   UNL     1     -12.724  14.335  71.191  1.00  0.00    -0.360 C  
HETATM   16  C   UNL     1     -11.114  12.711  67.350  1.00  0.00    -0.315 A  
HETATM   17  C   UNL     1     -10.470  12.698  65.993  1.00  0.00    -0.288 C  
HETATM   18  O   UNL     1     -12.568  12.898  71.171  1.00  0.00    -0.370 OA 
HETATM   19  C   UNL     1      -9.252  11.795  66.087  1.00  0.00    -0.210 C  
HETATM   20  N   UNL     1      -9.673  10.428  66.507  1.00  0.00    -0.186 NA 
HETATM   21  C   UNL     1      -9.043   9.369  65.947  1.00  0.00    -0.195 A  
HETATM   22  C   UNL     1      -9.361   8.034  66.241  1.00  0.00    -0.246 A  
HETATM   23  C   UNL     1      -8.738   6.869  65.694  1.00  0.00    -0.072 A  
BRANCH  23  24
HETATM   24  O   UNL     1      -7.709   6.782  64.793  1.00  0.00    -0.097 OA 
HETATM   25  C   UNL     1      -7.803   7.059  63.414  1.00  0.00    -0.107 C  
ENDBRANCH  23  24
ENDBRANCH   2   3
TORSDOF 2
ENDMDL
MODEL       40
REMARK 921   NORMALIZED FREE ENERGY PREDICTED BY IDOCK:   -5.58 KCAL/MOL
REMARK 922        TOTAL FREE ENERGY PREDICTED BY IDOCK:   -6.35 KCAL/MOL
REMARK 923 INTER-LIGAND FREE ENERGY PREDICTED BY IDOCK:   -6.38 KCAL/MOL
REMARK 924 INTRA-LIGAND FREE ENERGY PREDICTED BY IDOCK:    0.03 KCAL/MOL
REMARK 927      BINDING AFFINITY PREDICTED BY RF-SCORE:    0.00 PKD
ROOT
HETATM    1  C   UNL     1      -5.147  21.343  66.292  1.00  0.00    -0.228 C  
HETATM    2  O   UNL     1      -6.496  21.072  65.928  1.00  0.00    -0.227 OA 
ENDROOT
BRANCH   2   3
HETATM    3  C   UNL     1      -7.218  20.254  66.767  1.00  0.00    -0.267 A  
HETATM    4  C   UNL     1      -7.604  20.635  68.047  1.00  0.00    -0.064 A  
HETATM    5  C   UNL     1      -8.381  19.782  68.821  1.00  0.00    -0.192 A  
HETATM    6  C   UNL     1      -8.785  18.537  68.332  1.00  0.00    -0.351 A  
HETATM    7  C   UNL     1      -9.591  17.731  69.141  1.00  0.00    -0.041 A  
HETATM    8  C   UNL     1     -10.021  16.482  68.695  1.00  0.00    -0.248 A  
HETATM    9  C   UNL     1     -10.922  15.583  69.438  1.00  0.00    -0.276 A  
HETATM   10  C   UNL     1     -11.872  16.062  70.359  1.00  0.00    -0.286 A  
HETATM   11  C   UNL     1     -12.728  15.157  70.957  1.00  0.00    -0.392 A  
HETATM   12  C   UNL     1     -12.654  13.810  70.711  1.00  0.00    -0.340 A  
HETATM   13  C   UNL     1     -11.727  13.283  69.843  1.00  0.00    -0.330 A  
HETATM   14  O   UNL     1     -13.604  13.105  71.377  1.00  0.00    -0.146 OA 
HETATM   15  C   UNL     1     -14.348  14.175  72.000  1.00  0.00    -0.512 C  
HETATM   16  C   UNL     1     -10.881  14.182  69.179  1.00  0.00    -0.254 A  
HETATM   17  C   UNL     1      -9.928  13.691  68.126  1.00  0.00    -0.246 C  
HETATM   18  O   UNL     1     -13.739  15.471  71.808  1.00  0.00    -0.476 OA 
HETATM   19  C   UNL     1      -9.975  14.691  66.983  1.00  0.00    -0.246 C  
HETATM   20  N   UNL     1      -9.593  16.042  67.483  1.00  0.00    -0.221 NA 
HETATM   21  C   UNL     1      -8.841  16.827  66.676  1.00  0.00    -0.255 A  
HETATM   22  C   UNL     1      -8.397  18.109  67.038  1.00  0.00    -0.250 A  
HETATM   23  C   UNL     1      -7.608  18.995  66.241  1.00  0.00    -0.273 A  
BRANCH  23  24
HETATM   24  O   UNL     1      -7.122  18.814  64.972  1.00  0.00    -0.409 OA 
HETATM   25  C   UNL     1      -5.871  18.253  64.645  1.00  0.00     0.148 C  
ENDBRANCH  23  24
ENDBRANCH   2   3
TORSDOF 2
ENDMDL
MODEL       41
REMARK 921   NORMALIZED FREE ENERGY PREDICTED BY IDOCK:   -5.58 KCAL/MOL
REMARK 922        TOTAL FREE ENERGY PREDICTED BY IDOCK:   -6.35 KCAL/MOL
REMARK 923 INTER-LIGAND FREE ENERGY PREDICTED BY IDOCK:   -6.45 KCAL/MOL
REMARK 924 INTRA-LIGAND FREE ENERGY PREDICTED BY IDOCK:    0.10 KCAL/MOL
REMARK 927      BINDING AFFINITY PREDICTED BY RF-SCORE:    0.00 PKD
ROOT
HETATM    1  C   UNL     1     -10.629  19.369  66.762  1.00  0.00    -0.472 C  
HETATM    2  O   UNL     1     -10.606  18.342  67.747  1.00  0.00    -0.409 OA 
ENDROOT
BRANCH   2   3
HETATM    3  C   UNL     1     -10.505  17.046  67.297  1.00  0.00    -0.301 A  
HETATM    4  C   UNL     1     -10.226  16.724  65.974  1.00  0.00    -0.361 A  
HETATM    5  C   UNL     1     -10.082  15.393  65.598  1.00  0.00    -0.406 A  
HETATM    6  C   UNL     1     -10.213  14.365  66.535  1.00  0.00    -0.276 A  
HETATM    7  C   UNL     1     -10.027  13.046  66.109  1.00  0.00    -0.278 A  
HETATM    8  C   UNL     1     -10.145  11.987  67.008  1.00  0.00    -0.203 A  
HETATM    9  C   UNL     1      -9.908  10.569  66.680  1.00  0.00    -0.246 A  
HETATM   10  C   UNL     1      -9.029  10.171  65.656  1.00  0.00    -0.199 A  
HETATM   11  C   UNL     1      -8.807   8.821  65.464  1.00  0.00    -0.188 A  
HETATM   12  C   UNL     1      -9.444   7.862  66.210  1.00  0.00    -0.151 A  
HETATM   13  C   UNL     1     -10.335   8.194  67.204  1.00  0.00    -0.391 A  
HETATM   14  O   UNL     1      -9.061   6.603  65.879  1.00  0.00    -0.130 OA 
HETATM   15  C   UNL     1      -8.036   6.880  64.900  1.00  0.00    -0.109 C  
HETATM   16  C   UNL     1     -10.538   9.556  67.459  1.00  0.00    -0.338 A  
HETATM   17  C   UNL     1     -11.402   9.993  68.609  1.00  0.00    -0.115 C  
HETATM   18  O   UNL     1      -7.937   8.283  64.569  1.00  0.00    -0.132 OA 
HETATM   19  C   UNL     1     -10.695  11.160  69.278  1.00  0.00    -0.199 C  
HETATM   20  N   UNL     1     -10.499  12.260  68.291  1.00  0.00    -0.220 NA 
HETATM   21  C   UNL     1     -10.647  13.534  68.723  1.00  0.00    -0.218 A  
HETATM   22  C   UNL     1     -10.511  14.655  67.889  1.00  0.00    -0.242 A  
HETATM   23  C   UNL     1     -10.648  16.025  68.274  1.00  0.00    -0.283 A  
BRANCH  23  24
HETATM   24  O   UNL     1     -10.923  16.553  69.508  1.00  0.00    -0.318 OA 
HETATM   25  C   UNL     1     -11.838  16.023  70.440  1.00  0.00    -0.268 C  
ENDBRANCH  23  24
ENDBRANCH   2   3
TORSDOF 2
ENDMDL
MODEL       42
REMARK 921   NORMALIZED FREE ENERGY PREDICTED BY IDOCK:   -5.52 KCAL/MOL
REMARK 922        TOTAL FREE ENERGY PREDICTED BY IDOCK:   -6.29 KCAL/MOL
REMARK 923 INTER-LIGAND FREE ENERGY PREDICTED BY IDOCK:   -6.18 KCAL/MOL
REMARK 924 INTRA-LIGAND FREE ENERGY PREDICTED BY IDOCK:   -0.11 KCAL/MOL
REMARK 927      BINDING AFFINITY PREDICTED BY RF-SCORE:    0.00 PKD
ROOT
HETATM    1  C   UNL     1     -11.786  15.657  68.840  1.00  0.00    -0.352 C  
HETATM    2  O   UNL     1     -12.402  14.458  68.383  1.00  0.00    -0.203 OA 
ENDROOT
BRANCH   2   3
HETATM    3  C   UNL     1     -12.117  13.304  69.078  1.00  0.00    -0.226 A  
HETATM    4  C   UNL     1     -12.511  13.097  70.395  1.00  0.00    -0.280 A  
HETATM    5  C   UNL     1     -12.239  11.886  71.019  1.00  0.00    -0.275 A  
HETATM    6  C   UNL     1     -11.571  10.863  70.340  1.00  0.00    -0.418 A  
HETATM    7  C   UNL     1     -11.350   9.654  71.006  1.00  0.00    -0.444 A  
HETATM    8  C   UNL     1     -10.690   8.604  70.369  1.00  0.00    -0.224 A  
HETATM    9  C   UNL     1     -10.462   7.270  70.954  1.00  0.00    -0.225 A  
HETATM   10  C   UNL     1     -11.320   6.716  71.922  1.00  0.00    -0.318 A  
HETATM   11  C   UNL     1     -11.076   5.430  72.363  1.00  0.00    -0.229 A  
HETATM   12  C   UNL     1     -10.007   4.695  71.918  1.00  0.00    -0.189 A  
HETATM   13  C   UNL     1      -9.120   5.197  70.994  1.00  0.00    -0.178 A  
HETATM   14  O   UNL     1      -9.970   3.449  72.455  1.00  0.00    -0.150 OA 
HETATM   15  C   UNL     1     -11.194   3.447  73.221  1.00  0.00    -0.092 C  
HETATM   16  C   UNL     1      -9.373   6.478  70.487  1.00  0.00    -0.167 A  
HETATM   17  C   UNL     1      -8.519   7.042  69.386  1.00  0.00    -0.133 C  
HETATM   18  O   UNL     1     -11.850   4.735  73.237  1.00  0.00    -0.261 OA 
HETATM   19  C   UNL     1      -9.454   7.732  68.407  1.00  0.00    -0.147 C  
HETATM   20  N   UNL     1     -10.217   8.801  69.111  1.00  0.00    -0.203 NA 
HETATM   21  C   UNL     1     -10.455   9.955  68.444  1.00  0.00    -0.208 A  
HETATM   22  C   UNL     1     -11.141  11.044  69.003  1.00  0.00    -0.301 A  
HETATM   23  C   UNL     1     -11.433  12.288  68.360  1.00  0.00    -0.307 A  
BRANCH  23  24
HETATM   24  O   UNL     1     -11.133  12.694  67.087  1.00  0.00    -0.258 OA 
HETATM   25  C   UNL     1     -11.774  12.250  65.913  1.00  0.00    -0.389 C  
ENDBRANCH  23  24
ENDBRANCH   2   3
TORSDOF 2
ENDMDL
MODEL       43
REMARK 921   NORMALIZED FREE ENERGY PREDICTED BY IDOCK:   -5.52 KCAL/MOL
REMARK 922        TOTAL FREE ENERGY PREDICTED BY IDOCK:   -6.28 KCAL/MOL
REMARK 923 INTER-LIGAND FREE ENERGY PREDICTED BY IDOCK:   -6.37 KCAL/MOL
REMARK 924 INTRA-LIGAND FREE ENERGY PREDICTED BY IDOCK:    0.09 KCAL/MOL
REMARK 927      BINDING AFFINITY PREDICTED BY RF-SCORE:    0.00 PKD
ROOT
HETATM    1  C   UNL     1     -11.801  16.372  70.766  1.00  0.00     0.075 C  
HETATM    2  O   UNL     1     -12.796  15.443  70.350  1.00  0.00    -0.390 OA 
ENDROOT
BRANCH   2   3
HETATM    3  C   UNL     1     -12.365  14.193  69.968  1.00  0.00    -0.344 A  
HETATM    4  C   UNL     1     -11.686  13.958  68.778  1.00  0.00    -0.392 A  
HETATM    5  C   UNL     1     -11.230  12.680  68.479  1.00  0.00    -0.315 A  
HETATM    6  C   UNL     1     -11.443  11.617  69.361  1.00  0.00    -0.372 A  
HETATM    7  C   UNL     1     -10.935  10.359  69.025  1.00  0.00    -0.282 A  
HETATM    8  C   UNL     1     -11.121   9.269  69.875  1.00  0.00    -0.181 A  
HETATM    9  C   UNL     1     -10.575   7.918  69.648  1.00  0.00    -0.234 A  
HETATM   10  C   UNL     1      -9.397   7.696  68.913  1.00  0.00    -0.145 A  
HETATM   11  C   UNL     1      -8.914   6.405  68.812  1.00  0.00    -0.126 A  
HETATM   12  C   UNL     1      -9.566   5.336  69.371  1.00  0.00    -0.156 A  
HETATM   13  C   UNL     1     -10.737   5.491  70.075  1.00  0.00    -0.356 A  
HETATM   14  O   UNL     1      -8.907   4.165  69.179  1.00  0.00    -0.086 OA 
HETATM   15  C   UNL     1      -7.713   4.631  68.515  1.00  0.00    -0.076 C  
HETATM   16  C   UNL     1     -11.222   6.795  70.242  1.00  0.00    -0.385 A  
HETATM   17  C   UNL     1     -12.426   7.054  71.102  1.00  0.00    -0.407 C  
HETATM   18  O   UNL     1      -7.757   6.041  68.200  1.00  0.00    -0.098 OA 
HETATM   19  C   UNL     1     -12.130   8.299  71.920  1.00  0.00    -0.332 C  
HETATM   20  N   UNL     1     -11.853   9.444  71.006  1.00  0.00    -0.305 NA 
HETATM   21  C   UNL     1     -12.319  10.665  71.359  1.00  0.00    -0.350 A  
HETATM   22  C   UNL     1     -12.144  11.816  70.576  1.00  0.00    -0.439 A  
HETATM   23  C   UNL     1     -12.602  13.135  70.885  1.00  0.00    -0.295 A  
BRANCH  23  24
HETATM   24  O   UNL     1     -13.287  13.576  71.987  1.00  0.00    -0.404 OA 
HETATM   25  C   UNL     1     -12.704  14.034  73.185  1.00  0.00     0.023 C  
ENDBRANCH  23  24
ENDBRANCH   2   3
TORSDOF 2
ENDMDL
MODEL       44
REMARK 921   NORMALIZED FREE ENERGY PREDICTED BY IDOCK:   -5.49 KCAL/MOL
REMARK 922        TOTAL FREE ENERGY PREDICTED BY IDOCK:   -6.25 KCAL/MOL
REMARK 923 INTER-LIGAND FREE ENERGY PREDICTED BY IDOCK:   -6.13 KCAL/MOL
REMARK 924 INTRA-LIGAND FREE ENERGY PREDICTED BY IDOCK:   -0.12 KCAL/MOL
REMARK 927      BINDING AFFINITY PREDICTED BY RF-SCORE:    0.00 PKD
ROOT
HETATM    1  C   UNL     1     -12.300  14.789  70.589  1.00  0.00    -0.337 C  
HETATM    2  O   UNL     1     -12.522  14.227  69.300  1.00  0.00    -0.241 OA 
ENDROOT
BRANCH   2   3
HETATM    3  C   UNL     1     -11.966  12.993  69.051  1.00  0.00    -0.267 A  
HETATM    4  C   UNL     1     -11.931  11.975  69.998  1.00  0.00    -0.400 A  
HETATM    5  C   UNL     1     -11.404  10.733  69.662  1.00  0.00    -0.362 A  
HETATM    6  C   UNL     1     -10.906  10.487  68.380  1.00  0.00    -0.284 A  
HETATM    7  C   UNL     1     -10.417   9.211  68.088  1.00  0.00    -0.260 A  
HETATM    8  C   UNL     1      -9.912   8.918  66.821  1.00  0.00    -0.267 A  
HETATM    9  C   UNL     1      -9.432   7.592  66.389  1.00  0.00    -0.224 A  
HETATM   10  C   UNL     1      -9.919   6.396  66.946  1.00  0.00    -0.217 A  
HETATM   11  C   UNL     1      -9.470   5.196  66.431  1.00  0.00    -0.153 A  
HETATM   12  C   UNL     1      -8.540   5.135  65.425  1.00  0.00    -0.146 A  
HETATM   13  C   UNL     1      -8.008   6.272  64.863  1.00  0.00    -0.124 A  
HETATM   14  O   UNL     1      -8.261   3.861  65.049  1.00  0.00    -0.096 OA 
HETATM   15  C   UNL     1      -9.194   3.125  65.869  1.00  0.00    -0.135 C  
HETATM   16  C   UNL     1      -8.485   7.505  65.327  1.00  0.00    -0.075 A  
HETATM   17  C   UNL     1      -8.041   8.784  64.676  1.00  0.00    -0.157 C  
HETATM   18  O   UNL     1      -9.898   3.964  66.813  1.00  0.00    -0.206 OA 
HETATM   19  C   UNL     1      -9.271   9.668  64.548  1.00  0.00    -0.218 C  
HETATM   20  N   UNL     1      -9.854   9.913  65.898  1.00  0.00    -0.257 NA 
HETATM   21  C   UNL     1     -10.357  11.142  66.158  1.00  0.00    -0.250 A  
HETATM   22  C   UNL     1     -10.913  11.505  67.395  1.00  0.00    -0.317 A  
HETATM   23  C   UNL     1     -11.465  12.778  67.741  1.00  0.00    -0.326 A  
BRANCH  23  24
HETATM   24  O   UNL     1     -11.590  13.904  66.969  1.00  0.00    -0.331 OA 
HETATM   25  C   UNL     1     -12.429  14.037  65.844  1.00  0.00    -0.481 C  
ENDBRANCH  23  24
ENDBRANCH   2   3
TORSDOF 2
ENDMDL
MODEL       45
REMARK 921   NORMALIZED FREE ENERGY PREDICTED BY IDOCK:   -5.46 KCAL/MOL
REMARK 922        TOTAL FREE ENERGY PREDICTED BY IDOCK:   -6.21 KCAL/MOL
REMARK 923 INTER-LIGAND FREE ENERGY PREDICTED BY IDOCK:   -6.15 KCAL/MOL
REMARK 924 INTRA-LIGAND FREE ENERGY PREDICTED BY IDOCK:   -0.07 KCAL/MOL
REMARK 927      BINDING AFFINITY PREDICTED BY RF-SCORE:    0.00 PKD
ROOT
HETATM    1  C   UNL     1     -11.634  15.551  64.458  1.00  0.00    -0.283 C  
HETATM    2  O   UNL     1     -10.449  14.969  64.992  1.00  0.00    -0.388 OA 
ENDROOT
BRANCH   2   3
HETATM    3  C   UNL     1     -10.531  13.663  65.419  1.00  0.00    -0.324 A  
HETATM    4  C   UNL     1     -10.615  12.585  64.546  1.00  0.00    -0.363 A  
HETATM    5  C   UNL     1     -10.639  11.288  65.045  1.00  0.00    -0.353 A  
HETATM    6  C   UNL     1     -10.579  11.046  66.420  1.00  0.00    -0.308 A  
HETATM    7  C   UNL     1     -10.575   9.720  66.865  1.00  0.00    -0.243 A  
HETATM    8  C   UNL     1     -10.514   9.430  68.227  1.00  0.00    -0.217 A  
HETATM    9  C   UNL     1     -10.441   8.073  68.800  1.00  0.00    -0.196 A  
HETATM   10  C   UNL     1      -9.872   6.992  68.102  1.00  0.00    -0.151 A  
HETATM   11  C   UNL     1      -9.776   5.771  68.741  1.00  0.00    -0.132 A  
HETATM   12  C   UNL     1     -10.250   5.572  70.013  1.00  0.00    -0.266 A  
HETATM   13  C   UNL     1     -10.841   6.586  70.730  1.00  0.00    -0.311 A  
HETATM   14  O   UNL     1     -10.028   4.310  70.461  1.00  0.00    -0.209 OA 
HETATM   15  C   UNL     1      -9.273   3.760  69.360  1.00  0.00    -0.156 C  
HETATM   16  C   UNL     1     -10.903   7.850  70.129  1.00  0.00    -0.243 A  
HETATM   17  C   UNL     1     -11.422   9.032  70.898  1.00  0.00    -0.347 C  
HETATM   18  O   UNL     1      -9.191   4.656  68.229  1.00  0.00    -0.115 OA 
HETATM   19  C   UNL     1     -10.511  10.205  70.581  1.00  0.00    -0.018 C  
HETATM   20  N   UNL     1     -10.516  10.461  69.112  1.00  0.00    -0.212 NA 
HETATM   21  C   UNL     1     -10.484  11.747  68.692  1.00  0.00    -0.222 A  
HETATM   22  C   UNL     1     -10.509  12.120  67.340  1.00  0.00    -0.233 A  
HETATM   23  C   UNL     1     -10.473  13.453  66.822  1.00  0.00    -0.275 A  
BRANCH  23  24
HETATM   24  O   UNL     1     -10.398  14.641  67.501  1.00  0.00    -0.234 OA 
HETATM   25  C   UNL     1     -11.483  15.313  68.100  1.00  0.00    -0.346 C  
ENDBRANCH  23  24
ENDBRANCH   2   3
TORSDOF 2
ENDMDL
MODEL       46
REMARK 921   NORMALIZED FREE ENERGY PREDICTED BY IDOCK:   -5.45 KCAL/MOL
REMARK 922        TOTAL FREE ENERGY PREDICTED BY IDOCK:   -6.21 KCAL/MOL
REMARK 923 INTER-LIGAND FREE ENERGY PREDICTED BY IDOCK:   -6.07 KCAL/MOL
REMARK 924 INTRA-LIGAND FREE ENERGY PREDICTED BY IDOCK:   -0.14 KCAL/MOL
REMARK 927      BINDING AFFINITY PREDICTED BY RF-SCORE:    0.00 PKD
ROOT
HETATM    1  C   UNL     1      -9.276   2.262  68.272  1.00  0.00    -0.192 C  
HETATM    2  O   UNL     1      -8.509   3.435  68.520  1.00  0.00    -0.078 OA 
ENDROOT
BRANCH   2   3
HETATM    3  C   UNL     1      -9.055   4.635  68.126  1.00  0.00    -0.120 A  
HETATM    4  C   UNL     1     -10.174   5.193  68.734  1.00  0.00    -0.202 A  
HETATM    5  C   UNL     1     -10.640   6.436  68.322  1.00  0.00    -0.312 A  
HETATM    6  C   UNL     1     -10.000   7.141  67.299  1.00  0.00    -0.243 A  
HETATM    7  C   UNL     1     -10.493   8.400  66.946  1.00  0.00    -0.359 A  
HETATM    8  C   UNL     1      -9.885   9.141  65.933  1.00  0.00    -0.235 A  
HETATM    9  C   UNL     1     -10.283  10.501  65.526  1.00  0.00    -0.325 A  
HETATM   10  C   UNL     1     -10.893  11.405  66.415  1.00  0.00    -0.323 A  
HETATM   11  C   UNL     1     -11.166  12.685  65.973  1.00  0.00    -0.306 A  
HETATM   12  C   UNL     1     -10.897  13.087  64.689  1.00  0.00    -0.354 A  
HETATM   13  C   UNL     1     -10.328  12.237  63.770  1.00  0.00    -0.464 A  
HETATM   14  O   UNL     1     -11.214  14.389  64.474  1.00  0.00    -0.364 OA 
HETATM   15  C   UNL     1     -11.628  14.791  65.797  1.00  0.00    -0.290 C  
HETATM   16  C   UNL     1      -9.990  10.949  64.205  1.00  0.00    -0.392 A  
HETATM   17  C   UNL     1      -9.254  10.008  63.293  1.00  0.00    -0.317 C  
HETATM   18  O   UNL     1     -11.684  13.688  66.729  1.00  0.00    -0.351 OA 
HETATM   19  C   UNL     1      -8.193   9.315  64.131  1.00  0.00    -0.159 C  
HETATM   20  N   UNL     1      -8.841   8.590  65.261  1.00  0.00    -0.145 NA 
HETATM   21  C   UNL     1      -8.334   7.387  65.617  1.00  0.00    -0.140 A  
HETATM   22  C   UNL     1      -8.867   6.596  66.647  1.00  0.00    -0.140 A  
HETATM   23  C   UNL     1      -8.383   5.322  67.081  1.00  0.00    -0.107 A  
BRANCH  23  24
HETATM   24  O   UNL     1      -7.313   4.601  66.618  1.00  0.00    -0.079 OA 
HETATM   25  C   UNL     1      -7.252   3.929  65.381  1.00  0.00    -0.068 C  
ENDBRANCH  23  24
ENDBRANCH   2   3
TORSDOF 2
ENDMDL
MODEL       47
REMARK 921   NORMALIZED FREE ENERGY PREDICTED BY IDOCK:   -5.43 KCAL/MOL
REMARK 922        TOTAL FREE ENERGY PREDICTED BY IDOCK:   -6.18 KCAL/MOL
REMARK 923 INTER-LIGAND FREE ENERGY PREDICTED BY IDOCK:   -6.24 KCAL/MOL
REMARK 924 INTRA-LIGAND FREE ENERGY PREDICTED BY IDOCK:    0.06 KCAL/MOL
REMARK 927      BINDING AFFINITY PREDICTED BY RF-SCORE:    0.00 PKD
ROOT
HETATM    1  C   UNL     1     -11.746  15.660  64.338  1.00  0.00    -0.218 C  
HETATM    2  O   UNL     1     -12.577  14.510  64.445  1.00  0.00    -0.665 OA 
ENDROOT
BRANCH   2   3
HETATM    3  C   UNL     1     -11.950  13.298  64.623  1.00  0.00    -0.394 A  
HETATM    4  C   UNL     1     -11.421  12.558  63.573  1.00  0.00    -0.570 A  
HETATM    5  C   UNL     1     -10.750  11.368  63.830  1.00  0.00    -0.470 A  
HETATM    6  C   UNL     1     -10.596  10.899  65.137  1.00  0.00    -0.268 A  
HETATM    7  C   UNL     1      -9.885   9.712  65.341  1.00  0.00    -0.322 A  
HETATM    8  C   UNL     1      -9.704   9.206  66.628  1.00  0.00    -0.223 A  
HETATM    9  C   UNL     1      -8.921   8.002  66.959  1.00  0.00    -0.156 A  
HETATM   10  C   UNL     1      -7.845   7.562  66.167  1.00  0.00    -0.096 A  
HETATM   11  C   UNL     1      -7.116   6.467  66.591  1.00  0.00    -0.068 A  
HETATM   12  C   UNL     1      -7.433   5.776  67.733  1.00  0.00    -0.078 A  
HETATM   13  C   UNL     1      -8.492   6.144  68.529  1.00  0.00    -0.114 A  
HETATM   14  O   UNL     1      -6.573   4.756  67.980  1.00  0.00    -0.044 OA 
HETATM   15  C   UNL     1      -5.619   4.939  66.912  1.00  0.00    -0.013 C  
HETATM   16  C   UNL     1      -9.215   7.284  68.155  1.00  0.00    -0.132 A  
HETATM   17  C   UNL     1     -10.305   7.817  69.041  1.00  0.00    -0.219 C  
HETATM   18  O   UNL     1      -6.012   5.968  65.976  1.00  0.00    -0.026 OA 
HETATM   19  C   UNL     1     -10.166   9.330  69.059  1.00  0.00    -0.206 C  
HETATM   20  N   UNL     1     -10.280   9.859  67.670  1.00  0.00    -0.194 NA 
HETATM   21  C   UNL     1     -10.940  11.027  67.489  1.00  0.00    -0.281 A  
HETATM   22  C   UNL     1     -11.135  11.619  66.231  1.00  0.00    -0.345 A  
HETATM   23  C   UNL     1     -11.815  12.848  65.963  1.00  0.00    -0.430 A  
BRANCH  23  24
HETATM   24  O   UNL     1     -12.407  13.717  66.842  1.00  0.00    -0.365 OA 
HETATM   25  C   UNL     1     -11.791  14.280  67.978  1.00  0.00    -0.344 C  
ENDBRANCH  23  24
ENDBRANCH   2   3
TORSDOF 2
ENDMDL
MODEL       48
REMARK 921   NORMALIZED FREE ENERGY PREDICTED BY IDOCK:   -5.42 KCAL/MOL
REMARK 922        TOTAL FREE ENERGY PREDICTED BY IDOCK:   -6.17 KCAL/MOL
REMARK 923 INTER-LIGAND FREE ENERGY PREDICTED BY IDOCK:   -6.05 KCAL/MOL
REMARK 924 INTRA-LIGAND FREE ENERGY PREDICTED BY IDOCK:   -0.12 KCAL/MOL
REMARK 927      BINDING AFFINITY PREDICTED BY RF-SCORE:    0.00 PKD
ROOT
HETATM    1  C   UNL     1     -14.088  15.460  72.722  1.00  0.00    -0.304 C  
HETATM    2  O   UNL     1     -13.972  14.924  71.408  1.00  0.00    -0.418 OA 
ENDROOT
BRANCH   2   3
HETATM    3  C   UNL     1     -13.346  13.705  71.283  1.00  0.00    -0.189 A  
HETATM    4  C   UNL     1     -13.594  12.635  72.136  1.00  0.00    -0.510 A  
HETATM    5  C   UNL     1     -12.969  11.414  71.919  1.00  0.00    -0.466 A  
HETATM    6  C   UNL     1     -12.086  11.239  70.850  1.00  0.00    -0.406 A  
HETATM    7  C   UNL     1     -11.509   9.980  70.660  1.00  0.00    -0.425 A  
HETATM    8  C   UNL     1     -10.624   9.758  69.605  1.00  0.00    -0.239 A  
HETATM    9  C   UNL     1     -10.010   8.458  69.277  1.00  0.00    -0.195 A  
HETATM   10  C   UNL     1     -10.629   7.233  69.586  1.00  0.00    -0.246 A  
HETATM   11  C   UNL     1     -10.021   6.063  69.177  1.00  0.00    -0.162 A  
HETATM   12  C   UNL     1      -8.819   6.056  68.516  1.00  0.00    -0.112 A  
HETATM   13  C   UNL     1      -8.155   7.222  68.213  1.00  0.00    -0.124 A  
HETATM   14  O   UNL     1      -8.415   4.805  68.180  1.00  0.00    -0.101 OA 
HETATM   15  C   UNL     1      -9.547   4.026  68.622  1.00  0.00    -0.120 C  
HETATM   16  C   UNL     1      -8.775   8.428  68.567  1.00  0.00    -0.136 A  
HETATM   17  C   UNL     1      -8.169   9.741  68.159  1.00  0.00    -0.109 C  
HETATM   18  O   UNL     1     -10.527   4.812  69.337  1.00  0.00    -0.103 OA 
HETATM   19  C   UNL     1      -9.309  10.632  67.696  1.00  0.00    -0.146 C  
HETATM   20  N   UNL     1     -10.294  10.803  68.802  1.00  0.00    -0.182 NA 
HETATM   21  C   UNL     1     -10.873  12.016  68.955  1.00  0.00    -0.211 A  
HETATM   22  C   UNL     1     -11.797  12.310  69.969  1.00  0.00    -0.372 A  
HETATM   23  C   UNL     1     -12.452  13.563  70.189  1.00  0.00    -0.209 A  
BRANCH  23  24
HETATM   24  O   UNL     1     -12.345  14.730  69.479  1.00  0.00    -0.265 OA 
HETATM   25  C   UNL     1     -11.186  15.525  69.381  1.00  0.00    -0.300 C  
ENDBRANCH  23  24
ENDBRANCH   2   3
TORSDOF 2
ENDMDL
MODEL       49
REMARK 921   NORMALIZED FREE ENERGY PREDICTED BY IDOCK:   -5.41 KCAL/MOL
REMARK 922        TOTAL FREE ENERGY PREDICTED BY IDOCK:   -6.17 KCAL/MOL
REMARK 923 INTER-LIGAND FREE ENERGY PREDICTED BY IDOCK:   -6.05 KCAL/MOL
REMARK 924 INTRA-LIGAND FREE ENERGY PREDICTED BY IDOCK:   -0.12 KCAL/MOL
REMARK 927      BINDING AFFINITY PREDICTED BY RF-SCORE:    0.00 PKD
ROOT
HETATM    1  C   UNL     1      -8.895   4.692  71.515  1.00  0.00    -0.124 C  
HETATM    2  O   UNL     1      -9.916   5.654  71.757  1.00  0.00    -0.168 OA 
ENDROOT
BRANCH   2   3
HETATM    3  C   UNL     1      -9.805   6.861  71.105  1.00  0.00    -0.177 A  
HETATM    4  C   UNL     1      -8.802   7.134  70.183  1.00  0.00    -0.145 A  
HETATM    5  C   UNL     1      -8.782   8.355  69.519  1.00  0.00    -0.137 A  
HETATM    6  C   UNL     1      -9.762   9.321  69.764  1.00  0.00    -0.202 A  
HETATM    7  C   UNL     1      -9.711  10.520  69.046  1.00  0.00    -0.221 A  
HETATM    8  C   UNL     1     -10.668  11.513  69.255  1.00  0.00    -0.125 A  
HETATM    9  C   UNL     1     -10.745  12.782  68.509  1.00  0.00    -0.275 A  
HETATM   10  C   UNL     1     -10.271  12.911  67.192  1.00  0.00    -0.239 A  
HETATM   11  C   UNL     1     -10.450  14.116  66.540  1.00  0.00    -0.280 A  
HETATM   12  C   UNL     1     -11.038  15.195  67.148  1.00  0.00    -0.335 A  
HETATM   13  C   UNL     1     -11.494  15.135  68.443  1.00  0.00    -0.347 A  
HETATM   14  O   UNL     1     -11.142  16.267  66.321  1.00  0.00    -0.069 OA 
HETATM   15  C   UNL     1     -10.637  15.709  65.089  1.00  0.00    -0.424 C  
HETATM   16  C   UNL     1     -11.376  13.909  69.112  1.00  0.00    -0.331 A  
HETATM   17  C   UNL     1     -11.962  13.733  70.484  1.00  0.00    -0.367 C  
HETATM   18  O   UNL     1     -10.112  14.372  65.248  1.00  0.00    -0.369 OA 
HETATM   19  C   UNL     1     -12.624  12.366  70.513  1.00  0.00    -0.089 C  
HETATM   20  N   UNL     1     -11.614  11.313  70.210  1.00  0.00    -0.304 NA 
HETATM   21  C   UNL     1     -11.693  10.144  70.886  1.00  0.00    -0.378 A  
HETATM   22  C   UNL     1     -10.790   9.084  70.709  1.00  0.00    -0.310 A  
HETATM   23  C   UNL     1     -10.813   7.822  71.381  1.00  0.00    -0.228 A  
BRANCH  23  24
HETATM   24  O   UNL     1     -11.699   7.359  72.319  1.00  0.00    -0.286 OA 
HETATM   25  C   UNL     1     -13.042   7.006  72.073  1.00  0.00    -0.120 C  
ENDBRANCH  23  24
ENDBRANCH   2   3
TORSDOF 2
ENDMDL
MODEL       50
REMARK 921   NORMALIZED FREE ENERGY PREDICTED BY IDOCK:   -5.32 KCAL/MOL
REMARK 922        TOTAL FREE ENERGY PREDICTED BY IDOCK:   -6.06 KCAL/MOL
REMARK 923 INTER-LIGAND FREE ENERGY PREDICTED BY IDOCK:   -5.94 KCAL/MOL
REMARK 924 INTRA-LIGAND FREE ENERGY PREDICTED BY IDOCK:   -0.12 KCAL/MOL
REMARK 927      BINDING AFFINITY PREDICTED BY RF-SCORE:    0.00 PKD
ROOT
HETATM    1  C   UNL     1      -9.604   3.566  69.446  1.00  0.00    -0.101 C  
HETATM    2  O   UNL     1     -10.024   4.790  70.038  1.00  0.00    -0.215 OA 
ENDROOT
BRANCH   2   3
HETATM    3  C   UNL     1     -10.148   5.879  69.205  1.00  0.00    -0.190 A  
HETATM    4  C   UNL     1     -10.761   5.813  67.959  1.00  0.00    -0.290 A  
HETATM    5  C   UNL     1     -10.902   6.963  67.192  1.00  0.00    -0.447 A  
HETATM    6  C   UNL     1     -10.434   8.196  67.655  1.00  0.00    -0.300 A  
HETATM    7  C   UNL     1     -10.629   9.326  66.856  1.00  0.00    -0.239 A  
HETATM    8  C   UNL     1     -10.181  10.578  67.277  1.00  0.00    -0.215 A  
HETATM    9  C   UNL     1     -10.390  11.840  66.544  1.00  0.00    -0.258 A  
HETATM   10  C   UNL     1     -11.488  12.041  65.688  1.00  0.00    -0.372 A  
HETATM   11  C   UNL     1     -11.649  13.280  65.098  1.00  0.00    -0.308 A  
HETATM   12  C   UNL     1     -10.756  14.302  65.291  1.00  0.00    -0.366 A  
HETATM   13  C   UNL     1      -9.650  14.153  66.095  1.00  0.00    -0.278 A  
HETATM   14  O   UNL     1     -11.118  15.440  64.646  1.00  0.00    -0.399 OA 
HETATM   15  C   UNL     1     -12.395  15.047  64.098  1.00  0.00    -0.142 C  
HETATM   16  C   UNL     1      -9.489  12.925  66.750  1.00  0.00    -0.245 A  
HETATM   17  C   UNL     1      -8.374  12.732  67.738  1.00  0.00    -0.177 C  
HETATM   18  O   UNL     1     -12.691  13.648  64.308  1.00  0.00    -0.647 OA 
HETATM   19  C   UNL     1      -8.952  11.969  68.918  1.00  0.00     0.213 C  
HETATM   20  N   UNL     1      -9.502  10.665  68.450  1.00  0.00    -0.159 NA 
HETATM   21  C   UNL     1      -9.338   9.584  69.248  1.00  0.00    -0.169 A  
HETATM   22  C   UNL     1      -9.790   8.298  68.912  1.00  0.00    -0.183 A  
HETATM   23  C   UNL     1      -9.657   7.114  69.703  1.00  0.00    -0.154 A  
BRANCH  23  24
HETATM   24  O   UNL     1      -9.088   6.961  70.940  1.00  0.00    -0.152 OA 
HETATM   25  C   UNL     1      -9.611   7.459  72.150  1.00  0.00    -0.146 C  
ENDBRANCH  23  24
ENDBRANCH   2   3
TORSDOF 2
ENDMDL
MODEL       51
REMARK 921   NORMALIZED FREE ENERGY PREDICTED BY IDOCK:   -5.30 KCAL/MOL
REMARK 922        TOTAL FREE ENERGY PREDICTED BY IDOCK:   -6.04 KCAL/MOL
REMARK 923 INTER-LIGAND FREE ENERGY PREDICTED BY IDOCK:   -5.96 KCAL/MOL
REMARK 924 INTRA-LIGAND FREE ENERGY PREDICTED BY IDOCK:   -0.08 KCAL/MOL
REMARK 927      BINDING AFFINITY PREDICTED BY RF-SCORE:    0.00 PKD
ROOT
HETATM    1  C   UNL     1      -9.192   7.035  65.980  1.00  0.00    -0.021 C  
HETATM    2  O   UNL     1     -10.147   7.876  66.617  1.00  0.00    -0.260 OA 
ENDROOT
BRANCH   2   3
HETATM    3  C   UNL     1     -10.016   9.232  66.421  1.00  0.00    -0.286 A  
HETATM    4  C   UNL     1      -9.896   9.806  65.160  1.00  0.00    -0.294 A  
HETATM    5  C   UNL     1      -9.823  11.188  65.031  1.00  0.00    -0.315 A  
HETATM    6  C   UNL     1      -9.868  12.018  66.154  1.00  0.00    -0.255 A  
HETATM    7  C   UNL     1      -9.821  13.402  65.964  1.00  0.00    -0.273 A  
HETATM    8  C   UNL     1      -9.866  14.270  67.055  1.00  0.00    -0.254 A  
HETATM    9  C   UNL     1      -9.887  15.741  66.963  1.00  0.00    -0.238 A  
HETATM   10  C   UNL     1     -10.419  16.419  65.851  1.00  0.00    -0.350 A  
HETATM   11  C   UNL     1     -10.468  17.799  65.880  1.00  0.00    -0.251 A  
HETATM   12  C   UNL     1      -9.981  18.526  66.936  1.00  0.00    -0.349 A  
HETATM   13  C   UNL     1      -9.424  17.917  68.036  1.00  0.00    -0.279 A  
HETATM   14  O   UNL     1     -10.155  19.862  66.774  1.00  0.00    -0.397 OA 
HETATM   15  C   UNL     1     -10.894  19.892  65.534  1.00  0.00    -0.127 C  
HETATM   16  C   UNL     1      -9.411  16.516  68.061  1.00  0.00    -0.218 A  
HETATM   17  C   UNL     1      -8.932  15.783  69.281  1.00  0.00    -0.266 C  
HETATM   18  O   UNL     1     -11.014  18.590  64.918  1.00  0.00    -0.547 OA 
HETATM   19  C   UNL     1      -9.887  14.623  69.507  1.00  0.00     0.089 C  
HETATM   20  N   UNL     1      -9.897  13.741  68.305  1.00  0.00    -0.228 NA 
HETATM   21  C   UNL     1      -9.978  12.404  68.500  1.00  0.00    -0.170 A  
HETATM   22  C   UNL     1      -9.973  11.467  67.455  1.00  0.00    -0.209 A  
HETATM   23  C   UNL     1     -10.060  10.046  67.583  1.00  0.00    -0.190 A  
BRANCH  23  24
HETATM   24  O   UNL     1     -10.175   9.286  68.718  1.00  0.00    -0.193 OA 
HETATM   25  C   UNL     1     -11.218   9.376  69.662  1.00  0.00    -0.074 C  
ENDBRANCH  23  24
ENDBRANCH   2   3
TORSDOF 2
ENDMDL
MODEL       52
REMARK 921   NORMALIZED FREE ENERGY PREDICTED BY IDOCK:   -5.22 KCAL/MOL
REMARK 922        TOTAL FREE ENERGY PREDICTED BY IDOCK:   -5.95 KCAL/MOL
REMARK 923 INTER-LIGAND FREE ENERGY PREDICTED BY IDOCK:   -5.82 KCAL/MOL
REMARK 924 INTRA-LIGAND FREE ENERGY PREDICTED BY IDOCK:   -0.14 KCAL/MOL
REMARK 927      BINDING AFFINITY PREDICTED BY RF-SCORE:    0.00 PKD
ROOT
HETATM    1  C   UNL     1     -10.613  18.598  66.001  1.00  0.00    -0.365 C  
HETATM    2  O   UNL     1      -9.650  17.616  65.635  1.00  0.00    -0.503 OA 
ENDROOT
BRANCH   2   3
HETATM    3  C   UNL     1      -9.897  16.320  66.027  1.00  0.00    -0.343 A  
HETATM    4  C   UNL     1     -11.141  15.713  65.893  1.00  0.00    -0.155 A  
HETATM    5  C   UNL     1     -11.307  14.382  66.257  1.00  0.00    -0.350 A  
HETATM    6  C   UNL     1     -10.238  13.637  66.760  1.00  0.00    -0.268 A  
HETATM    7  C   UNL     1     -10.454  12.293  67.082  1.00  0.00    -0.238 A  
HETATM    8  C   UNL     1      -9.416  11.509  67.585  1.00  0.00    -0.168 A  
HETATM    9  C   UNL     1      -9.518  10.071  67.896  1.00  0.00    -0.159 A  
HETATM   10  C   UNL     1     -10.420   9.220  67.232  1.00  0.00    -0.334 A  
HETATM   11  C   UNL     1     -10.398   7.871  67.532  1.00  0.00    -0.259 A  
HETATM   12  C   UNL     1      -9.556   7.347  68.479  1.00  0.00    -0.146 A  
HETATM   13  C   UNL     1      -8.674   8.137  69.178  1.00  0.00    -0.140 A  
HETATM   14  O   UNL     1      -9.676   6.000  68.595  1.00  0.00    -0.122 OA 
HETATM   15  C   UNL     1     -10.626   5.720  67.544  1.00  0.00    -0.253 C  
HETATM   16  C   UNL     1      -8.634   9.500  68.857  1.00  0.00    -0.128 A  
HETATM   17  C   UNL     1      -7.612  10.400  69.491  1.00  0.00    -0.158 C  
HETATM   18  O   UNL     1     -11.154   6.917  66.929  1.00  0.00    -0.379 OA 
HETATM   19  C   UNL     1      -7.084  11.313  68.398  1.00  0.00    -0.081 C  
HETATM   20  N   UNL     1      -8.209  12.092  67.808  1.00  0.00    -0.143 NA 
HETATM   21  C   UNL     1      -7.979  13.382  67.467  1.00  0.00    -0.183 A  
HETATM   22  C   UNL     1      -8.960  14.226  66.925  1.00  0.00    -0.255 A  
HETATM   23  C   UNL     1      -8.790  15.592  66.538  1.00  0.00    -0.310 A  
BRANCH  23  24
HETATM   24  O   UNL     1      -7.664  16.372  66.593  1.00  0.00    -0.234 OA 
HETATM   25  C   UNL     1      -7.084  16.891  67.767  1.00  0.00    -0.141 C  
ENDBRANCH  23  24
ENDBRANCH   2   3
TORSDOF 2
ENDMDL
MODEL       53
REMARK 921   NORMALIZED FREE ENERGY PREDICTED BY IDOCK:   -5.21 KCAL/MOL
REMARK 922        TOTAL FREE ENERGY PREDICTED BY IDOCK:   -5.94 KCAL/MOL
REMARK 923 INTER-LIGAND FREE ENERGY PREDICTED BY IDOCK:   -5.83 KCAL/MOL
REMARK 924 INTRA-LIGAND FREE ENERGY PREDICTED BY IDOCK:   -0.11 KCAL/MOL
REMARK 927      BINDING AFFINITY PREDICTED BY RF-SCORE:    0.00 PKD
ROOT
HETATM    1  C   UNL     1     -11.994  15.070  69.009  1.00  0.00    -0.264 C  
HETATM    2  O   UNL     1     -12.188  14.357  67.793  1.00  0.00    -0.314 OA 
ENDROOT
BRANCH   2   3
HETATM    3  C   UNL     1     -11.660  13.088  67.720  1.00  0.00    -0.340 A  
HETATM    4  C   UNL     1     -11.727  12.180  68.770  1.00  0.00    -0.374 A  
HETATM    5  C   UNL     1     -11.222  10.895  68.609  1.00  0.00    -0.326 A  
HETATM    6  C   UNL     1     -10.644  10.496  67.401  1.00  0.00    -0.313 A  
HETATM    7  C   UNL     1     -10.180   9.182  67.285  1.00  0.00    -0.319 A  
HETATM    8  C   UNL     1      -9.597   8.739  66.098  1.00  0.00    -0.253 A  
HETATM    9  C   UNL     1      -9.135   7.362  65.847  1.00  0.00    -0.073 A  
HETATM   10  C   UNL     1      -9.702   6.248  66.491  1.00  0.00    -0.180 A  
HETATM   11  C   UNL     1      -9.260   4.986  66.143  1.00  0.00    -0.149 A  
HETATM   12  C   UNL     1      -8.264   4.790  65.221  1.00  0.00    -0.120 A  
HETATM   13  C   UNL     1      -7.654   5.843  64.581  1.00  0.00    -0.089 A  
HETATM   14  O   UNL     1      -8.005   3.475  65.005  1.00  0.00    -0.088 OA 
HETATM   15  C   UNL     1      -9.018   2.860  65.829  1.00  0.00    -0.144 C  
HETATM   16  C   UNL     1      -8.119   7.132  64.874  1.00  0.00    -0.107 A  
HETATM   17  C   UNL     1      -7.586   8.320  64.124  1.00  0.00    -0.127 C  
HETATM   18  O   UNL     1      -9.757   3.815  66.622  1.00  0.00    -0.203 OA 
HETATM   19  C   UNL     1      -8.771   9.218  63.811  1.00  0.00    -0.167 C  
HETATM   20  N   UNL     1      -9.439   9.625  65.080  1.00  0.00    -0.270 NA 
HETATM   21  C   UNL     1      -9.916  10.889  65.169  1.00  0.00    -0.284 A  
HETATM   22  C   UNL     1     -10.544  11.400  66.315  1.00  0.00    -0.312 A  
HETATM   23  C   UNL     1     -11.075  12.718  66.480  1.00  0.00    -0.286 A  
BRANCH  23  24
HETATM   24  O   UNL     1     -11.105  13.755  65.586  1.00  0.00    -0.293 OA 
HETATM   25  C   UNL     1     -11.995  13.874  64.499  1.00  0.00    -0.437 C  
ENDBRANCH  23  24
ENDBRANCH   2   3
TORSDOF 2
ENDMDL
MODEL       54
REMARK 921   NORMALIZED FREE ENERGY PREDICTED BY IDOCK:   -5.16 KCAL/MOL
REMARK 922        TOTAL FREE ENERGY PREDICTED BY IDOCK:   -5.89 KCAL/MOL
REMARK 923 INTER-LIGAND FREE ENERGY PREDICTED BY IDOCK:   -6.13 KCAL/MOL
REMARK 924 INTRA-LIGAND FREE ENERGY PREDICTED BY IDOCK:    0.25 KCAL/MOL
REMARK 927      BINDING AFFINITY PREDICTED BY RF-SCORE:    0.00 PKD
ROOT
HETATM    1  C   UNL     1     -10.637  19.236  66.903  1.00  0.00    -0.459 C  
HETATM    2  O   UNL     1      -9.930  18.450  65.951  1.00  0.00    -0.526 OA 
ENDROOT
BRANCH   2   3
HETATM    3  C   UNL     1      -9.594  17.168  66.324  1.00  0.00    -0.252 A  
HETATM    4  C   UNL     1      -8.750  16.887  67.392  1.00  0.00    -0.213 A  
HETATM    5  C   UNL     1      -8.497  15.568  67.750  1.00  0.00    -0.159 A  
HETATM    6  C   UNL     1      -9.081  14.510  67.048  1.00  0.00    -0.254 A  
HETATM    7  C   UNL     1      -8.816  13.204  67.470  1.00  0.00    -0.199 A  
HETATM    8  C   UNL     1      -9.378  12.116  66.802  1.00  0.00    -0.212 A  
HETATM    9  C   UNL     1      -9.217  10.705  67.200  1.00  0.00    -0.161 A  
HETATM   10  C   UNL     1      -8.986  10.321  68.533  1.00  0.00    -0.134 A  
HETATM   11  C   UNL     1      -8.922   8.973  68.831  1.00  0.00    -0.140 A  
HETATM   12  C   UNL     1      -9.036   8.006  67.866  1.00  0.00    -0.132 A  
HETATM   13  C   UNL     1      -9.234   8.325  66.543  1.00  0.00    -0.236 A  
HETATM   14  O   UNL     1      -8.974   6.750  68.377  1.00  0.00    -0.125 OA 
HETATM   15  C   UNL     1      -8.902   7.035  69.791  1.00  0.00    -0.142 C  
HETATM   16  C   UNL     1      -9.359   9.682  66.218  1.00  0.00    -0.238 A  
HETATM   17  C   UNL     1      -9.698  10.099  64.815  1.00  0.00    -0.389 C  
HETATM   18  O   UNL     1      -8.776   8.446  70.075  1.00  0.00    -0.129 OA 
HETATM   19  C   UNL     1     -10.716  11.221  64.918  1.00  0.00    -0.271 C  
HETATM   20  N   UNL     1     -10.140  12.351  65.702  1.00  0.00    -0.256 NA 
HETATM   21  C   UNL     1     -10.431  13.612  65.306  1.00  0.00    -0.351 A  
HETATM   22  C   UNL     1      -9.933  14.758  65.944  1.00  0.00    -0.351 A  
HETATM   23  C   UNL     1     -10.200  16.117  65.587  1.00  0.00    -0.364 A  
BRANCH  23  24
HETATM   24  O   UNL     1     -10.988  16.606  64.578  1.00  0.00    -0.885 OA 
HETATM   25  C   UNL     1     -12.033  15.906  63.942  1.00  0.00     0.446 C  
ENDBRANCH  23  24
ENDBRANCH   2   3
TORSDOF 2
ENDMDL
MODEL       55
REMARK 921   NORMALIZED FREE ENERGY PREDICTED BY IDOCK:   -5.15 KCAL/MOL
REMARK 922        TOTAL FREE ENERGY PREDICTED BY IDOCK:   -5.87 KCAL/MOL
REMARK 923 INTER-LIGAND FREE ENERGY PREDICTED BY IDOCK:   -5.79 KCAL/MOL
REMARK 924 INTRA-LIGAND FREE ENERGY PREDICTED BY IDOCK:   -0.09 KCAL/MOL
REMARK 927      BINDING AFFINITY PREDICTED BY RF-SCORE:    0.00 PKD
ROOT
HETATM    1  C   UNL     1      -8.815   5.884  70.791  1.00  0.00    -0.138 C  
HETATM    2  O   UNL     1      -8.568   6.399  69.487  1.00  0.00    -0.131 OA 
ENDROOT
BRANCH   2   3
HETATM    3  C   UNL     1      -8.830   7.734  69.280  1.00  0.00    -0.139 A  
HETATM    4  C   UNL     1      -8.541   8.716  70.221  1.00  0.00    -0.144 A  
HETATM    5  C   UNL     1      -8.781  10.053  69.925  1.00  0.00    -0.169 A  
HETATM    6  C   UNL     1      -9.311  10.431  68.689  1.00  0.00    -0.167 A  
HETATM    7  C   UNL     1      -9.503  11.792  68.433  1.00  0.00    -0.188 A  
HETATM    8  C   UNL     1     -10.027  12.216  67.212  1.00  0.00    -0.203 A  
HETATM    9  C   UNL     1     -10.210  13.625  66.816  1.00  0.00    -0.268 A  
HETATM   10  C   UNL     1      -9.405  14.660  67.323  1.00  0.00    -0.212 A  
HETATM   11  C   UNL     1      -9.595  15.941  66.842  1.00  0.00    -0.229 A  
HETATM   12  C   UNL     1     -10.564  16.239  65.919  1.00  0.00    -0.297 A  
HETATM   13  C   UNL     1     -11.398  15.272  65.410  1.00  0.00    -0.253 A  
HETATM   14  O   UNL     1     -10.559  17.548  65.561  1.00  0.00    -0.612 OA 
HETATM   15  C   UNL     1      -9.412  18.026  66.296  1.00  0.00    -0.220 C  
HETATM   16  C   UNL     1     -11.194  13.953  65.838  1.00  0.00    -0.297 A  
HETATM   17  C   UNL     1     -11.984  12.827  65.234  1.00  0.00    -0.473 C  
HETATM   18  O   UNL     1      -8.853  17.029  67.180  1.00  0.00    -0.209 OA 
HETATM   19  C   UNL     1     -11.018  11.677  65.006  1.00  0.00    -0.273 C  
HETATM   20  N   UNL     1     -10.399  11.278  66.303  1.00  0.00    -0.239 NA 
HETATM   21  C   UNL     1     -10.185   9.961  66.526  1.00  0.00    -0.222 A  
HETATM   22  C   UNL     1      -9.632   9.456  67.712  1.00  0.00    -0.158 A  
HETATM   23  C   UNL     1      -9.373   8.083  68.016  1.00  0.00    -0.138 A  
BRANCH  23  24
HETATM   24  O   UNL     1      -9.587   6.972  67.242  1.00  0.00    -0.131 OA 
HETATM   25  C   UNL     1     -10.836   6.548  66.746  1.00  0.00    -0.275 C  
ENDBRANCH  23  24
ENDBRANCH   2   3
TORSDOF 2
ENDMDL
MODEL       56
REMARK 921   NORMALIZED FREE ENERGY PREDICTED BY IDOCK:   -5.15 KCAL/MOL
REMARK 922        TOTAL FREE ENERGY PREDICTED BY IDOCK:   -5.87 KCAL/MOL
REMARK 923 INTER-LIGAND FREE ENERGY PREDICTED BY IDOCK:   -5.73 KCAL/MOL
REMARK 924 INTRA-LIGAND FREE ENERGY PREDICTED BY IDOCK:   -0.14 KCAL/MOL
REMARK 927      BINDING AFFINITY PREDICTED BY RF-SCORE:    0.00 PKD
ROOT
HETATM    1  C   UNL     1      -8.272   5.360  74.414  1.00  0.00    -0.104 C  
HETATM    2  O   UNL     1      -9.021   5.175  73.218  1.00  0.00    -0.121 OA 
ENDROOT
BRANCH   2   3
HETATM    3  C   UNL     1      -9.564   6.300  72.639  1.00  0.00    -0.151 A  
HETATM    4  C   UNL     1     -10.413   7.165  73.318  1.00  0.00    -0.391 A  
HETATM    5  C   UNL     1     -10.881   8.314  72.691  1.00  0.00    -0.381 A  
HETATM    6  C   UNL     1     -10.510   8.617  71.378  1.00  0.00    -0.327 A  
HETATM    7  C   UNL     1     -10.985   9.801  70.807  1.00  0.00    -0.406 A  
HETATM    8  C   UNL     1     -10.639  10.147  69.501  1.00  0.00    -0.245 A  
HETATM    9  C   UNL     1     -11.031  11.397  68.826  1.00  0.00    -0.272 A  
HETATM   10  C   UNL     1     -11.288  12.586  69.533  1.00  0.00    -0.240 A  
HETATM   11  C   UNL     1     -11.577  13.732  68.817  1.00  0.00    -0.328 A  
HETATM   12  C   UNL     1     -11.658  13.737  67.448  1.00  0.00    -0.362 A  
HETATM   13  C   UNL     1     -11.445  12.598  66.707  1.00  0.00    -0.410 A  
HETATM   14  O   UNL     1     -11.923  14.969  66.946  1.00  0.00    -0.205 OA 
HETATM   15  C   UNL     1     -11.906  15.763  68.152  1.00  0.00    -0.044 C  
HETATM   16  C   UNL     1     -11.096  11.432  67.402  1.00  0.00    -0.349 A  
HETATM   17  C   UNL     1     -10.729  10.183  66.653  1.00  0.00    -0.156 C  
HETATM   18  O   UNL     1     -11.777  14.966  69.350  1.00  0.00    -0.286 OA 
HETATM   19  C   UNL     1      -9.528   9.576  67.360  1.00  0.00    -0.135 C  
HETATM   20  N   UNL     1      -9.879   9.282  68.779  1.00  0.00    -0.161 NA 
HETATM   21  C   UNL     1      -9.384   8.151  69.333  1.00  0.00    -0.155 A  
HETATM   22  C   UNL     1      -9.658   7.750  70.650  1.00  0.00    -0.166 A  
HETATM   23  C   UNL     1      -9.169   6.575  71.303  1.00  0.00    -0.155 A  
BRANCH  23  24
HETATM   24  O   UNL     1      -8.337   5.601  70.819  1.00  0.00    -0.118 OA 
HETATM   25  C   UNL     1      -6.974   5.770  70.502  1.00  0.00    -0.058 C  
ENDBRANCH  23  24
ENDBRANCH   2   3
TORSDOF 2
ENDMDL
MODEL       57
REMARK 921   NORMALIZED FREE ENERGY PREDICTED BY IDOCK:   -5.12 KCAL/MOL
REMARK 922        TOTAL FREE ENERGY PREDICTED BY IDOCK:   -5.84 KCAL/MOL
REMARK 923 INTER-LIGAND FREE ENERGY PREDICTED BY IDOCK:   -5.75 KCAL/MOL
REMARK 924 INTRA-LIGAND FREE ENERGY PREDICTED BY IDOCK:   -0.09 KCAL/MOL
REMARK 927      BINDING AFFINITY PREDICTED BY RF-SCORE:    0.00 PKD
ROOT
HETATM    1  C   UNL     1      -6.985   3.944  65.772  1.00  0.00    -0.062 C  
HETATM    2  O   UNL     1      -7.611   3.799  67.043  1.00  0.00    -0.078 OA 
ENDROOT
BRANCH   2   3
HETATM    3  C   UNL     1      -8.062   4.947  67.653  1.00  0.00    -0.094 A  
HETATM    4  C   UNL     1      -7.395   6.163  67.566  1.00  0.00    -0.077 A  
HETATM    5  C   UNL     1      -7.936   7.296  68.160  1.00  0.00    -0.123 A  
HETATM    6  C   UNL     1      -9.149   7.235  68.850  1.00  0.00    -0.132 A  
HETATM    7  C   UNL     1      -9.663   8.412  69.403  1.00  0.00    -0.177 A  
HETATM    8  C   UNL     1     -10.872   8.400  70.098  1.00  0.00    -0.236 A  
HETATM    9  C   UNL     1     -11.533   9.591  70.663  1.00  0.00    -0.362 A  
HETATM   10  C   UNL     1     -11.360  10.877  70.121  1.00  0.00    -0.367 A  
HETATM   11  C   UNL     1     -12.075  11.926  70.665  1.00  0.00    -0.294 A  
HETATM   12  C   UNL     1     -12.914  11.760  71.738  1.00  0.00    -0.361 A  
HETATM   13  C   UNL     1     -13.099  10.531  72.326  1.00  0.00    -0.242 A  
HETATM   14  O   UNL     1     -13.539  12.910  72.094  1.00  0.00    -0.528 OA 
HETATM   15  C   UNL     1     -13.071  13.805  71.063  1.00  0.00    -0.205 C  
HETATM   16  C   UNL     1     -12.429   9.437  71.761  1.00  0.00    -0.471 A  
HETATM   17  C   UNL     1     -12.678   8.047  72.273  1.00  0.00    -0.242 C  
HETATM   18  O   UNL     1     -12.070  13.206  70.209  1.00  0.00    -0.349 OA 
HETATM   19  C   UNL     1     -12.774   7.137  71.060  1.00  0.00    -0.253 C  
HETATM   20  N   UNL     1     -11.509   7.213  70.275  1.00  0.00    -0.273 NA 
HETATM   21  C   UNL     1     -11.039   6.074  69.715  1.00  0.00    -0.406 A  
HETATM   22  C   UNL     1      -9.849   6.010  68.973  1.00  0.00    -0.182 A  
HETATM   23  C   UNL     1      -9.295   4.848  68.350  1.00  0.00    -0.131 A  
BRANCH  23  24
HETATM   24  O   UNL     1      -9.783   3.568  68.321  1.00  0.00    -0.130 OA 
HETATM   25  C   UNL     1      -9.638   2.612  69.347  1.00  0.00     0.026 C  
ENDBRANCH  23  24
ENDBRANCH   2   3
TORSDOF 2
ENDMDL
MODEL       58
REMARK 921   NORMALIZED FREE ENERGY PREDICTED BY IDOCK:   -5.10 KCAL/MOL
REMARK 922        TOTAL FREE ENERGY PREDICTED BY IDOCK:   -5.81 KCAL/MOL
REMARK 923 INTER-LIGAND FREE ENERGY PREDICTED BY IDOCK:   -5.71 KCAL/MOL
REMARK 924 INTRA-LIGAND FREE ENERGY PREDICTED BY IDOCK:   -0.11 KCAL/MOL
REMARK 927      BINDING AFFINITY PREDICTED BY RF-SCORE:    0.00 PKD
ROOT
HETATM    1  C   UNL     1     -12.838  16.340  73.429  1.00  0.00    -0.434 C  
HETATM    2  O   UNL     1     -13.392  16.003  72.162  1.00  0.00    -0.377 OA 
ENDROOT
BRANCH   2   3
HETATM    3  C   UNL     1     -12.531  15.488  71.220  1.00  0.00    -0.425 A  
HETATM    4  C   UNL     1     -11.501  16.229  70.652  1.00  0.00    -0.297 A  
HETATM    5  C   UNL     1     -10.633  15.630  69.747  1.00  0.00    -0.308 A  
HETATM    6  C   UNL     1     -10.778  14.285  69.394  1.00  0.00    -0.155 A  
HETATM    7  C   UNL     1      -9.858  13.726  68.503  1.00  0.00    -0.204 A  
HETATM    8  C   UNL     1      -9.962  12.388  68.123  1.00  0.00    -0.215 A  
HETATM    9  C   UNL     1      -9.013  11.683  67.243  1.00  0.00    -0.169 A  
HETATM   10  C   UNL     1      -7.660  12.056  67.142  1.00  0.00    -0.146 A  
HETATM   11  C   UNL     1      -6.822  11.296  66.351  1.00  0.00    -0.055 A  
HETATM   12  C   UNL     1      -7.273  10.217  65.633  1.00  0.00    -0.148 A  
HETATM   13  C   UNL     1      -8.591   9.825  65.671  1.00  0.00    -0.154 A  
HETATM   14  O   UNL     1      -6.281   9.594  64.948  1.00  0.00    -0.075 OA 
HETATM   15  C   UNL     1      -5.131  10.347  65.389  1.00  0.00    -0.088 C  
HETATM   16  C   UNL     1      -9.454  10.544  66.509  1.00  0.00    -0.200 A  
HETATM   17  C   UNL     1     -10.876  10.098  66.696  1.00  0.00    -0.084 C  
HETATM   18  O   UNL     1      -5.483  11.485  66.209  1.00  0.00    -0.226 OA 
HETATM   19  C   UNL     1     -11.197  10.240  68.174  1.00  0.00    -0.229 C  
HETATM   20  N   UNL     1     -11.007  11.658  68.594  1.00  0.00    -0.205 NA 
HETATM   21  C   UNL     1     -11.883  12.179  69.484  1.00  0.00    -0.321 A  
HETATM   22  C   UNL     1     -11.826  13.505  69.941  1.00  0.00    -0.386 A  
HETATM   23  C   UNL     1     -12.710  14.122  70.881  1.00  0.00    -0.361 A  
BRANCH  23  24
HETATM   24  O   UNL     1     -13.780  13.580  71.545  1.00  0.00    -0.259 OA 
HETATM   25  C   UNL     1     -13.721  12.503  72.452  1.00  0.00    -0.184 C  
ENDBRANCH  23  24
ENDBRANCH   2   3
TORSDOF 2
ENDMDL
MODEL       59
REMARK 921   NORMALIZED FREE ENERGY PREDICTED BY IDOCK:   -5.09 KCAL/MOL
REMARK 922        TOTAL FREE ENERGY PREDICTED BY IDOCK:   -5.80 KCAL/MOL
REMARK 923 INTER-LIGAND FREE ENERGY PREDICTED BY IDOCK:   -5.68 KCAL/MOL
REMARK 924 INTRA-LIGAND FREE ENERGY PREDICTED BY IDOCK:   -0.13 KCAL/MOL
REMARK 927      BINDING AFFINITY PREDICTED BY RF-SCORE:    0.00 PKD
ROOT
HETATM    1  C   UNL     1      -8.499   4.965  65.776  1.00  0.00    -0.121 C  
HETATM    2  O   UNL     1      -8.766   5.586  67.029  1.00  0.00    -0.110 OA 
ENDROOT
BRANCH   2   3
HETATM    3  C   UNL     1      -8.752   6.962  67.062  1.00  0.00    -0.119 A  
HETATM    4  C   UNL     1      -7.735   7.721  66.494  1.00  0.00    -0.097 A  
HETATM    5  C   UNL     1      -7.812   9.109  66.514  1.00  0.00    -0.100 A  
HETATM    6  C   UNL     1      -8.901   9.760  67.099  1.00  0.00    -0.141 A  
HETATM    7  C   UNL     1      -8.942  11.157  67.064  1.00  0.00    -0.156 A  
HETATM    8  C   UNL     1     -10.010  11.850  67.633  1.00  0.00    -0.189 A  
HETATM    9  C   UNL     1     -10.183  13.313  67.595  1.00  0.00    -0.228 A  
HETATM   10  C   UNL     1      -9.655  14.108  66.562  1.00  0.00    -0.310 A  
HETATM   11  C   UNL     1      -9.928  15.462  66.564  1.00  0.00    -0.268 A  
HETATM   12  C   UNL     1     -10.660  16.058  67.558  1.00  0.00    -0.313 A  
HETATM   13  C   UNL     1     -11.176  15.335  68.608  1.00  0.00    -0.303 A  
HETATM   14  O   UNL     1     -10.835  17.388  67.352  1.00  0.00    -0.290 OA 
HETATM   15  C   UNL     1     -10.207  17.548  66.061  1.00  0.00    -0.299 C  
HETATM   16  C   UNL     1     -10.963  13.950  68.604  1.00  0.00    -0.281 A  
HETATM   17  C   UNL     1     -11.600  13.081  69.651  1.00  0.00    -0.322 C  
HETATM   18  O   UNL     1      -9.551  16.345  65.601  1.00  0.00    -0.495 OA 
HETATM   19  C   UNL     1     -12.112  11.836  68.944  1.00  0.00    -0.178 C  
HETATM   20  N   UNL     1     -10.978  11.142  68.270  1.00  0.00    -0.207 NA 
HETATM   21  C   UNL     1     -10.967   9.788  68.280  1.00  0.00    -0.164 A  
HETATM   22  C   UNL     1      -9.947   9.018  67.701  1.00  0.00    -0.252 A  
HETATM   23  C   UNL     1      -9.871   7.590  67.668  1.00  0.00    -0.161 A  
BRANCH  23  24
HETATM   24  O   UNL     1     -10.751   6.667  68.168  1.00  0.00    -0.215 OA 
HETATM   25  C   UNL     1     -10.991   6.419  69.534  1.00  0.00    -0.359 C  
ENDBRANCH  23  24
ENDBRANCH   2   3
TORSDOF 2
ENDMDL
MODEL       60
REMARK 921   NORMALIZED FREE ENERGY PREDICTED BY IDOCK:   -5.08 KCAL/MOL
REMARK 922        TOTAL FREE ENERGY PREDICTED BY IDOCK:   -5.80 KCAL/MOL
REMARK 923 INTER-LIGAND FREE ENERGY PREDICTED BY IDOCK:   -5.68 KCAL/MOL
REMARK 924 INTRA-LIGAND FREE ENERGY PREDICTED BY IDOCK:   -0.12 KCAL/MOL
REMARK 927      BINDING AFFINITY PREDICTED BY RF-SCORE:    0.00 PKD
ROOT
HETATM    1  C   UNL     1      -9.018   2.114  66.776  1.00  0.00    -0.114 C  
HETATM    2  O   UNL     1      -8.369   3.265  66.245  1.00  0.00    -0.096 OA 
ENDROOT
BRANCH   2   3
HETATM    3  C   UNL     1      -8.977   4.481  66.458  1.00  0.00    -0.114 A  
HETATM    4  C   UNL     1     -10.080   4.640  67.288  1.00  0.00    -0.169 A  
HETATM    5  C   UNL     1     -10.611   5.906  67.503  1.00  0.00    -0.347 A  
HETATM    6  C   UNL     1     -10.050   7.032  66.895  1.00  0.00    -0.296 A  
HETATM    7  C   UNL     1     -10.605   8.286  67.170  1.00  0.00    -0.340 A  
HETATM    8  C   UNL     1     -10.077   9.438  66.588  1.00  0.00    -0.262 A  
HETATM    9  C   UNL     1     -10.543  10.810  66.858  1.00  0.00    -0.312 A  
HETATM   10  C   UNL     1     -11.137  11.177  68.080  1.00  0.00    -0.334 A  
HETATM   11  C   UNL     1     -11.477  12.501  68.278  1.00  0.00    -0.308 A  
HETATM   12  C   UNL     1     -11.290  13.456  67.312  1.00  0.00    -0.319 A  
HETATM   13  C   UNL     1     -10.742  13.149  66.089  1.00  0.00    -0.289 A  
HETATM   14  O   UNL     1     -11.664  14.694  67.723  1.00  0.00    -0.347 OA 
HETATM   15  C   UNL     1     -12.021  14.428  69.097  1.00  0.00    -0.322 C  
HETATM   16  C   UNL     1     -10.336  11.825  65.878  1.00  0.00    -0.280 A  
HETATM   17  C   UNL     1      -9.617  11.442  64.615  1.00  0.00    -0.228 C  
HETATM   18  O   UNL     1     -11.989  13.021  69.425  1.00  0.00    -0.306 OA 
HETATM   19  C   UNL     1      -8.490  10.503  65.012  1.00  0.00    -0.163 C  
HETATM   20  N   UNL     1      -9.052   9.310  65.705  1.00  0.00    -0.193 NA 
HETATM   21  C   UNL     1      -8.485   8.106  65.458  1.00  0.00    -0.159 A  
HETATM   22  C   UNL     1      -8.935   6.906  66.030  1.00  0.00    -0.131 A  
HETATM   23  C   UNL     1      -8.385   5.603  65.821  1.00  0.00    -0.132 A  
BRANCH  23  24
HETATM   24  O   UNL     1      -7.317   5.230  65.047  1.00  0.00    -0.065 OA 
HETATM   25  C   UNL     1      -7.290   5.220  63.638  1.00  0.00    -0.052 C  
ENDBRANCH  23  24
ENDBRANCH   2   3
TORSDOF 2
ENDMDL
MODEL       61
REMARK 921   NORMALIZED FREE ENERGY PREDICTED BY IDOCK:   -5.04 KCAL/MOL
REMARK 922        TOTAL FREE ENERGY PREDICTED BY IDOCK:   -5.75 KCAL/MOL
REMARK 923 INTER-LIGAND FREE ENERGY PREDICTED BY IDOCK:   -5.60 KCAL/MOL
REMARK 924 INTRA-LIGAND FREE ENERGY PREDICTED BY IDOCK:   -0.15 KCAL/MOL
REMARK 927      BINDING AFFINITY PREDICTED BY RF-SCORE:    0.00 PKD
ROOT
HETATM    1  C   UNL     1      -9.132   2.984  68.124  1.00  0.00    -0.170 C  
HETATM    2  O   UNL     1      -8.227   4.070  67.958  1.00  0.00    -0.091 OA 
ENDROOT
BRANCH   2   3
HETATM    3  C   UNL     1      -8.775   5.320  67.776  1.00  0.00    -0.103 A  
HETATM    4  C   UNL     1      -9.616   5.920  68.706  1.00  0.00    -0.152 A  
HETATM    5  C   UNL     1     -10.090   7.207  68.484  1.00  0.00    -0.177 A  
HETATM    6  C   UNL     1      -9.733   7.916  67.334  1.00  0.00    -0.210 A  
HETATM    7  C   UNL     1     -10.214   9.219  67.177  1.00  0.00    -0.324 A  
HETATM    8  C   UNL     1      -9.882   9.966  66.046  1.00  0.00    -0.264 A  
HETATM    9  C   UNL     1     -10.281  11.365  65.811  1.00  0.00    -0.295 A  
HETATM   10  C   UNL     1     -10.528  12.264  66.864  1.00  0.00    -0.240 A  
HETATM   11  C   UNL     1     -10.824  13.578  66.556  1.00  0.00    -0.282 A  
HETATM   12  C   UNL     1     -10.921  14.021  65.262  1.00  0.00    -0.334 A  
HETATM   13  C   UNL     1     -10.718  13.180  64.194  1.00  0.00    -0.399 A  
HETATM   14  O   UNL     1     -11.191  15.349  65.184  1.00  0.00    -0.369 OA 
HETATM   15  C   UNL     1     -11.159  15.715  66.580  1.00  0.00    -0.147 C  
HETATM   16  C   UNL     1     -10.362  11.854  64.475  1.00  0.00    -0.334 A  
HETATM   17  C   UNL     1     -10.004  10.911  63.361  1.00  0.00    -0.414 C  
HETATM   18  O   UNL     1     -11.017  14.576  67.459  1.00  0.00    -0.279 OA 
HETATM   19  C   UNL     1      -8.796  10.114  63.824  1.00  0.00    -0.229 C  
HETATM   20  N   UNL     1      -9.131   9.380  65.078  1.00  0.00    -0.224 NA 
HETATM   21  C   UNL     1      -8.631   8.132  65.235  1.00  0.00    -0.106 A  
HETATM   22  C   UNL     1      -8.890   7.330  66.358  1.00  0.00    -0.167 A  
HETATM   23  C   UNL     1      -8.395   6.009  66.595  1.00  0.00    -0.111 A  
BRANCH  23  24
HETATM   24  O   UNL     1      -7.570   5.244  65.814  1.00  0.00    -0.081 OA 
HETATM   25  C   UNL     1      -7.928   4.632  64.596  1.00  0.00    -0.097 C  
ENDBRANCH  23  24
ENDBRANCH   2   3
TORSDOF 2
ENDMDL
MODEL       62
REMARK 921   NORMALIZED FREE ENERGY PREDICTED BY IDOCK:   -5.03 KCAL/MOL
REMARK 922        TOTAL FREE ENERGY PREDICTED BY IDOCK:   -5.74 KCAL/MOL
REMARK 923 INTER-LIGAND FREE ENERGY PREDICTED BY IDOCK:   -5.65 KCAL/MOL
REMARK 924 INTRA-LIGAND FREE ENERGY PREDICTED BY IDOCK:   -0.09 KCAL/MOL
REMARK 927      BINDING AFFINITY PREDICTED BY RF-SCORE:    0.00 PKD
ROOT
HETATM    1  C   UNL     1      -6.744  20.979  66.716  1.00  0.00    -0.290 C  
HETATM    2  O   UNL     1      -8.099  20.779  67.104  1.00  0.00    -0.303 OA 
ENDROOT
BRANCH   2   3
HETATM    3  C   UNL     1      -8.440  19.526  67.561  1.00  0.00    -0.302 A  
HETATM    4  C   UNL     1      -8.043  19.038  68.800  1.00  0.00    -0.372 A  
HETATM    5  C   UNL     1      -8.470  17.785  69.223  1.00  0.00     0.275 A  
HETATM    6  C   UNL     1      -9.299  17.000  68.417  1.00  0.00    -0.266 A  
HETATM    7  C   UNL     1      -9.724  15.760  68.904  1.00  0.00    -0.225 A  
HETATM    8  C   UNL     1     -10.554  14.943  68.137  1.00  0.00    -0.244 A  
HETATM    9  C   UNL     1     -11.109  13.651  68.578  1.00  0.00    -0.301 A  
HETATM   10  C   UNL     1     -11.349  13.358  69.933  1.00  0.00    -0.082 A  
HETATM   11  C   UNL     1     -11.941  12.152  70.254  1.00  0.00    -0.305 A  
HETATM   12  C   UNL     1     -12.266  11.221  69.301  1.00  0.00    -0.222 A  
HETATM   13  C   UNL     1     -12.028  11.442  67.965  1.00  0.00    -0.162 A  
HETATM   14  O   UNL     1     -12.864  10.122  69.827  1.00  0.00     0.100 OA 
HETATM   15  C   UNL     1     -12.967  10.507  71.215  1.00  0.00    -0.433 C  
HETATM   16  C   UNL     1     -11.478  12.679  67.603  1.00  0.00    -0.390 A  
HETATM   17  C   UNL     1     -11.305  13.039  66.155  1.00  0.00    -0.349 C  
HETATM   18  O   UNL     1     -12.300  11.756  71.504  1.00  0.00    -0.156 OA 
HETATM   19  C   UNL     1     -11.729  14.490  66.003  1.00  0.00    -0.345 C  
HETATM   20  N   UNL     1     -10.892  15.352  66.886  1.00  0.00    -0.316 NA 
HETATM   21  C   UNL     1     -10.516  16.565  66.418  1.00  0.00    -0.274 A  
HETATM   22  C   UNL     1      -9.711  17.458  67.141  1.00  0.00    -0.267 A  
HETATM   23  C   UNL     1      -9.279  18.753  66.715  1.00  0.00    -0.315 A  
BRANCH  23  24
HETATM   24  O   UNL     1      -9.548  19.411  65.544  1.00  0.00    -0.226 OA 
HETATM   25  C   UNL     1     -10.777  20.014  65.206  1.00  0.00     0.120 C  
ENDBRANCH  23  24
ENDBRANCH   2   3
TORSDOF 2
ENDMDL
MODEL       63
REMARK 921   NORMALIZED FREE ENERGY PREDICTED BY IDOCK:   -5.02 KCAL/MOL
REMARK 922        TOTAL FREE ENERGY PREDICTED BY IDOCK:   -5.73 KCAL/MOL
REMARK 923 INTER-LIGAND FREE ENERGY PREDICTED BY IDOCK:   -5.61 KCAL/MOL
REMARK 924 INTRA-LIGAND FREE ENERGY PREDICTED BY IDOCK:   -0.12 KCAL/MOL
REMARK 927      BINDING AFFINITY PREDICTED BY RF-SCORE:    0.00 PKD
ROOT
HETATM    1  C   UNL     1     -11.369  16.567  64.602  1.00  0.00    -0.069 C  
HETATM    2  O   UNL     1     -10.837  16.125  65.846  1.00  0.00    -0.277 OA 
ENDROOT
BRANCH   2   3
HETATM    3  C   UNL     1     -10.960  14.786  66.139  1.00  0.00    -0.332 A  
HETATM    4  C   UNL     1     -11.913  13.966  65.546  1.00  0.00    -0.397 A  
HETATM    5  C   UNL     1     -11.946  12.610  65.846  1.00  0.00    -0.497 A  
HETATM    6  C   UNL     1     -11.029  12.050  66.740  1.00  0.00    -0.329 A  
HETATM    7  C   UNL     1     -11.087  10.674  66.981  1.00  0.00    -0.217 A  
HETATM    8  C   UNL     1     -10.192  10.071  67.863  1.00  0.00    -0.188 A  
HETATM    9  C   UNL     1     -10.124   8.624  68.141  1.00  0.00    -0.236 A  
HETATM   10  C   UNL     1     -10.519   7.657  67.198  1.00  0.00    -0.412 A  
HETATM   11  C   UNL     1     -10.353   6.322  67.511  1.00  0.00    -0.200 A  
HETATM   12  C   UNL     1      -9.855   5.912  68.721  1.00  0.00    -0.140 A  
HETATM   13  C   UNL     1      -9.480   6.813  69.691  1.00  0.00    -0.146 A  
HETATM   14  O   UNL     1      -9.747   4.562  68.811  1.00  0.00    -0.160 OA 
HETATM   15  C   UNL     1     -10.146   4.169  67.480  1.00  0.00     0.121 C  
HETATM   16  C   UNL     1      -9.585   8.175  69.381  1.00  0.00    -0.167 A  
HETATM   17  C   UNL     1      -9.080   9.213  70.343  1.00  0.00    -0.270 C  
HETATM   18  O   UNL     1     -10.619   5.278  66.683  1.00  0.00    -0.284 OA 
HETATM   19  C   UNL     1      -8.360  10.269  69.520  1.00  0.00    -0.151 C  
HETATM   20  N   UNL     1      -9.301  10.855  68.524  1.00  0.00    -0.174 NA 
HETATM   21  C   UNL     1      -9.212  12.182  68.272  1.00  0.00    -0.192 A  
HETATM   22  C   UNL     1     -10.053  12.857  67.374  1.00  0.00    -0.223 A  
HETATM   23  C   UNL     1     -10.016  14.251  67.054  1.00  0.00    -0.258 A  
BRANCH  23  24
HETATM   24  O   UNL     1      -9.171  15.223  67.524  1.00  0.00    -0.195 OA 
HETATM   25  C   UNL     1      -7.815  15.370  67.170  1.00  0.00    -0.214 C  
ENDBRANCH  23  24
ENDBRANCH   2   3
TORSDOF 2
ENDMDL
MODEL       64
REMARK 921   NORMALIZED FREE ENERGY PREDICTED BY IDOCK:   -5.01 KCAL/MOL
REMARK 922        TOTAL FREE ENERGY PREDICTED BY IDOCK:   -5.72 KCAL/MOL
REMARK 923 INTER-LIGAND FREE ENERGY PREDICTED BY IDOCK:   -5.60 KCAL/MOL
REMARK 924 INTRA-LIGAND FREE ENERGY PREDICTED BY IDOCK:   -0.12 KCAL/MOL
REMARK 927      BINDING AFFINITY PREDICTED BY RF-SCORE:    0.00 PKD
ROOT
HETATM    1  C   UNL     1      -6.504  19.452  69.171  1.00  0.00    -0.303 C  
HETATM    2  O   UNL     1      -7.263  18.794  68.163  1.00  0.00    -0.241 OA 
ENDROOT
BRANCH   2   3
HETATM    3  C   UNL     1      -7.432  17.434  68.293  1.00  0.00    -0.227 A  
HETATM    4  C   UNL     1      -6.846  16.694  69.314  1.00  0.00    -0.232 A  
HETATM    5  C   UNL     1      -7.104  15.332  69.420  1.00  0.00    -0.191 A  
HETATM    6  C   UNL     1      -7.948  14.689  68.511  1.00  0.00    -0.136 A  
HETATM    7  C   UNL     1      -8.197  13.324  68.682  1.00  0.00    -0.014 A  
HETATM    8  C   UNL     1      -9.034  12.639  67.802  1.00  0.00    -0.189 A  
HETATM    9  C   UNL     1      -9.413  11.220  67.927  1.00  0.00    -0.179 A  
HETATM   10  C   UNL     1      -9.461  10.560  69.169  1.00  0.00    -0.205 A  
HETATM   11  C   UNL     1      -9.899   9.251  69.205  1.00  0.00    -0.167 A  
HETATM   12  C   UNL     1     -10.248   8.565  68.069  1.00  0.00    -0.213 A  
HETATM   13  C   UNL     1     -10.193   9.151  66.826  1.00  0.00    -0.331 A  
HETATM   14  O   UNL     1     -10.677   7.305  68.332  1.00  0.00    -0.189 OA 
HETATM   15  C   UNL     1     -10.648   7.303  69.775  1.00  0.00    -0.235 C  
HETATM   16  C   UNL     1      -9.806  10.496  66.763  1.00  0.00    -0.237 A  
HETATM   17  C   UNL     1      -9.840  11.236  65.456  1.00  0.00    -0.274 C  
HETATM   18  O   UNL     1     -10.067   8.506  70.329  1.00  0.00    -0.181 OA 
HETATM   19  C   UNL     1     -10.410  12.616  65.741  1.00  0.00    -0.279 C  
HETATM   20  N   UNL     1      -9.556  13.314  66.744  1.00  0.00    -0.251 NA 
HETATM   21  C   UNL     1      -9.350  14.642  66.588  1.00  0.00    -0.271 A  
HETATM   22  C   UNL     1      -8.549  15.408  67.449  1.00  0.00    -0.197 A  
HETATM   23  C   UNL     1      -8.291  16.811  67.351  1.00  0.00    -0.181 A  
BRANCH  23  24
HETATM   24  O   UNL     1      -8.757  17.713  66.430  1.00  0.00    -0.288 OA 
HETATM   25  C   UNL     1     -10.081  18.188  66.346  1.00  0.00    -0.389 C  
ENDBRANCH  23  24
ENDBRANCH   2   3
TORSDOF 2
ENDMDL
MODEL       65
REMARK 921   NORMALIZED FREE ENERGY PREDICTED BY IDOCK:   -4.98 KCAL/MOL
REMARK 922        TOTAL FREE ENERGY PREDICTED BY IDOCK:   -5.69 KCAL/MOL
REMARK 923 INTER-LIGAND FREE ENERGY PREDICTED BY IDOCK:   -5.54 KCAL/MOL
REMARK 924 INTRA-LIGAND FREE ENERGY PREDICTED BY IDOCK:   -0.15 KCAL/MOL
REMARK 927      BINDING AFFINITY PREDICTED BY RF-SCORE:    0.00 PKD
ROOT
HETATM    1  C   UNL     1      -7.343   7.210  69.639  1.00  0.00    -0.085 C  
HETATM    2  O   UNL     1      -8.189   7.807  68.663  1.00  0.00    -0.125 OA 
ENDROOT
BRANCH   2   3
HETATM    3  C   UNL     1      -8.151   9.179  68.556  1.00  0.00    -0.103 A  
HETATM    4  C   UNL     1      -6.981   9.886  68.304  1.00  0.00    -0.072 A  
HETATM    5  C   UNL     1      -7.023  11.267  68.152  1.00  0.00    -0.069 A  
HETATM    6  C   UNL     1      -8.231  11.963  68.249  1.00  0.00    -0.157 A  
HETATM    7  C   UNL     1      -8.220  13.348  68.058  1.00  0.00    -0.161 A  
HETATM    8  C   UNL     1      -9.401  14.085  68.143  1.00  0.00    -0.201 A  
HETATM    9  C   UNL     1      -9.512  15.534  67.896  1.00  0.00    -0.201 A  
HETATM   10  C   UNL     1      -8.637  16.221  67.036  1.00  0.00    -0.227 A  
HETATM   11  C   UNL     1      -8.857  17.565  66.803  1.00  0.00    -0.256 A  
HETATM   12  C   UNL     1      -9.875  18.254  67.412  1.00  0.00    -0.316 A  
HETATM   13  C   UNL     1     -10.743  17.640  68.284  1.00  0.00    -0.285 A  
HETATM   14  O   UNL     1      -9.931  19.553  67.021  1.00  0.00    -0.333 OA 
HETATM   15  C   UNL     1      -8.889  19.582  66.022  1.00  0.00    -0.206 C  
HETATM   16  C   UNL     1     -10.578  16.266  68.498  1.00  0.00    -0.294 A  
HETATM   17  C   UNL     1     -11.562  15.504  69.340  1.00  0.00    -0.366 C  
HETATM   18  O   UNL     1      -8.146  18.345  65.947  1.00  0.00    -0.502 OA 
HETATM   19  C   UNL     1     -11.828  14.186  68.632  1.00  0.00    -0.348 C  
HETATM   20  N   UNL     1     -10.549  13.437  68.471  1.00  0.00    -0.250 NA 
HETATM   21  C   UNL     1     -10.578  12.093  68.624  1.00  0.00    -0.223 A  
HETATM   22  C   UNL     1      -9.440  11.277  68.521  1.00  0.00    -0.191 A  
HETATM   23  C   UNL     1      -9.394   9.855  68.665  1.00  0.00    -0.149 A  
BRANCH  23  24
HETATM   24  O   UNL     1     -10.417   8.979  68.918  1.00  0.00    -0.216 OA 
HETATM   25  C   UNL     1     -11.081   8.829  70.153  1.00  0.00    -0.202 C  
ENDBRANCH  23  24
ENDBRANCH   2   3
TORSDOF 2
ENDMDL
MODEL       66
REMARK 921   NORMALIZED FREE ENERGY PREDICTED BY IDOCK:   -4.94 KCAL/MOL
REMARK 922        TOTAL FREE ENERGY PREDICTED BY IDOCK:   -5.63 KCAL/MOL
REMARK 923 INTER-LIGAND FREE ENERGY PREDICTED BY IDOCK:   -5.52 KCAL/MOL
REMARK 924 INTRA-LIGAND FREE ENERGY PREDICTED BY IDOCK:   -0.11 KCAL/MOL
REMARK 927      BINDING AFFINITY PREDICTED BY RF-SCORE:    0.00 PKD
ROOT
HETATM    1  C   UNL     1     -10.658  19.552  65.918  1.00  0.00    -0.476 C  
HETATM    2  O   UNL     1     -10.707  18.524  66.902  1.00  0.00    -0.383 OA 
ENDROOT
BRANCH   2   3
HETATM    3  C   UNL     1     -10.607  17.226  66.456  1.00  0.00    -0.178 A  
HETATM    4  C   UNL     1     -10.915  16.847  65.155  1.00  0.00    -0.060 A  
HETATM    5  C   UNL     1     -10.738  15.528  64.755  1.00  0.00    -0.329 A  
HETATM    6  C   UNL     1     -10.252  14.567  65.646  1.00  0.00    -0.379 A  
HETATM    7  C   UNL     1     -10.065  13.261  65.182  1.00  0.00    -0.249 A  
HETATM    8  C   UNL     1      -9.580  12.269  66.034  1.00  0.00    -0.222 A  
HETATM    9  C   UNL     1      -9.287  10.881  65.633  1.00  0.00    -0.236 A  
HETATM   10  C   UNL     1      -8.919  10.539  64.319  1.00  0.00    -0.237 A  
HETATM   11  C   UNL     1      -8.589   9.226  64.047  1.00  0.00    -0.186 A  
HETATM   12  C   UNL     1      -8.644   8.244  65.003  1.00  0.00    -0.075 A  
HETATM   13  C   UNL     1      -9.024   8.517  66.296  1.00  0.00    -0.207 A  
HETATM   14  O   UNL     1      -8.251   7.034  64.532  1.00  0.00    -0.097 OA 
HETATM   15  C   UNL     1      -7.849   7.382  63.190  1.00  0.00    -0.126 C  
HETATM   16  C   UNL     1      -9.313   9.850  66.617  1.00  0.00    -0.196 A  
HETATM   17  C   UNL     1      -9.614  10.242  68.036  1.00  0.00    -0.159 C  
HETATM   18  O   UNL     1      -8.148   8.755  62.850  1.00  0.00    -0.156 OA 
HETATM   19  C   UNL     1      -8.886  11.548  68.301  1.00  0.00    -0.166 C  
HETATM   20  N   UNL     1      -9.349  12.585  67.335  1.00  0.00    -0.181 NA 
HETATM   21  C   UNL     1      -9.494  13.853  67.786  1.00  0.00    -0.214 A  
HETATM   22  C   UNL     1      -9.943  14.914  66.984  1.00  0.00    -0.240 A  
HETATM   23  C   UNL     1     -10.115  16.275  67.388  1.00  0.00    -0.260 A  
BRANCH  23  24
HETATM   24  O   UNL     1      -9.880  16.849  68.609  1.00  0.00    -0.246 OA 
HETATM   25  C   UNL     1     -10.581  16.564  69.798  1.00  0.00    -0.265 C  
ENDBRANCH  23  24
ENDBRANCH   2   3
TORSDOF 2
ENDMDL
MODEL       67
REMARK 921   NORMALIZED FREE ENERGY PREDICTED BY IDOCK:   -4.88 KCAL/MOL
REMARK 922        TOTAL FREE ENERGY PREDICTED BY IDOCK:   -5.57 KCAL/MOL
REMARK 923 INTER-LIGAND FREE ENERGY PREDICTED BY IDOCK:   -5.45 KCAL/MOL
REMARK 924 INTRA-LIGAND FREE ENERGY PREDICTED BY IDOCK:   -0.12 KCAL/MOL
REMARK 927      BINDING AFFINITY PREDICTED BY RF-SCORE:    0.00 PKD
ROOT
HETATM    1  C   UNL     1      -9.427   6.779  68.640  1.00  0.00    -0.132 C  
HETATM    2  O   UNL     1      -8.708   7.633  67.757  1.00  0.00    -0.126 OA 
ENDROOT
BRANCH   2   3
HETATM    3  C   UNL     1      -8.891   8.989  67.910  1.00  0.00    -0.129 A  
HETATM    4  C   UNL     1      -8.679   9.649  69.115  1.00  0.00    -0.151 A  
HETATM    5  C   UNL     1      -8.828  11.029  69.186  1.00  0.00    -0.003 A  
HETATM    6  C   UNL     1      -9.192  11.771  68.059  1.00  0.00    -0.181 A  
HETATM    7  C   UNL     1      -9.298  13.160  68.180  1.00  0.00    -0.217 A  
HETATM    8  C   UNL     1      -9.656  13.942  67.081  1.00  0.00    -0.247 A  
HETATM    9  C   UNL     1      -9.734  15.414  67.082  1.00  0.00    -0.219 A  
HETATM   10  C   UNL     1      -8.956  16.209  67.943  1.00  0.00    -0.183 A  
HETATM   11  C   UNL     1      -9.037  17.583  67.827  1.00  0.00    -0.249 A  
HETATM   12  C   UNL     1      -9.876  18.193  66.930  1.00  0.00    -0.330 A  
HETATM   13  C   UNL     1     -10.681  17.465  66.085  1.00  0.00    -0.100 A  
HETATM   14  O   UNL     1      -9.778  19.546  66.960  1.00  0.00    -0.316 OA 
HETATM   15  C   UNL     1      -8.708  19.719  67.914  1.00  0.00    -0.317 C  
HETATM   16  C   UNL     1     -10.580  16.069  66.141  1.00  0.00    -0.302 A  
HETATM   17  C   UNL     1     -11.336  15.213  65.164  1.00  0.00    -0.357 C  
HETATM   18  O   UNL     1      -8.299  18.479  68.534  1.00  0.00    -0.324 OA 
HETATM   19  C   UNL     1     -10.395  14.105  64.722  1.00  0.00    -0.359 C  
HETATM   20  N   UNL     1      -9.952  13.321  65.910  1.00  0.00    -0.286 NA 
HETATM   21  C   UNL     1      -9.819  11.981  65.772  1.00  0.00    -0.242 A  
HETATM   22  C   UNL     1      -9.431  11.130  66.819  1.00  0.00    -0.203 A  
HETATM   23  C   UNL     1      -9.265   9.711  66.747  1.00  0.00    -0.149 A  
BRANCH  23  24
HETATM   24  O   UNL     1      -9.428   8.876  65.673  1.00  0.00    -0.229 OA 
HETATM   25  C   UNL     1      -8.603   8.840  64.530  1.00  0.00    -0.099 C  
ENDBRANCH  23  24
ENDBRANCH   2   3
TORSDOF 2
ENDMDL
MODEL       68
REMARK 921   NORMALIZED FREE ENERGY PREDICTED BY IDOCK:   -4.83 KCAL/MOL
REMARK 922        TOTAL FREE ENERGY PREDICTED BY IDOCK:   -5.52 KCAL/MOL
REMARK 923 INTER-LIGAND FREE ENERGY PREDICTED BY IDOCK:   -5.42 KCAL/MOL
REMARK 924 INTRA-LIGAND FREE ENERGY PREDICTED BY IDOCK:   -0.10 KCAL/MOL
REMARK 927      BINDING AFFINITY PREDICTED BY RF-SCORE:    0.00 PKD
ROOT
HETATM    1  C   UNL     1      -8.251   1.844  68.735  1.00  0.00    -0.055 C  
HETATM    2  O   UNL     1      -8.085   2.631  69.910  1.00  0.00    -0.042 OA 
ENDROOT
BRANCH   2   3
HETATM    3  C   UNL     1      -8.328   3.981  69.798  1.00  0.00    -0.060 A  
HETATM    4  C   UNL     1      -7.518   4.837  69.061  1.00  0.00    -0.057 A  
HETATM    5  C   UNL     1      -7.853   6.181  68.944  1.00  0.00    -0.101 A  
HETATM    6  C   UNL     1      -8.999   6.691  69.559  1.00  0.00    -0.138 A  
HETATM    7  C   UNL     1      -9.305   8.044  69.382  1.00  0.00    -0.155 A  
HETATM    8  C   UNL     1     -10.440   8.598  69.975  1.00  0.00    -0.223 A  
HETATM    9  C   UNL     1     -10.888   9.991  69.802  1.00  0.00    -0.308 A  
HETATM   10  C   UNL     1     -10.597  10.739  68.647  1.00  0.00    -0.226 A  
HETATM   11  C   UNL     1     -11.119  12.013  68.534  1.00  0.00    -0.244 A  
HETATM   12  C   UNL     1     -11.876  12.583  69.526  1.00  0.00    -0.310 A  
HETATM   13  C   UNL     1     -12.167  11.909  70.689  1.00  0.00    -0.424 A  
HETATM   14  O   UNL     1     -12.312  13.825  69.200  1.00  0.00    -0.303 OA 
HETATM   15  C   UNL     1     -11.822  13.939  67.846  1.00  0.00    -0.378 C  
HETATM   16  C   UNL     1     -11.698  10.595  70.808  1.00  0.00    -0.435 A  
HETATM   17  C   UNL     1     -12.081   9.756  71.995  1.00  0.00    -0.197 C  
HETATM   18  O   UNL     1     -10.987  12.827  67.454  1.00  0.00    -0.241 OA 
HETATM   19  C   UNL     1     -12.399   8.365  71.473  1.00  0.00    -0.309 C  
HETATM   20  N   UNL     1     -11.208   7.809  70.771  1.00  0.00    -0.269 NA 
HETATM   21  C   UNL     1     -10.941   6.490  70.920  1.00  0.00    -0.274 A  
HETATM   22  C   UNL     1      -9.840   5.852  70.330  1.00  0.00    -0.234 A  
HETATM   23  C   UNL     1      -9.498   4.467  70.439  1.00  0.00    -0.182 A  
BRANCH  23  24
HETATM   24  O   UNL     1     -10.149   3.467  71.112  1.00  0.00    -0.094 OA 
HETATM   25  C   UNL     1     -10.127   3.270  72.507  1.00  0.00    -0.159 C  
ENDBRANCH  23  24
ENDBRANCH   2   3
TORSDOF 2
ENDMDL
MODEL       69
REMARK 921   NORMALIZED FREE ENERGY PREDICTED BY IDOCK:   -4.74 KCAL/MOL
REMARK 922        TOTAL FREE ENERGY PREDICTED BY IDOCK:   -5.41 KCAL/MOL
REMARK 923 INTER-LIGAND FREE ENERGY PREDICTED BY IDOCK:   -5.48 KCAL/MOL
REMARK 924 INTRA-LIGAND FREE ENERGY PREDICTED BY IDOCK:    0.07 KCAL/MOL
REMARK 927      BINDING AFFINITY PREDICTED BY RF-SCORE:    0.00 PKD
ROOT
HETATM    1  C   UNL     1      -5.408  19.586  71.323  1.00  0.00    -0.312 C  
HETATM    2  O   UNL     1      -5.701  19.368  69.947  1.00  0.00    -0.229 OA 
ENDROOT
BRANCH   2   3
HETATM    3  C   UNL     1      -6.033  18.085  69.574  1.00  0.00    -0.246 A  
HETATM    4  C   UNL     1      -5.230  16.985  69.850  1.00  0.00    -0.181 A  
HETATM    5  C   UNL     1      -5.652  15.710  69.493  1.00  0.00    -0.112 A  
HETATM    6  C   UNL     1      -6.880  15.512  68.857  1.00  0.00    -0.123 A  
HETATM    7  C   UNL     1      -7.269  14.205  68.548  1.00  0.00    -0.110 A  
HETATM    8  C   UNL     1      -8.487  13.959  67.915  1.00  0.00    -0.177 A  
HETATM    9  C   UNL     1      -9.021  12.621  67.602  1.00  0.00    -0.186 A  
HETATM   10  C   UNL     1      -8.691  11.483  68.360  1.00  0.00    -0.160 A  
HETATM   11  C   UNL     1      -9.294  10.281  68.044  1.00  0.00    -0.138 A  
HETATM   12  C   UNL     1     -10.171  10.156  66.997  1.00  0.00    -0.234 A  
HETATM   13  C   UNL     1     -10.508  11.228  66.205  1.00  0.00    -0.308 A  
HETATM   14  O   UNL     1     -10.669   8.899  66.881  1.00  0.00    -0.230 OA 
HETATM   15  C   UNL     1     -10.079   8.265  68.036  1.00  0.00    -0.198 C  
HETATM   16  C   UNL     1      -9.954  12.473  66.535  1.00  0.00    -0.252 A  
HETATM   17  C   UNL     1     -10.371  13.710  65.792  1.00  0.00    -0.304 C  
HETATM   18  O   UNL     1      -9.133   9.115  68.724  1.00  0.00    -0.135 OA 
HETATM   19  C   UNL     1     -10.542  14.812  66.824  1.00  0.00    -0.302 C  
HETATM   20  N   UNL     1      -9.258  15.018  67.554  1.00  0.00    -0.185 NA 
HETATM   21  C   UNL     1      -8.908  16.284  67.879  1.00  0.00    -0.183 A  
HETATM   22  C   UNL     1      -7.718  16.612  68.545  1.00  0.00    -0.215 A  
HETATM   23  C   UNL     1      -7.285  17.921  68.924  1.00  0.00    -0.256 A  
BRANCH  23  24
HETATM   24  O   UNL     1      -7.914  19.125  68.743  1.00  0.00    -0.345 OA 
HETATM   25  C   UNL     1      -9.292  19.363  68.915  1.00  0.00    -0.361 C  
ENDBRANCH  23  24
ENDBRANCH   2   3
TORSDOF 2
ENDMDL
MODEL       70
REMARK 921   NORMALIZED FREE ENERGY PREDICTED BY IDOCK:   -4.72 KCAL/MOL
REMARK 922        TOTAL FREE ENERGY PREDICTED BY IDOCK:   -5.39 KCAL/MOL
REMARK 923 INTER-LIGAND FREE ENERGY PREDICTED BY IDOCK:   -5.25 KCAL/MOL
REMARK 924 INTRA-LIGAND FREE ENERGY PREDICTED BY IDOCK:   -0.14 KCAL/MOL
REMARK 927      BINDING AFFINITY PREDICTED BY RF-SCORE:    0.00 PKD
ROOT
HETATM    1  C   UNL     1     -11.909  15.656  68.738  1.00  0.00    -0.321 C  
HETATM    2  O   UNL     1     -12.298  14.592  67.875  1.00  0.00    -0.160 OA 
ENDROOT
BRANCH   2   3
HETATM    3  C   UNL     1     -11.771  13.348  68.138  1.00  0.00    -0.362 A  
HETATM    4  C   UNL     1     -11.802  12.765  69.400  1.00  0.00    -0.359 A  
HETATM    5  C   UNL     1     -11.302  11.482  69.584  1.00  0.00    -0.329 A  
HETATM    6  C   UNL     1     -10.764  10.760  68.515  1.00  0.00    -0.245 A  
HETATM    7  C   UNL     1     -10.303   9.462  68.751  1.00  0.00    -0.230 A  
HETATM    8  C   UNL     1      -9.760   8.703  67.715  1.00  0.00    -0.165 A  
HETATM    9  C   UNL     1      -9.305   7.306  67.839  1.00  0.00    -0.131 A  
HETATM   10  C   UNL     1      -9.849   6.418  68.784  1.00  0.00    -0.152 A  
HETATM   11  C   UNL     1      -9.418   5.106  68.784  1.00  0.00    -0.133 A  
HETATM   12  C   UNL     1      -8.453   4.654  67.920  1.00  0.00    -0.102 A  
HETATM   13  C   UNL     1      -7.866   5.485  66.995  1.00  0.00    -0.101 A  
HETATM   14  O   UNL     1      -8.200   3.329  68.068  1.00  0.00    -0.077 OA 
HETATM   15  C   UNL     1      -9.185   2.973  69.061  1.00  0.00    -0.156 C  
HETATM   16  C   UNL     1      -8.322   6.808  66.935  1.00  0.00    -0.114 A  
HETATM   17  C   UNL     1      -7.815   7.739  65.869  1.00  0.00    -0.102 C  
HETATM   18  O   UNL     1      -9.898   4.117  69.583  1.00  0.00    -0.217 OA 
HETATM   19  C   UNL     1      -9.011   8.525  65.360  1.00  0.00    -0.099 C  
HETATM   20  N   UNL     1      -9.637   9.272  66.487  1.00  0.00    -0.204 NA 
HETATM   21  C   UNL     1     -10.112  10.515  66.239  1.00  0.00    -0.232 A  
HETATM   22  C   UNL     1     -10.702  11.329  67.219  1.00  0.00    -0.295 A  
HETATM   23  C   UNL     1     -11.228  12.645  67.031  1.00  0.00    -0.300 A  
BRANCH  23  24
HETATM   24  O   UNL     1     -11.289  13.395  65.886  1.00  0.00    -0.303 OA 
HETATM   25  C   UNL     1     -10.208  14.082  65.297  1.00  0.00    -0.360 C  
ENDBRANCH  23  24
ENDBRANCH   2   3
TORSDOF 2
ENDMDL
MODEL       71
REMARK 921   NORMALIZED FREE ENERGY PREDICTED BY IDOCK:   -4.68 KCAL/MOL
REMARK 922        TOTAL FREE ENERGY PREDICTED BY IDOCK:   -5.35 KCAL/MOL
REMARK 923 INTER-LIGAND FREE ENERGY PREDICTED BY IDOCK:   -5.21 KCAL/MOL
REMARK 924 INTRA-LIGAND FREE ENERGY PREDICTED BY IDOCK:   -0.14 KCAL/MOL
REMARK 927      BINDING AFFINITY PREDICTED BY RF-SCORE:    0.00 PKD
ROOT
HETATM    1  C   UNL     1      -8.121   2.232  66.407  1.00  0.00    -0.084 C  
HETATM    2  O   UNL     1      -7.546   3.226  67.248  1.00  0.00    -0.072 OA 
ENDROOT
BRANCH   2   3
HETATM    3  C   UNL     1      -8.362   4.263  67.641  1.00  0.00    -0.098 A  
HETATM    4  C   UNL     1      -9.598   4.065  68.245  1.00  0.00    -0.188 A  
HETATM    5  C   UNL     1     -10.347   5.157  68.668  1.00  0.00    -0.148 A  
HETATM    6  C   UNL     1      -9.876   6.461  68.494  1.00  0.00    -0.145 A  
HETATM    7  C   UNL     1     -10.656   7.521  68.966  1.00  0.00    -0.190 A  
HETATM    8  C   UNL     1     -10.226   8.839  68.817  1.00  0.00    -0.206 A  
HETATM    9  C   UNL     1     -10.937  10.023  69.332  1.00  0.00    -0.280 A  
HETATM   10  C   UNL     1     -11.773   9.967  70.463  1.00  0.00    -0.373 A  
HETATM   11  C   UNL     1     -12.343  11.138  70.923  1.00  0.00    -0.399 A  
HETATM   12  C   UNL     1     -12.151  12.341  70.292  1.00  0.00    -0.295 A  
HETATM   13  C   UNL     1     -11.368  12.449  69.166  1.00  0.00    -0.327 A  
HETATM   14  O   UNL     1     -12.774  13.367  70.924  1.00  0.00    -0.325 OA 
HETATM   15  C   UNL     1     -13.306  12.689  72.083  1.00  0.00    -0.466 C  
HETATM   16  C   UNL     1     -10.732  11.288  68.708  1.00  0.00    -0.240 A  
HETATM   17  C   UNL     1      -9.766  11.354  67.560  1.00  0.00    -0.191 C  
HETATM   18  O   UNL     1     -13.111  11.258  72.037  1.00  0.00    -0.495 OA 
HETATM   19  C   UNL     1      -8.587  10.465  67.919  1.00  0.00    -0.118 C  
HETATM   20  N   UNL     1      -9.063   9.073  68.155  1.00  0.00    -0.133 NA 
HETATM   21  C   UNL     1      -8.282   8.054  67.726  1.00  0.00    -0.129 A  
HETATM   22  C   UNL     1      -8.628   6.701  67.868  1.00  0.00    -0.118 A  
HETATM   23  C   UNL     1      -7.855   5.574  67.445  1.00  0.00    -0.101 A  
BRANCH  23  24
HETATM   24  O   UNL     1      -6.630   5.549  66.832  1.00  0.00    -0.052 OA 
HETATM   25  C   UNL     1      -6.364   5.975  65.515  1.00  0.00    -0.038 C  
ENDBRANCH  23  24
ENDBRANCH   2   3
TORSDOF 2
ENDMDL
MODEL       72
REMARK 921   NORMALIZED FREE ENERGY PREDICTED BY IDOCK:   -4.65 KCAL/MOL
REMARK 922        TOTAL FREE ENERGY PREDICTED BY IDOCK:   -5.31 KCAL/MOL
REMARK 923 INTER-LIGAND FREE ENERGY PREDICTED BY IDOCK:   -5.32 KCAL/MOL
REMARK 924 INTRA-LIGAND FREE ENERGY PREDICTED BY IDOCK:    0.01 KCAL/MOL
REMARK 927      BINDING AFFINITY PREDICTED BY RF-SCORE:    0.00 PKD
ROOT
HETATM    1  C   UNL     1     -11.347  14.278  65.837  1.00  0.00    -0.328 C  
HETATM    2  O   UNL     1     -11.529  13.652  67.102  1.00  0.00    -0.311 OA 
ENDROOT
BRANCH   2   3
HETATM    3  C   UNL     1     -11.301  12.296  67.169  1.00  0.00    -0.335 A  
HETATM    4  C   UNL     1     -11.158  11.497  66.040  1.00  0.00    -0.289 A  
HETATM    5  C   UNL     1     -10.874  10.144  66.179  1.00  0.00     0.097 A  
HETATM    6  C   UNL     1     -10.728   9.567  67.444  1.00  0.00    -0.297 A  
HETATM    7  C   UNL     1     -10.412   8.207  67.525  1.00  0.00    -0.326 A  
HETATM    8  C   UNL     1     -10.255   7.589  68.765  1.00  0.00    -0.197 A  
HETATM    9  C   UNL     1      -9.861   6.182  68.963  1.00  0.00    -0.170 A  
HETATM   10  C   UNL     1      -9.078   5.481  68.028  1.00  0.00    -0.110 A  
HETATM   11  C   UNL     1      -8.691   4.189  68.327  1.00  0.00    -0.099 A  
HETATM   12  C   UNL     1      -9.077   3.559  69.482  1.00  0.00    -0.133 A  
HETATM   13  C   UNL     1      -9.866   4.186  70.418  1.00  0.00    -0.237 A  
HETATM   14  O   UNL     1      -8.563   2.308  69.592  1.00  0.00    -0.049 OA 
HETATM   15  C   UNL     1      -7.729   2.253  68.414  1.00  0.00    -0.054 C  
HETATM   16  C   UNL     1     -10.229   5.516  70.168  1.00  0.00    -0.333 A  
HETATM   17  C   UNL     1     -10.985   6.304  71.200  1.00  0.00    -0.336 C  
HETATM   18  O   UNL     1      -7.879   3.411  67.563  1.00  0.00    -0.076 OA 
HETATM   19  C   UNL     1     -10.372   7.694  71.237  1.00  0.00    -0.198 C  
HETATM   20  N   UNL     1     -10.471   8.321  69.888  1.00  0.00    -0.219 NA 
HETATM   21  C   UNL     1     -10.743   9.645  69.822  1.00  0.00    -0.245 A  
HETATM   22  C   UNL     1     -10.883  10.347  68.616  1.00  0.00    -0.270 A  
HETATM   23  C   UNL     1     -11.164  11.742  68.468  1.00  0.00    -0.252 A  
BRANCH  23  24
HETATM   24  O   UNL     1     -11.345  12.693  69.437  1.00  0.00    -0.254 OA 
HETATM   25  C   UNL     1     -12.192  12.571  70.558  1.00  0.00    -0.297 C  
ENDBRANCH  23  24
ENDBRANCH   2   3
TORSDOF 2
ENDMDL
MODEL       73
REMARK 921   NORMALIZED FREE ENERGY PREDICTED BY IDOCK:   -4.62 KCAL/MOL
REMARK 922        TOTAL FREE ENERGY PREDICTED BY IDOCK:   -5.28 KCAL/MOL
REMARK 923 INTER-LIGAND FREE ENERGY PREDICTED BY IDOCK:   -5.15 KCAL/MOL
REMARK 924 INTRA-LIGAND FREE ENERGY PREDICTED BY IDOCK:   -0.13 KCAL/MOL
REMARK 927      BINDING AFFINITY PREDICTED BY RF-SCORE:    0.00 PKD
ROOT
HETATM    1  C   UNL     1     -11.394  16.462  69.114  1.00  0.00    -0.241 C  
HETATM    2  O   UNL     1     -11.363  15.802  67.853  1.00  0.00    -0.338 OA 
ENDROOT
BRANCH   2   3
HETATM    3  C   UNL     1     -11.141  14.443  67.863  1.00  0.00    -0.274 A  
HETATM    4  C   UNL     1     -11.980  13.544  68.511  1.00  0.00    -0.379 A  
HETATM    5  C   UNL     1     -11.727  12.180  68.435  1.00  0.00    -0.388 A  
HETATM    6  C   UNL     1     -10.636  11.691  67.711  1.00  0.00    -0.227 A  
HETATM    7  C   UNL     1     -10.447  10.308  67.642  1.00  0.00    -0.285 A  
HETATM    8  C   UNL     1      -9.373   9.774  66.929  1.00  0.00    -0.149 A  
HETATM    9  C   UNL     1      -9.118   8.334  66.739  1.00  0.00    -0.190 A  
HETATM   10  C   UNL     1     -10.151   7.380  66.742  1.00  0.00    -0.305 A  
HETATM   11  C   UNL     1      -9.833   6.060  66.482  1.00  0.00    -0.145 A  
HETATM   12  C   UNL     1      -8.544   5.650  66.261  1.00  0.00    -0.127 A  
HETATM   13  C   UNL     1      -7.491   6.535  66.275  1.00  0.00    -0.081 A  
HETATM   14  O   UNL     1      -8.457   4.322  65.997  1.00  0.00    -0.112 OA 
HETATM   15  C   UNL     1      -9.854   3.956  65.983  1.00  0.00    -0.121 C  
HETATM   16  C   UNL     1      -7.789   7.888  66.481  1.00  0.00    -0.098 A  
HETATM   17  C   UNL     1      -6.708   8.927  66.387  1.00  0.00    -0.074 C  
HETATM   18  O   UNL     1     -10.724   5.039  66.381  1.00  0.00    -0.300 OA 
HETATM   19  C   UNL     1      -7.290  10.109  65.631  1.00  0.00    -0.144 C  
HETATM   20  N   UNL     1      -8.486  10.627  66.354  1.00  0.00    -0.146 NA 
HETATM   21  C   UNL     1      -8.678  11.966  66.386  1.00  0.00    -0.118 A  
HETATM   22  C   UNL     1      -9.751  12.579  67.051  1.00  0.00    -0.213 A  
HETATM   23  C   UNL     1     -10.021  13.981  67.123  1.00  0.00    -0.252 A  
BRANCH  23  24
HETATM   24  O   UNL     1      -9.326  15.024  66.569  1.00  0.00    -0.246 OA 
HETATM   25  C   UNL     1      -8.010  15.401  66.903  1.00  0.00    -0.195 C  
ENDBRANCH  23  24
ENDBRANCH   2   3
TORSDOF 2
ENDMDL
MODEL       74
REMARK 921   NORMALIZED FREE ENERGY PREDICTED BY IDOCK:   -4.60 KCAL/MOL
REMARK 922        TOTAL FREE ENERGY PREDICTED BY IDOCK:   -5.26 KCAL/MOL
REMARK 923 INTER-LIGAND FREE ENERGY PREDICTED BY IDOCK:   -5.32 KCAL/MOL
REMARK 924 INTRA-LIGAND FREE ENERGY PREDICTED BY IDOCK:    0.06 KCAL/MOL
REMARK 927      BINDING AFFINITY PREDICTED BY RF-SCORE:    0.00 PKD
ROOT
HETATM    1  C   UNL     1     -10.381  18.085  66.003  1.00  0.00    -0.331 C  
HETATM    2  O   UNL     1     -10.701  16.820  65.434  1.00  0.00    -0.507 OA 
ENDROOT
BRANCH   2   3
HETATM    3  C   UNL     1     -10.230  15.703  66.085  1.00  0.00    -0.311 A  
HETATM    4  C   UNL     1      -9.593  15.759  67.319  1.00  0.00    -0.220 A  
HETATM    5  C   UNL     1      -9.192  14.587  67.948  1.00  0.00    -0.196 A  
HETATM    6  C   UNL     1      -9.419  13.341  67.356  1.00  0.00    -0.218 A  
HETATM    7  C   UNL     1      -9.022  12.192  68.047  1.00  0.00    -0.189 A  
HETATM    8  C   UNL     1      -9.230  10.927  67.497  1.00  0.00    -0.147 A  
HETATM    9  C   UNL     1      -8.910   9.653  68.165  1.00  0.00    -0.119 A  
HETATM   10  C   UNL     1      -8.900   9.518  69.565  1.00  0.00    -0.185 A  
HETATM   11  C   UNL     1      -8.662   8.270  70.108  1.00  0.00    -0.133 A  
HETATM   12  C   UNL     1      -8.399   7.173  69.329  1.00  0.00    -0.133 A  
HETATM   13  C   UNL     1      -8.368   7.252  67.956  1.00  0.00    -0.123 A  
HETATM   14  O   UNL     1      -8.225   6.043  70.060  1.00  0.00    -0.117 OA 
HETATM   15  C   UNL     1      -8.502   6.535  71.389  1.00  0.00    -0.125 C  
HETATM   16  C   UNL     1      -8.659   8.493  67.375  1.00  0.00    -0.127 A  
HETATM   17  C   UNL     1      -8.765   8.627  65.882  1.00  0.00    -0.201 C  
HETATM   18  O   UNL     1      -8.690   7.967  71.432  1.00  0.00    -0.124 OA 
HETATM   19  C   UNL     1      -9.965   9.515  65.598  1.00  0.00    -0.199 C  
HETATM   20  N   UNL     1      -9.774  10.840  66.255  1.00  0.00    -0.197 NA 
HETATM   21  C   UNL     1     -10.194  11.943  65.593  1.00  0.00    -0.245 A  
HETATM   22  C   UNL     1     -10.051  13.247  66.092  1.00  0.00    -0.293 A  
HETATM   23  C   UNL     1     -10.473  14.455  65.454  1.00  0.00    -0.373 A  
BRANCH  23  24
HETATM   24  O   UNL     1     -11.105  14.620  64.250  1.00  0.00    -0.199 OA 
HETATM   25  C   UNL     1     -12.168  13.831  63.767  1.00  0.00    -0.311 C  
ENDBRANCH  23  24
ENDBRANCH   2   3
TORSDOF 2
ENDMDL
MODEL       75
REMARK 921   NORMALIZED FREE ENERGY PREDICTED BY IDOCK:   -4.59 KCAL/MOL
REMARK 922        TOTAL FREE ENERGY PREDICTED BY IDOCK:   -5.25 KCAL/MOL
REMARK 923 INTER-LIGAND FREE ENERGY PREDICTED BY IDOCK:   -5.36 KCAL/MOL
REMARK 924 INTRA-LIGAND FREE ENERGY PREDICTED BY IDOCK:    0.12 KCAL/MOL
REMARK 927      BINDING AFFINITY PREDICTED BY RF-SCORE:    0.00 PKD
ROOT
HETATM    1  C   UNL     1     -10.214   3.931  72.268  1.00  0.00    -0.146 C  
HETATM    2  O   UNL     1      -9.632   5.219  72.428  1.00  0.00    -0.149 OA 
ENDROOT
BRANCH   2   3
HETATM    3  C   UNL     1     -10.054   6.208  71.568  1.00  0.00    -0.192 A  
HETATM    4  C   UNL     1     -11.255   6.889  71.730  1.00  0.00    -0.284 A  
HETATM    5  C   UNL     1     -11.594   7.916  70.857  1.00  0.00    -0.286 A  
HETATM    6  C   UNL     1     -10.742   8.279  69.810  1.00  0.00    -0.221 A  
HETATM    7  C   UNL     1     -11.119   9.340  68.981  1.00  0.00     0.023 A  
HETATM    8  C   UNL     1     -10.300   9.739  67.925  1.00  0.00    -0.213 A  
HETATM    9  C   UNL     1     -10.569  10.881  67.032  1.00  0.00    -0.307 A  
HETATM   10  C   UNL     1     -11.318  11.998  67.444  1.00  0.00    -0.393 A  
HETATM   11  C   UNL     1     -11.461  13.057  66.568  1.00  0.00    -0.340 A  
HETATM   12  C   UNL     1     -10.929  13.037  65.304  1.00  0.00    -0.284 A  
HETATM   13  C   UNL     1     -10.213  11.960  64.839  1.00  0.00    -0.310 A  
HETATM   14  O   UNL     1     -11.160  14.188  64.623  1.00  0.00    -0.374 OA 
HETATM   15  C   UNL     1     -11.818  14.977  65.637  1.00  0.00    -0.050 C  
HETATM   16  C   UNL     1     -10.005  10.893  65.723  1.00  0.00    -0.299 A  
HETATM   17  C   UNL     1      -9.129   9.738  65.327  1.00  0.00    -0.259 C  
HETATM   18  O   UNL     1     -12.091  14.229  66.844  1.00  0.00    -0.431 OA 
HETATM   19  C   UNL     1      -8.277   9.390  66.536  1.00  0.00    -0.115 C  
HETATM   20  N   UNL     1      -9.159   9.041  67.687  1.00  0.00    -0.133 NA 
HETATM   21  C   UNL     1      -8.767   8.036  68.504  1.00  0.00    -0.131 A  
HETATM   22  C   UNL     1      -9.518   7.597  69.606  1.00  0.00    -0.156 A  
HETATM   23  C   UNL     1      -9.167   6.549  70.514  1.00  0.00    -0.155 A  
BRANCH  23  24
HETATM   24  O   UNL     1      -8.048   5.758  70.529  1.00  0.00    -0.105 OA 
HETATM   25  C   UNL     1      -6.724   6.208  70.349  1.00  0.00    -0.053 C  
ENDBRANCH  23  24
ENDBRANCH   2   3
TORSDOF 2
ENDMDL
MODEL       76
REMARK 921   NORMALIZED FREE ENERGY PREDICTED BY IDOCK:   -4.58 KCAL/MOL
REMARK 922        TOTAL FREE ENERGY PREDICTED BY IDOCK:   -5.23 KCAL/MOL
REMARK 923 INTER-LIGAND FREE ENERGY PREDICTED BY IDOCK:   -5.22 KCAL/MOL
REMARK 924 INTRA-LIGAND FREE ENERGY PREDICTED BY IDOCK:   -0.01 KCAL/MOL
REMARK 927      BINDING AFFINITY PREDICTED BY RF-SCORE:    0.00 PKD
ROOT
HETATM    1  C   UNL     1      -5.356   8.650  65.272  1.00  0.00    -0.035 C  
HETATM    2  O   UNL     1      -6.592   9.234  64.877  1.00  0.00    -0.072 OA 
ENDROOT
BRANCH   2   3
HETATM    3  C   UNL     1      -7.295   9.923  65.839  1.00  0.00    -0.108 A  
HETATM    4  C   UNL     1      -7.039  11.252  66.157  1.00  0.00     0.070 A  
HETATM    5  C   UNL     1      -7.824  11.904  67.100  1.00  0.00    -0.168 A  
HETATM    6  C   UNL     1      -8.876  11.242  67.740  1.00  0.00    -0.141 A  
HETATM    7  C   UNL     1      -9.653  11.956  68.657  1.00  0.00    -0.101 A  
HETATM    8  C   UNL     1     -10.715  11.338  69.318  1.00  0.00    -0.179 A  
HETATM    9  C   UNL     1     -11.634  12.012  70.253  1.00  0.00    -0.135 A  
HETATM   10  C   UNL     1     -11.919  13.387  70.170  1.00  0.00    -0.396 A  
HETATM   11  C   UNL     1     -12.849  13.923  71.039  1.00  0.00    -0.324 A  
HETATM   12  C   UNL     1     -13.471  13.169  72.001  1.00  0.00    -0.507 A  
HETATM   13  C   UNL     1     -13.209  11.826  72.146  1.00  0.00    -0.342 A  
HETATM   14  O   UNL     1     -14.368  13.883  72.726  1.00  0.00    -0.548 OA 
HETATM   15  C   UNL     1     -14.311  15.158  72.049  1.00  0.00    -0.586 C  
HETATM   16  C   UNL     1     -12.311  11.242  71.244  1.00  0.00    -0.375 A  
HETATM   17  C   UNL     1     -12.071   9.759  71.263  1.00  0.00    -0.470 C  
HETATM   18  O   UNL     1     -13.281  15.212  71.036  1.00  0.00    -0.408 OA 
HETATM   19  C   UNL     1     -12.026   9.296  69.817  1.00  0.00     0.544 C  
HETATM   20  N   UNL     1     -10.941  10.018  69.094  1.00  0.00    -0.228 NA 
HETATM   21  C   UNL     1     -10.217   9.327  68.182  1.00  0.00    -0.205 A  
HETATM   22  C   UNL     1      -9.157   9.884  67.452  1.00  0.00    -0.147 A  
HETATM   23  C   UNL     1      -8.353   9.220  66.472  1.00  0.00    -0.126 A  
BRANCH  23  24
HETATM   24  O   UNL     1      -8.434   7.929  66.021  1.00  0.00    -0.123 OA 
HETATM   25  C   UNL     1      -8.240   6.773  66.805  1.00  0.00    -0.114 C  
ENDBRANCH  23  24
ENDBRANCH   2   3
TORSDOF 2
ENDMDL
MODEL       77
REMARK 921   NORMALIZED FREE ENERGY PREDICTED BY IDOCK:   -4.56 KCAL/MOL
REMARK 922        TOTAL FREE ENERGY PREDICTED BY IDOCK:   -5.21 KCAL/MOL
REMARK 923 INTER-LIGAND FREE ENERGY PREDICTED BY IDOCK:   -5.06 KCAL/MOL
REMARK 924 INTRA-LIGAND FREE ENERGY PREDICTED BY IDOCK:   -0.14 KCAL/MOL
REMARK 927      BINDING AFFINITY PREDICTED BY RF-SCORE:    0.00 PKD
ROOT
HETATM    1  C   UNL     1     -10.569   5.648  69.994  1.00  0.00    -0.318 C  
HETATM    2  O   UNL     1      -9.383   6.095  69.345  1.00  0.00    -0.138 OA 
ENDROOT
BRANCH   2   3
HETATM    3  C   UNL     1      -9.421   7.339  68.759  1.00  0.00    -0.142 A  
HETATM    4  C   UNL     1     -10.319   7.674  67.752  1.00  0.00    -0.282 A  
HETATM    5  C   UNL     1     -10.341   8.967  67.242  1.00  0.00    -0.350 A  
HETATM    6  C   UNL     1      -9.469   9.945  67.728  1.00  0.00    -0.158 A  
HETATM    7  C   UNL     1      -9.554  11.237  67.201  1.00  0.00    -0.194 A  
HETATM    8  C   UNL     1      -8.706  12.246  67.656  1.00  0.00    -0.175 A  
HETATM    9  C   UNL     1      -8.754  13.652  67.216  1.00  0.00    -0.223 A  
HETATM   10  C   UNL     1      -9.939  14.258  66.758  1.00  0.00    -0.266 A  
HETATM   11  C   UNL     1      -9.913  15.601  66.436  1.00  0.00    -0.281 A  
HETATM   12  C   UNL     1      -8.765  16.348  66.511  1.00  0.00    -0.289 A  
HETATM   13  C   UNL     1      -7.573  15.801  66.924  1.00  0.00    -0.235 A  
HETATM   14  O   UNL     1      -8.966  17.648  66.179  1.00  0.00    -0.452 OA 
HETATM   15  C   UNL     1     -10.396  17.659  65.976  1.00  0.00    -0.304 C  
HETATM   16  C   UNL     1      -7.580  14.454  67.310  1.00  0.00    -0.135 A  
HETATM   17  C   UNL     1      -6.345  13.823  67.888  1.00  0.00    -0.162 C  
HETATM   18  O   UNL     1     -10.985  16.341  66.050  1.00  0.00    -0.172 OA 
HETATM   19  C   UNL     1      -6.791  12.960  69.056  1.00  0.00    -0.080 C  
HETATM   20  N   UNL     1      -7.760  11.933  68.579  1.00  0.00    -0.133 NA 
HETATM   21  C   UNL     1      -7.691  10.694  69.121  1.00  0.00    -0.138 A  
HETATM   22  C   UNL     1      -8.530   9.635  68.742  1.00  0.00    -0.123 A  
HETATM   23  C   UNL     1      -8.519   8.307  69.272  1.00  0.00    -0.126 A  
BRANCH  23  24
HETATM   24  O   UNL     1      -7.721   7.774  70.250  1.00  0.00    -0.086 OA 
HETATM   25  C   UNL     1      -7.852   8.010  71.634  1.00  0.00    -0.103 C  
ENDBRANCH  23  24
ENDBRANCH   2   3
TORSDOF 2
ENDMDL
MODEL       78
REMARK 921   NORMALIZED FREE ENERGY PREDICTED BY IDOCK:   -4.55 KCAL/MOL
REMARK 922        TOTAL FREE ENERGY PREDICTED BY IDOCK:   -5.21 KCAL/MOL
REMARK 923 INTER-LIGAND FREE ENERGY PREDICTED BY IDOCK:   -5.08 KCAL/MOL
REMARK 924 INTRA-LIGAND FREE ENERGY PREDICTED BY IDOCK:   -0.13 KCAL/MOL
REMARK 927      BINDING AFFINITY PREDICTED BY RF-SCORE:    0.00 PKD
ROOT
HETATM    1  C   UNL     1      -9.972  20.452  67.383  1.00  0.00    -0.416 C  
HETATM    2  O   UNL     1      -9.182  19.703  68.300  1.00  0.00    -0.339 OA 
ENDROOT
BRANCH   2   3
HETATM    3  C   UNL     1      -9.336  18.336  68.288  1.00  0.00    -0.308 A  
HETATM    4  C   UNL     1     -10.552  17.713  68.031  1.00  0.00    -0.379 A  
HETATM    5  C   UNL     1     -10.625  16.327  67.979  1.00  0.00    -0.308 A  
HETATM    6  C   UNL     1      -9.488  15.540  68.182  1.00  0.00    -0.198 A  
HETATM    7  C   UNL     1      -9.612  14.150  68.088  1.00  0.00    -0.218 A  
HETATM    8  C   UNL     1      -8.505  13.325  68.281  1.00  0.00    -0.160 A  
HETATM    9  C   UNL     1      -8.511  11.857  68.142  1.00  0.00    -0.163 A  
HETATM   10  C   UNL     1      -9.407  11.185  67.291  1.00  0.00    -0.170 A  
HETATM   11  C   UNL     1      -9.296   9.814  67.164  1.00  0.00    -0.142 A  
HETATM   12  C   UNL     1      -8.369   9.088  67.867  1.00  0.00    -0.117 A  
HETATM   13  C   UNL     1      -7.488   9.689  68.735  1.00  0.00    -0.075 A  
HETATM   14  O   UNL     1      -8.411   7.764  67.572  1.00  0.00    -0.119 OA 
HETATM   15  C   UNL     1      -9.409   7.749  66.529  1.00  0.00    -0.189 C  
HETATM   16  C   UNL     1      -7.540  11.084  68.844  1.00  0.00    -0.134 A  
HETATM   17  C   UNL     1      -6.528  11.820  69.676  1.00  0.00    -0.113 C  
HETATM   18  O   UNL     1     -10.037   9.036  66.332  1.00  0.00    -0.294 OA 
HETATM   19  C   UNL     1      -6.119  13.055  68.891  1.00  0.00    -0.083 C  
HETATM   20  N   UNL     1      -7.319  13.895  68.618  1.00  0.00    -0.113 NA 
HETATM   21  C   UNL     1      -7.179  15.240  68.677  1.00  0.00    -0.121 A  
HETATM   22  C   UNL     1      -8.235  16.139  68.462  1.00  0.00    -0.186 A  
HETATM   23  C   UNL     1      -8.162  17.567  68.504  1.00  0.00    -0.278 A  
BRANCH  23  24
HETATM   24  O   UNL     1      -7.078  18.369  68.744  1.00  0.00    -0.269 OA 
HETATM   25  C   UNL     1      -6.018  18.605  67.845  1.00  0.00    -0.190 C  
ENDBRANCH  23  24
ENDBRANCH   2   3
TORSDOF 2
ENDMDL
MODEL       79
REMARK 921   NORMALIZED FREE ENERGY PREDICTED BY IDOCK:   -4.54 KCAL/MOL
REMARK 922        TOTAL FREE ENERGY PREDICTED BY IDOCK:   -5.19 KCAL/MOL
REMARK 923 INTER-LIGAND FREE ENERGY PREDICTED BY IDOCK:   -5.33 KCAL/MOL
REMARK 924 INTRA-LIGAND FREE ENERGY PREDICTED BY IDOCK:    0.14 KCAL/MOL
REMARK 927      BINDING AFFINITY PREDICTED BY RF-SCORE:    0.00 PKD
ROOT
HETATM    1  C   UNL     1      -9.500   1.665  70.780  1.00  0.00    -0.117 C  
HETATM    2  O   UNL     1      -9.411   2.914  71.458  1.00  0.00    -0.106 OA 
ENDROOT
BRANCH   2   3
HETATM    3  C   UNL     1      -9.378   4.048  70.679  1.00  0.00    -0.146 A  
HETATM    4  C   UNL     1      -8.627   4.144  69.513  1.00  0.00    -0.105 A  
HETATM    5  C   UNL     1      -8.683   5.299  68.743  1.00  0.00    -0.093 A  
HETATM    6  C   UNL     1      -9.489   6.376  69.123  1.00  0.00    -0.137 A  
HETATM    7  C   UNL     1      -9.532   7.502  68.296  1.00  0.00    -0.146 A  
HETATM    8  C   UNL     1     -10.323   8.600  68.633  1.00  0.00    -0.193 A  
HETATM    9  C   UNL     1     -10.490   9.807  67.803  1.00  0.00    -0.297 A  
HETATM   10  C   UNL     1     -10.361   9.783  66.403  1.00  0.00    -0.247 A  
HETATM   11  C   UNL     1     -10.607  10.943  65.695  1.00  0.00    -0.164 A  
HETATM   12  C   UNL     1     -10.934  12.122  66.316  1.00  0.00    -0.295 A  
HETATM   13  C   UNL     1     -11.045  12.211  67.684  1.00  0.00    -0.320 A  
HETATM   14  O   UNL     1     -11.162  13.129  65.436  1.00  0.00    -0.289 OA 
HETATM   15  C   UNL     1     -11.035  12.427  64.180  1.00  0.00    -0.367 C  
HETATM   16  C   UNL     1     -10.856  11.037  68.425  1.00  0.00    -0.264 A  
HETATM   17  C   UNL     1     -11.083  11.031  69.910  1.00  0.00    -0.276 C  
HETATM   18  O   UNL     1     -10.592  11.060  64.341  1.00  0.00    -0.352 OA 
HETATM   19  C   UNL     1     -11.819   9.745  70.242  1.00  0.00    -0.144 C  
HETATM   20  N   UNL     1     -11.005   8.574  69.808  1.00  0.00    -0.182 NA 
HETATM   21  C   UNL     1     -10.999   7.476  70.599  1.00  0.00    -0.249 A  
HETATM   22  C   UNL     1     -10.256   6.320  70.313  1.00  0.00    -0.244 A  
HETATM   23  C   UNL     1     -10.204   5.124  71.096  1.00  0.00    -0.221 A  
BRANCH  23  24
HETATM   24  O   UNL     1     -10.854   4.830  72.266  1.00  0.00    -0.165 OA 
HETATM   25  C   UNL     1     -11.139   5.746  73.298  1.00  0.00    -0.208 C  
ENDBRANCH  23  24
ENDBRANCH   2   3
TORSDOF 2
ENDMDL
MODEL       80
REMARK 921   NORMALIZED FREE ENERGY PREDICTED BY IDOCK:   -4.48 KCAL/MOL
REMARK 922        TOTAL FREE ENERGY PREDICTED BY IDOCK:   -5.12 KCAL/MOL
REMARK 923 INTER-LIGAND FREE ENERGY PREDICTED BY IDOCK:   -5.01 KCAL/MOL
REMARK 924 INTRA-LIGAND FREE ENERGY PREDICTED BY IDOCK:   -0.12 KCAL/MOL
REMARK 927      BINDING AFFINITY PREDICTED BY RF-SCORE:    0.00 PKD
ROOT
HETATM    1  C   UNL     1      -6.738  20.151  66.225  1.00  0.00    -0.222 C  
HETATM    2  O   UNL     1      -8.034  19.622  66.480  1.00  0.00    -0.272 OA 
ENDROOT
BRANCH   2   3
HETATM    3  C   UNL     1      -8.133  18.259  66.645  1.00  0.00    -0.260 A  
HETATM    4  C   UNL     1      -7.209  17.364  66.118  1.00  0.00    -0.327 A  
HETATM    5  C   UNL     1      -7.338  16.003  66.369  1.00  0.00     0.274 A  
HETATM    6  C   UNL     1      -8.390  15.514  67.149  1.00  0.00    -0.243 A  
HETATM    7  C   UNL     1      -8.454  14.140  67.396  1.00  0.00    -0.214 A  
HETATM    8  C   UNL     1      -9.484  13.606  68.170  1.00  0.00    -0.217 A  
HETATM    9  C   UNL     1      -9.610  12.185  68.544  1.00  0.00    -0.137 A  
HETATM   10  C   UNL     1      -8.495  11.336  68.664  1.00  0.00    -0.143 A  
HETATM   11  C   UNL     1      -8.696  10.037  69.091  1.00  0.00    -0.167 A  
HETATM   12  C   UNL     1      -9.946   9.543  69.363  1.00  0.00    -0.191 A  
HETATM   13  C   UNL     1     -11.074  10.320  69.235  1.00  0.00    -0.293 A  
HETATM   14  O   UNL     1      -9.916   8.257  69.796  1.00  0.00    -0.185 OA 
HETATM   15  C   UNL     1      -8.492   8.025  69.857  1.00  0.00    -0.126 C  
HETATM   16  C   UNL     1     -10.897  11.657  68.856  1.00  0.00    -0.264 A  
HETATM   17  C   UNL     1     -12.069  12.596  68.816  1.00  0.00    -0.155 C  
HETATM   18  O   UNL     1      -7.718   9.123  69.323  1.00  0.00    -0.077 OA 
HETATM   19  C   UNL     1     -11.604  13.913  69.414  1.00  0.00    -0.297 C  
HETATM   20  N   UNL     1     -10.451  14.441  68.631  1.00  0.00    -0.241 NA 
HETATM   21  C   UNL     1     -10.380  15.777  68.428  1.00  0.00    -0.233 A  
HETATM   22  C   UNL     1      -9.359  16.395  67.689  1.00  0.00    -0.212 A  
HETATM   23  C   UNL     1      -9.216  17.795  67.438  1.00  0.00    -0.248 A  
BRANCH  23  24
HETATM   24  O   UNL     1     -10.008  18.833  67.853  1.00  0.00    -0.322 OA 
HETATM   25  C   UNL     1     -10.156  19.269  69.185  1.00  0.00    -0.235 C  
ENDBRANCH  23  24
ENDBRANCH   2   3
TORSDOF 2
ENDMDL
MODEL       81
REMARK 921   NORMALIZED FREE ENERGY PREDICTED BY IDOCK:   -4.36 KCAL/MOL
REMARK 922        TOTAL FREE ENERGY PREDICTED BY IDOCK:   -4.99 KCAL/MOL
REMARK 923 INTER-LIGAND FREE ENERGY PREDICTED BY IDOCK:   -4.92 KCAL/MOL
REMARK 924 INTRA-LIGAND FREE ENERGY PREDICTED BY IDOCK:   -0.06 KCAL/MOL
REMARK 927      BINDING AFFINITY PREDICTED BY RF-SCORE:    0.00 PKD
ROOT
HETATM    1  C   UNL     1      -5.654  10.917  62.557  1.00  0.00    -0.141 C  
HETATM    2  O   UNL     1      -5.607   9.694  63.284  1.00  0.00    -0.079 OA 
ENDROOT
BRANCH   2   3
HETATM    3  C   UNL     1      -6.320   9.636  64.460  1.00  0.00    -0.099 A  
HETATM    4  C   UNL     1      -6.201  10.590  65.464  1.00  0.00    -0.118 A  
HETATM    5  C   UNL     1      -6.993  10.502  66.603  1.00  0.00    -0.113 A  
HETATM    6  C   UNL     1      -7.914   9.463  66.758  1.00  0.00    -0.108 A  
HETATM    7  C   UNL     1      -8.707   9.440  67.910  1.00  0.00    -0.120 A  
HETATM    8  C   UNL     1      -9.642   8.424  68.106  1.00  0.00    -0.143 A  
HETATM    9  C   UNL     1     -10.569   8.339  69.249  1.00  0.00    -0.191 A  
HETATM   10  C   UNL     1     -11.019   9.479  69.940  1.00  0.00    -0.263 A  
HETATM   11  C   UNL     1     -11.946   9.317  70.952  1.00  0.00    -0.257 A  
HETATM   12  C   UNL     1     -12.409   8.082  71.327  1.00  0.00    -0.271 A  
HETATM   13  C   UNL     1     -11.982   6.931  70.706  1.00  0.00    -0.424 A  
HETATM   14  O   UNL     1     -13.333   8.150  72.318  1.00  0.00    -0.251 OA 
HETATM   15  C   UNL     1     -13.472   9.580  72.462  1.00  0.00    -0.300 C  
HETATM   16  C   UNL     1     -11.084   7.068  69.639  1.00  0.00    -0.254 A  
HETATM   17  C   UNL     1     -10.670   5.868  68.836  1.00  0.00    -0.370 C  
HETATM   18  O   UNL     1     -12.526  10.322  71.660  1.00  0.00    -0.389 OA 
HETATM   19  C   UNL     1     -10.667   6.290  67.376  1.00  0.00    -0.331 C  
HETATM   20  N   UNL     1      -9.725   7.429  67.185  1.00  0.00    -0.158 NA 
HETATM   21  C   UNL     1      -8.988   7.460  66.050  1.00  0.00    -0.121 A  
HETATM   22  C   UNL     1      -8.052   8.465  65.762  1.00  0.00    -0.117 A  
HETATM   23  C   UNL     1      -7.243   8.566  64.587  1.00  0.00    -0.086 A  
BRANCH  23  24
HETATM   24  O   UNL     1      -7.201   7.740  63.494  1.00  0.00    -0.077 OA 
HETATM   25  C   UNL     1      -8.028   7.841  62.358  1.00  0.00    -0.141 C  
ENDBRANCH  23  24
ENDBRANCH   2   3
TORSDOF 2
ENDMDL
MODEL       82
REMARK 921   NORMALIZED FREE ENERGY PREDICTED BY IDOCK:   -4.35 KCAL/MOL
REMARK 922        TOTAL FREE ENERGY PREDICTED BY IDOCK:   -4.98 KCAL/MOL
REMARK 923 INTER-LIGAND FREE ENERGY PREDICTED BY IDOCK:   -5.00 KCAL/MOL
REMARK 924 INTRA-LIGAND FREE ENERGY PREDICTED BY IDOCK:    0.02 KCAL/MOL
REMARK 927      BINDING AFFINITY PREDICTED BY RF-SCORE:    0.00 PKD
ROOT
HETATM    1  C   UNL     1      -9.222   8.235  66.187  1.00  0.00    -0.192 C  
HETATM    2  O   UNL     1      -9.972   9.065  67.066  1.00  0.00    -0.191 OA 
ENDROOT
BRANCH   2   3
HETATM    3  C   UNL     1      -9.866  10.425  66.886  1.00  0.00    -0.191 A  
HETATM    4  C   UNL     1     -10.604  11.123  65.936  1.00  0.00    -0.294 A  
HETATM    5  C   UNL     1     -10.489  12.505  65.845  1.00  0.00    -0.289 A  
HETATM    6  C   UNL     1      -9.637  13.212  66.697  1.00  0.00    -0.260 A  
HETATM    7  C   UNL     1      -9.583  14.604  66.582  1.00  0.00    -0.294 A  
HETATM    8  C   UNL     1      -8.749  15.353  67.412  1.00  0.00    -0.179 A  
HETATM    9  C   UNL     1      -8.664  16.825  67.418  1.00  0.00    -0.202 A  
HETATM   10  C   UNL     1      -9.743  17.643  67.040  1.00  0.00    -0.292 A  
HETATM   11  C   UNL     1      -9.603  19.013  67.146  1.00  0.00    -0.312 A  
HETATM   12  C   UNL     1      -8.437  19.598  67.570  1.00  0.00    -0.307 A  
HETATM   13  C   UNL     1      -7.340  18.847  67.925  1.00  0.00    -0.263 A  
HETATM   14  O   UNL     1      -8.522  20.951  67.629  1.00  0.00    -0.146 OA 
HETATM   15  C   UNL     1      -9.910  21.150  67.283  1.00  0.00     0.237 C  
HETATM   16  C   UNL     1      -7.470  17.453  67.880  1.00  0.00    -0.195 A  
HETATM   17  C   UNL     1      -6.358  16.570  68.370  1.00  0.00    -0.129 C  
HETATM   18  O   UNL     1     -10.574  19.929  66.888  1.00  0.00    -0.454 OA 
HETATM   19  C   UNL     1      -7.000  15.445  69.164  1.00  0.00    -0.154 C  
HETATM   20  N   UNL     1      -7.951  14.697  68.294  1.00  0.00    -0.126 NA 
HETATM   21  C   UNL     1      -8.021  13.353  68.439  1.00  0.00    -0.139 A  
HETATM   22  C   UNL     1      -8.858  12.533  67.666  1.00  0.00    -0.179 A  
HETATM   23  C   UNL     1      -8.988  11.112  67.765  1.00  0.00    -0.139 A  
BRANCH  23  24
HETATM   24  O   UNL     1      -8.356  10.244  68.616  1.00  0.00    -0.109 OA 
HETATM   25  C   UNL     1      -8.753   9.957  69.937  1.00  0.00    -0.201 C  
ENDBRANCH  23  24
ENDBRANCH   2   3
TORSDOF 2
ENDMDL
MODEL       83
REMARK 921   NORMALIZED FREE ENERGY PREDICTED BY IDOCK:   -4.32 KCAL/MOL
REMARK 922        TOTAL FREE ENERGY PREDICTED BY IDOCK:   -4.95 KCAL/MOL
REMARK 923 INTER-LIGAND FREE ENERGY PREDICTED BY IDOCK:   -4.83 KCAL/MOL
REMARK 924 INTRA-LIGAND FREE ENERGY PREDICTED BY IDOCK:   -0.12 KCAL/MOL
REMARK 927      BINDING AFFINITY PREDICTED BY RF-SCORE:    0.00 PKD
ROOT
HETATM    1  C   UNL     1      -9.389   3.199  67.941  1.00  0.00    -0.201 C  
HETATM    2  O   UNL     1      -8.538   4.291  68.272  1.00  0.00    -0.092 OA 
ENDROOT
BRANCH   2   3
HETATM    3  C   UNL     1      -9.107   5.544  68.292  1.00  0.00    -0.108 A  
HETATM    4  C   UNL     1     -10.476   5.752  68.406  1.00  0.00    -0.283 A  
HETATM    5  C   UNL     1     -10.980   7.045  68.476  1.00  0.00    -0.135 A  
HETATM    6  C   UNL     1     -10.126   8.151  68.433  1.00  0.00    -0.226 A  
HETATM    7  C   UNL     1     -10.683   9.429  68.539  1.00  0.00    -0.203 A  
HETATM    8  C   UNL     1      -9.870  10.562  68.504  1.00  0.00    -0.168 A  
HETATM    9  C   UNL     1     -10.346  11.947  68.670  1.00  0.00    -0.218 A  
HETATM   10  C   UNL     1     -11.497  12.265  69.413  1.00  0.00    -0.341 A  
HETATM   11  C   UNL     1     -11.829  13.595  69.581  1.00  0.00    -0.335 A  
HETATM   12  C   UNL     1     -11.098  14.608  69.015  1.00  0.00    -0.259 A  
HETATM   13  C   UNL     1      -9.981  14.354  68.255  1.00  0.00    -0.232 A  
HETATM   14  O   UNL     1     -11.580  15.837  69.329  1.00  0.00    -0.333 OA 
HETATM   15  C   UNL     1     -12.646  15.487  70.238  1.00  0.00    -0.323 C  
HETATM   16  C   UNL     1      -9.587  13.018  68.112  1.00  0.00    -0.227 A  
HETATM   17  C   UNL     1      -8.309  12.674  67.400  1.00  0.00    -0.184 C  
HETATM   18  O   UNL     1     -12.865  14.061  70.328  1.00  0.00    -0.279 OA 
HETATM   19  C   UNL     1      -7.631  11.579  68.206  1.00  0.00    -0.115 C  
HETATM   20  N   UNL     1      -8.536  10.399  68.308  1.00  0.00    -0.124 NA 
HETATM   21  C   UNL     1      -7.982   9.166  68.241  1.00  0.00    -0.103 A  
HETATM   22  C   UNL     1      -8.726   7.978  68.302  1.00  0.00    -0.130 A  
HETATM   23  C   UNL     1      -8.211   6.645  68.242  1.00  0.00    -0.114 A  
BRANCH  23  24
HETATM   24  O   UNL     1      -6.912   6.225  68.125  1.00  0.00    -0.074 OA 
HETATM   25  C   UNL     1      -5.934   6.295  69.138  1.00  0.00    -0.021 C  
ENDBRANCH  23  24
ENDBRANCH   2   3
TORSDOF 2
ENDMDL
MODEL       84
REMARK 921   NORMALIZED FREE ENERGY PREDICTED BY IDOCK:   -4.29 KCAL/MOL
REMARK 922        TOTAL FREE ENERGY PREDICTED BY IDOCK:   -4.91 KCAL/MOL
REMARK 923 INTER-LIGAND FREE ENERGY PREDICTED BY IDOCK:   -4.84 KCAL/MOL
REMARK 924 INTRA-LIGAND FREE ENERGY PREDICTED BY IDOCK:   -0.07 KCAL/MOL
REMARK 927      BINDING AFFINITY PREDICTED BY RF-SCORE:    0.00 PKD
ROOT
HETATM    1  C   UNL     1     -11.048   7.063  73.558  1.00  0.00     0.005 C  
HETATM    2  O   UNL     1     -10.881   7.031  72.145  1.00  0.00    -0.215 OA 
ENDROOT
BRANCH   2   3
HETATM    3  C   UNL     1     -11.053   8.216  71.467  1.00  0.00    -0.252 A  
HETATM    4  C   UNL     1     -12.229   8.955  71.522  1.00  0.00    -0.388 A  
HETATM    5  C   UNL     1     -12.316  10.173  70.858  1.00  0.00    -0.461 A  
HETATM    6  C   UNL     1     -11.232  10.672  70.130  1.00  0.00    -0.378 A  
HETATM    7  C   UNL     1     -11.364  11.917  69.506  1.00  0.00    -0.306 A  
HETATM    8  C   UNL     1     -10.309  12.457  68.771  1.00  0.00    -0.121 A  
HETATM    9  C   UNL     1     -10.319  13.784  68.129  1.00  0.00    -0.252 A  
HETATM   10  C   UNL     1     -11.095  14.851  68.618  1.00  0.00    -0.272 A  
HETATM   11  C   UNL     1     -10.988  16.082  68.002  1.00  0.00    -0.341 A  
HETATM   12  C   UNL     1     -10.183  16.286  66.910  1.00  0.00    -0.288 A  
HETATM   13  C   UNL     1      -9.426  15.272  66.372  1.00  0.00    -0.326 A  
HETATM   14  O   UNL     1     -10.203  17.573  66.480  1.00  0.00    -0.321 OA 
HETATM   15  C   UNL     1     -11.042  18.182  67.485  1.00  0.00     0.093 C  
HETATM   16  C   UNL     1      -9.471  14.025  67.010  1.00  0.00    -0.253 A  
HETATM   17  C   UNL     1      -8.577  12.906  66.554  1.00  0.00     0.107 C  
HETATM   18  O   UNL     1     -11.615  17.221  68.399  1.00  0.00     0.275 OA 
HETATM   19  C   UNL     1      -8.040  12.229  67.803  1.00  0.00    -0.155 C  
HETATM   20  N   UNL     1      -9.175  11.723  68.627  1.00  0.00    -0.134 NA 
HETATM   21  C   UNL     1      -9.023  10.534  69.254  1.00  0.00    -0.134 A  
HETATM   22  C   UNL     1     -10.024   9.939  70.039  1.00  0.00    -0.302 A  
HETATM   23  C   UNL     1      -9.934   8.692  70.734  1.00  0.00    -0.197 A  
BRANCH  23  24
HETATM   24  O   UNL     1      -8.883   7.816  70.804  1.00  0.00    -0.137 OA 
HETATM   25  C   UNL     1      -7.582   8.132  71.244  1.00  0.00    -0.083 C  
ENDBRANCH  23  24
ENDBRANCH   2   3
TORSDOF 2
ENDMDL
MODEL       85
REMARK 921   NORMALIZED FREE ENERGY PREDICTED BY IDOCK:   -4.29 KCAL/MOL
REMARK 922        TOTAL FREE ENERGY PREDICTED BY IDOCK:   -4.91 KCAL/MOL
REMARK 923 INTER-LIGAND FREE ENERGY PREDICTED BY IDOCK:   -5.21 KCAL/MOL
REMARK 924 INTRA-LIGAND FREE ENERGY PREDICTED BY IDOCK:    0.31 KCAL/MOL
REMARK 927      BINDING AFFINITY PREDICTED BY RF-SCORE:    0.00 PKD
ROOT
HETATM    1  C   UNL     1     -12.643  12.320  63.215  1.00  0.00    -0.318 C  
HETATM    2  O   UNL     1     -11.279  12.447  63.603  1.00  0.00    -0.407 OA 
ENDROOT
BRANCH   2   3
HETATM    3  C   UNL     1     -10.956  12.063  64.885  1.00  0.00    -0.306 A  
HETATM    4  C   UNL     1     -11.707  12.427  65.996  1.00  0.00    -0.469 A  
HETATM    5  C   UNL     1     -11.355  11.958  67.256  1.00  0.00    -0.393 A  
HETATM    6  C   UNL     1     -10.250  11.120  67.428  1.00  0.00    -0.221 A  
HETATM    7  C   UNL     1      -9.960  10.653  68.713  1.00  0.00    -0.201 A  
HETATM    8  C   UNL     1      -8.868   9.813  68.932  1.00  0.00    -0.140 A  
HETATM    9  C   UNL     1      -8.511   9.214  70.231  1.00  0.00    -0.208 A  
HETATM   10  C   UNL     1      -9.469   8.945  71.226  1.00  0.00    -0.343 A  
HETATM   11  C   UNL     1      -9.060   8.314  72.384  1.00  0.00    -0.237 A  
HETATM   12  C   UNL     1      -7.749   7.979  72.610  1.00  0.00    -0.122 A  
HETATM   13  C   UNL     1      -6.766   8.244  71.686  1.00  0.00    -0.067 A  
HETATM   14  O   UNL     1      -7.570   7.342  73.795  1.00  0.00    -0.101 OA 
HETATM   15  C   UNL     1      -8.936   7.228  74.251  1.00  0.00    -0.208 C  
HETATM   16  C   UNL     1      -7.159   8.834  70.477  1.00  0.00    -0.050 A  
HETATM   17  C   UNL     1      -6.161   9.040  69.373  1.00  0.00    -0.040 C  
HETATM   18  O   UNL     1      -9.874   7.925  73.401  1.00  0.00    -0.304 OA 
HETATM   19  C   UNL     1      -6.851   8.660  68.074  1.00  0.00    -0.070 C  
HETATM   20  N   UNL     1      -8.063   9.506  67.883  1.00  0.00    -0.106 NA 
HETATM   21  C   UNL     1      -8.354   9.924  66.628  1.00  0.00    -0.125 A  
HETATM   22  C   UNL     1      -9.452  10.742  66.320  1.00  0.00    -0.213 A  
HETATM   23  C   UNL     1      -9.824  11.217  65.024  1.00  0.00    -0.266 A  
BRANCH  23  24
HETATM   24  O   UNL     1      -9.224  10.985  63.814  1.00  0.00    -0.206 OA 
HETATM   25  C   UNL     1      -7.971  10.368  63.626  1.00  0.00    -0.092 C  
ENDBRANCH  23  24
ENDBRANCH   2   3
TORSDOF 2
ENDMDL
MODEL       86
REMARK 921   NORMALIZED FREE ENERGY PREDICTED BY IDOCK:   -4.26 KCAL/MOL
REMARK 922        TOTAL FREE ENERGY PREDICTED BY IDOCK:   -4.88 KCAL/MOL
REMARK 923 INTER-LIGAND FREE ENERGY PREDICTED BY IDOCK:   -4.93 KCAL/MOL
REMARK 924 INTRA-LIGAND FREE ENERGY PREDICTED BY IDOCK:    0.05 KCAL/MOL
REMARK 927      BINDING AFFINITY PREDICTED BY RF-SCORE:    0.00 PKD
ROOT
HETATM    1  C   UNL     1     -12.565  13.392  70.711  1.00  0.00    -0.294 C  
HETATM    2  O   UNL     1     -12.193  13.587  69.351  1.00  0.00    -0.307 OA 
ENDROOT
BRANCH   2   3
HETATM    3  C   UNL     1     -11.427  12.605  68.765  1.00  0.00    -0.306 A  
HETATM    4  C   UNL     1     -10.804  11.596  69.491  1.00  0.00    -0.087 A  
HETATM    5  C   UNL     1     -10.092  10.603  68.830  1.00  0.00    -0.203 A  
HETATM    6  C   UNL     1      -9.990  10.599  67.436  1.00  0.00    -0.213 A  
HETATM    7  C   UNL     1      -9.287   9.559  66.821  1.00  0.00    -0.196 A  
HETATM    8  C   UNL     1      -9.161   9.512  65.433  1.00  0.00    -0.247 A  
HETATM    9  C   UNL     1      -8.499   8.430  64.681  1.00  0.00    -0.094 A  
HETATM   10  C   UNL     1      -8.426   7.112  65.166  1.00  0.00    -0.023 A  
HETATM   11  C   UNL     1      -7.853   6.143  64.364  1.00  0.00    -0.114 A  
HETATM   12  C   UNL     1      -7.322   6.434  63.133  1.00  0.00    -0.065 A  
HETATM   13  C   UNL     1      -7.340   7.711  62.622  1.00  0.00    -0.094 A  
HETATM   14  O   UNL     1      -6.838   5.335  62.501  1.00  0.00    -0.025 OA 
HETATM   15  C   UNL     1      -7.210   4.299  63.435  1.00  0.00    -0.049 C  
HETATM   16  C   UNL     1      -7.963   8.704  63.389  1.00  0.00    -0.160 A  
HETATM   17  C   UNL     1      -8.130  10.093  62.841  1.00  0.00    -0.149 C  
HETATM   18  O   UNL     1      -7.773   4.819  64.660  1.00  0.00    -0.075 OA 
HETATM   19  C   UNL     1      -9.529  10.554  63.216  1.00  0.00    -0.325 C  
HETATM   20  N   UNL     1      -9.686  10.526  64.698  1.00  0.00    -0.281 NA 
HETATM   21  C   UNL     1     -10.398  11.520  65.279  1.00  0.00    -0.272 A  
HETATM   22  C   UNL     1     -10.599  11.619  66.665  1.00  0.00    -0.281 A  
HETATM   23  C   UNL     1     -11.341  12.633  67.348  1.00  0.00    -0.313 A  
BRANCH  23  24
HETATM   24  O   UNL     1     -12.018  13.706  66.829  1.00  0.00    -0.383 OA 
HETATM   25  C   UNL     1     -12.860  13.675  65.699  1.00  0.00    -0.371 C  
ENDBRANCH  23  24
ENDBRANCH   2   3
TORSDOF 2
ENDMDL
MODEL       87
REMARK 921   NORMALIZED FREE ENERGY PREDICTED BY IDOCK:   -4.13 KCAL/MOL
REMARK 922        TOTAL FREE ENERGY PREDICTED BY IDOCK:   -4.73 KCAL/MOL
REMARK 923 INTER-LIGAND FREE ENERGY PREDICTED BY IDOCK:   -4.84 KCAL/MOL
REMARK 924 INTRA-LIGAND FREE ENERGY PREDICTED BY IDOCK:    0.11 KCAL/MOL
REMARK 927      BINDING AFFINITY PREDICTED BY RF-SCORE:    0.00 PKD
ROOT
HETATM    1  C   UNL     1     -10.959  14.517  66.584  1.00  0.00    -0.321 C  
HETATM    2  O   UNL     1     -10.929  13.528  67.607  1.00  0.00    -0.255 OA 
ENDROOT
BRANCH   2   3
HETATM    3  C   UNL     1     -10.668  12.234  67.219  1.00  0.00    -0.231 A  
HETATM    4  C   UNL     1     -10.368  11.883  65.907  1.00  0.00    -0.277 A  
HETATM    5  C   UNL     1     -10.060  10.565  65.594  1.00  0.00    -0.333 A  
HETATM    6  C   UNL     1     -10.044   9.577  66.583  1.00  0.00    -0.321 A  
HETATM    7  C   UNL     1      -9.697   8.273  66.217  1.00  0.00    -0.253 A  
HETATM    8  C   UNL     1      -9.666   7.254  67.170  1.00  0.00    -0.168 A  
HETATM    9  C   UNL     1      -9.253   5.864  66.906  1.00  0.00    -0.128 A  
HETATM   10  C   UNL     1      -8.344   5.528  65.886  1.00  0.00    -0.125 A  
HETATM   11  C   UNL     1      -7.954   4.210  65.755  1.00  0.00    -0.094 A  
HETATM   12  C   UNL     1      -8.453   3.217  66.560  1.00  0.00    -0.107 A  
HETATM   13  C   UNL     1      -9.365   3.483  67.553  1.00  0.00    -0.249 A  
HETATM   14  O   UNL     1      -7.916   2.002  66.282  1.00  0.00    -0.074 OA 
HETATM   15  C   UNL     1      -6.949   2.357  65.271  1.00  0.00    -0.051 C  
HETATM   16  C   UNL     1      -9.738   4.819  67.746  1.00  0.00    -0.202 A  
HETATM   17  C   UNL     1     -10.635   5.201  68.891  1.00  0.00    -0.047 C  
HETATM   18  O   UNL     1      -7.035   3.743  64.870  1.00  0.00    -0.051 OA 
HETATM   19  C   UNL     1     -10.074   6.480  69.488  1.00  0.00    -0.176 C  
HETATM   20  N   UNL     1     -10.035   7.545  68.444  1.00  0.00    -0.165 NA 
HETATM   21  C   UNL     1     -10.339   8.810  68.816  1.00  0.00    -0.213 A  
HETATM   22  C   UNL     1     -10.359   9.895  67.926  1.00  0.00    -0.256 A  
HETATM   23  C   UNL     1     -10.665  11.255  68.247  1.00  0.00    -0.194 A  
BRANCH  23  24
HETATM   24  O   UNL     1     -10.989  11.805  69.459  1.00  0.00    -0.181 OA 
HETATM   25  C   UNL     1     -11.796  11.200  70.444  1.00  0.00    -0.369 C  
ENDBRANCH  23  24
ENDBRANCH   2   3
TORSDOF 2
ENDMDL
MODEL       88
REMARK 921   NORMALIZED FREE ENERGY PREDICTED BY IDOCK:   -4.10 KCAL/MOL
REMARK 922        TOTAL FREE ENERGY PREDICTED BY IDOCK:   -4.70 KCAL/MOL
REMARK 923 INTER-LIGAND FREE ENERGY PREDICTED BY IDOCK:   -5.04 KCAL/MOL
REMARK 924 INTRA-LIGAND FREE ENERGY PREDICTED BY IDOCK:    0.34 KCAL/MOL
REMARK 927      BINDING AFFINITY PREDICTED BY RF-SCORE:    0.00 PKD
ROOT
HETATM    1  C   UNL     1     -11.835  16.153  70.412  1.00  0.00    -0.152 C  
HETATM    2  O   UNL     1     -12.268  14.846  70.772  1.00  0.00    -0.282 OA 
ENDROOT
BRANCH   2   3
HETATM    3  C   UNL     1     -11.929  13.818  69.921  1.00  0.00    -0.347 A  
HETATM    4  C   UNL     1     -11.625  14.015  68.579  1.00  0.00    -0.357 A  
HETATM    5  C   UNL     1     -11.237  12.940  67.789  1.00  0.00    -0.319 A  
HETATM    6  C   UNL     1     -11.145  11.652  68.325  1.00  0.00    -0.287 A  
HETATM    7  C   UNL     1     -10.719  10.613  67.493  1.00  0.00    -0.321 A  
HETATM    8  C   UNL     1     -10.610   9.312  67.983  1.00  0.00    -0.208 A  
HETATM    9  C   UNL     1     -10.112   8.157  67.213  1.00  0.00    -0.309 A  
HETATM   10  C   UNL     1      -9.197   8.297  66.154  1.00  0.00    -0.250 A  
HETATM   11  C   UNL     1      -8.724   7.157  65.533  1.00  0.00    -0.021 A  
HETATM   12  C   UNL     1      -9.147   5.902  65.891  1.00  0.00    -0.122 A  
HETATM   13  C   UNL     1     -10.061   5.708  66.899  1.00  0.00    -0.230 A  
HETATM   14  O   UNL     1      -8.537   4.923  65.177  1.00  0.00    -0.132 OA 
HETATM   15  C   UNL     1      -7.608   5.699  64.390  1.00  0.00    -0.083 C  
HETATM   16  C   UNL     1     -10.517   6.842  67.584  1.00  0.00    -0.290 A  
HETATM   17  C   UNL     1     -11.421   6.698  68.776  1.00  0.00    -0.060 C  
HETATM   18  O   UNL     1      -7.789   7.125  64.548  1.00  0.00    -0.114 OA 
HETATM   19  C   UNL     1     -10.936   7.686  69.824  1.00  0.00    -0.170 C  
HETATM   20  N   UNL     1     -10.979   9.068  69.268  1.00  0.00    -0.104 NA 
HETATM   21  C   UNL     1     -11.359  10.072  70.092  1.00  0.00    -0.291 A  
HETATM   22  C   UNL     1     -11.461  11.411  69.684  1.00  0.00    -0.380 A  
HETATM   23  C   UNL     1     -11.850  12.522  70.496  1.00  0.00    -0.055 A  
BRANCH  23  24
HETATM   24  O   UNL     1     -12.192  12.545  71.823  1.00  0.00     0.254 OA 
HETATM   25  C   UNL     1     -13.476  12.820  72.333  1.00  0.00    -0.409 C  
ENDBRANCH  23  24
ENDBRANCH   2   3
TORSDOF 2
ENDMDL
MODEL       89
REMARK 921   NORMALIZED FREE ENERGY PREDICTED BY IDOCK:   -4.07 KCAL/MOL
REMARK 922        TOTAL FREE ENERGY PREDICTED BY IDOCK:   -4.67 KCAL/MOL
REMARK 923 INTER-LIGAND FREE ENERGY PREDICTED BY IDOCK:   -4.64 KCAL/MOL
REMARK 924 INTRA-LIGAND FREE ENERGY PREDICTED BY IDOCK:   -0.03 KCAL/MOL
REMARK 927      BINDING AFFINITY PREDICTED BY RF-SCORE:    0.00 PKD
ROOT
HETATM    1  C   UNL     1      -9.028  10.702  63.049  1.00  0.00    -0.251 C  
HETATM    2  O   UNL     1      -8.176  10.719  64.189  1.00  0.00    -0.044 OA 
ENDROOT
BRANCH   2   3
HETATM    3  C   UNL     1      -8.483   9.851  65.213  1.00  0.00    -0.150 A  
HETATM    4  C   UNL     1      -8.206   8.490  65.160  1.00  0.00    -0.153 A  
HETATM    5  C   UNL     1      -8.493   7.680  66.252  1.00  0.00    -0.140 A  
HETATM    6  C   UNL     1      -9.059   8.214  67.413  1.00  0.00    -0.148 A  
HETATM    7  C   UNL     1      -9.298   7.359  68.493  1.00  0.00    -0.141 A  
HETATM    8  C   UNL     1      -9.859   7.847  69.673  1.00  0.00    -0.179 A  
HETATM    9  C   UNL     1     -10.093   7.049  70.890  1.00  0.00    -0.204 A  
HETATM   10  C   UNL     1      -9.310   5.927  71.217  1.00  0.00    -0.172 A  
HETATM   11  C   UNL     1      -9.549   5.280  72.414  1.00  0.00    -0.151 A  
HETATM   12  C   UNL     1     -10.545   5.673  73.271  1.00  0.00    -0.250 A  
HETATM   13  C   UNL     1     -11.359   6.745  72.989  1.00  0.00    -0.116 A  
HETATM   14  O   UNL     1     -10.588   4.922  74.400  1.00  0.00    -0.281 OA 
HETATM   15  C   UNL     1      -9.442   4.067  74.202  1.00  0.00    -0.106 C  
HETATM   16  C   UNL     1     -11.106   7.455  71.808  1.00  0.00    -0.269 A  
HETATM   17  C   UNL     1     -11.873   8.708  71.495  1.00  0.00    -0.366 C  
HETATM   18  O   UNL     1      -8.835   4.231  72.901  1.00  0.00    -0.103 OA 
HETATM   19  C   UNL     1     -10.876   9.714  70.945  1.00  0.00    -0.339 C  
HETATM   20  N   UNL     1     -10.220   9.156  69.729  1.00  0.00    -0.198 NA 
HETATM   21  C   UNL     1      -9.961  10.000  68.703  1.00  0.00    -0.165 A  
HETATM   22  C   UNL     1      -9.369   9.594  67.497  1.00  0.00    -0.149 A  
HETATM   23  C   UNL     1      -9.062  10.426  66.375  1.00  0.00    -0.157 A  
BRANCH  23  24
HETATM   24  O   UNL     1      -9.257  11.773  66.220  1.00  0.00    -0.216 OA 
HETATM   25  C   UNL     1      -8.697  12.781  67.031  1.00  0.00    -0.197 C  
ENDBRANCH  23  24
ENDBRANCH   2   3
TORSDOF 2
ENDMDL
MODEL       90
REMARK 921   NORMALIZED FREE ENERGY PREDICTED BY IDOCK:   -3.94 KCAL/MOL
REMARK 922        TOTAL FREE ENERGY PREDICTED BY IDOCK:   -4.52 KCAL/MOL
REMARK 923 INTER-LIGAND FREE ENERGY PREDICTED BY IDOCK:   -5.20 KCAL/MOL
REMARK 924 INTRA-LIGAND FREE ENERGY PREDICTED BY IDOCK:    0.67 KCAL/MOL
REMARK 927      BINDING AFFINITY PREDICTED BY RF-SCORE:    0.00 PKD
ROOT
HETATM    1  C   UNL     1     -11.447  16.317  63.994  1.00  0.00     0.413 C  
HETATM    2  O   UNL     1     -10.598  16.387  65.134  1.00  0.00    -0.610 OA 
ENDROOT
BRANCH   2   3
HETATM    3  C   UNL     1     -10.859  15.510  66.162  1.00  0.00    -0.295 A  
HETATM    4  C   UNL     1     -11.435  15.903  67.365  1.00  0.00     0.050 A  
HETATM    5  C   UNL     1     -11.722  14.956  68.340  1.00  0.00    -0.336 A  
HETATM    6  C   UNL     1     -11.439  13.603  68.132  1.00  0.00    -0.348 A  
HETATM    7  C   UNL     1     -11.777  12.689  69.134  1.00  0.00    -0.375 A  
HETATM    8  C   UNL     1     -11.516  11.329  68.971  1.00  0.00    -0.302 A  
HETATM    9  C   UNL     1     -11.888  10.275  69.933  1.00  0.00    -0.267 A  
HETATM   10  C   UNL     1     -12.987  10.402  70.801  1.00  0.00    -0.422 A  
HETATM   11  C   UNL     1     -13.310   9.337  71.619  1.00  0.00    -0.394 A  
HETATM   12  C   UNL     1     -12.573   8.181  71.639  1.00  0.00    -0.320 A  
HETATM   13  C   UNL     1     -11.471   8.013  70.833  1.00  0.00    -0.291 A  
HETATM   14  O   UNL     1     -13.079   7.253  72.490  1.00  0.00     0.200 OA 
HETATM   15  C   UNL     1     -14.279   7.921  72.937  1.00  0.00     0.617 C  
HETATM   16  C   UNL     1     -11.151   9.055  69.952  1.00  0.00    -0.155 A  
HETATM   17  C   UNL     1     -10.037   8.893  68.957  1.00  0.00    -0.205 C  
HETATM   18  O   UNL     1     -14.380   9.281  72.456  1.00  0.00    -0.469 OA 
HETATM   19  C   UNL     1     -10.523   9.486  67.645  1.00  0.00    -0.263 C  
HETATM   20  N   UNL     1     -10.877  10.920  67.844  1.00  0.00    -0.226 NA 
HETATM   21  C   UNL     1     -10.577  11.791  66.852  1.00  0.00    -0.235 A  
HETATM   22  C   UNL     1     -10.838  13.168  66.926  1.00  0.00    -0.278 A  
HETATM   23  C   UNL     1     -10.555  14.145  65.920  1.00  0.00    -0.298 A  
BRANCH  23  24
HETATM   24  O   UNL     1      -9.991  13.972  64.683  1.00  0.00    -0.260 OA 
HETATM   25  C   UNL     1     -10.050  12.793  63.913  1.00  0.00    -0.128 C  
ENDBRANCH  23  24
ENDBRANCH   2   3
TORSDOF 2
ENDMDL
MODEL       91
REMARK 921   NORMALIZED FREE ENERGY PREDICTED BY IDOCK:   -3.82 KCAL/MOL
REMARK 922        TOTAL FREE ENERGY PREDICTED BY IDOCK:   -4.39 KCAL/MOL
REMARK 923 INTER-LIGAND FREE ENERGY PREDICTED BY IDOCK:   -4.27 KCAL/MOL
REMARK 924 INTRA-LIGAND FREE ENERGY PREDICTED BY IDOCK:   -0.12 KCAL/MOL
REMARK 927      BINDING AFFINITY PREDICTED BY RF-SCORE:    0.00 PKD
ROOT
HETATM    1  C   UNL     1      -6.144  21.228  67.412  1.00  0.00    -0.363 C  
HETATM    2  O   UNL     1      -7.046  20.493  68.232  1.00  0.00    -0.237 OA 
ENDROOT
BRANCH   2   3
HETATM    3  C   UNL     1      -6.810  19.144  68.368  1.00  0.00    -0.265 A  
HETATM    4  C   UNL     1      -5.596  18.629  68.809  1.00  0.00    -0.195 A  
HETATM    5  C   UNL     1      -5.443  17.258  68.978  1.00  0.00    -0.155 A  
HETATM    6  C   UNL     1      -6.497  16.380  68.709  1.00  0.00    -0.142 A  
HETATM    7  C   UNL     1      -6.298  15.013  68.925  1.00  0.00    -0.090 A  
HETATM    8  C   UNL     1      -7.321  14.099  68.673  1.00  0.00    -0.126 A  
HETATM    9  C   UNL     1      -7.240  12.649  68.926  1.00  0.00    -0.045 A  
HETATM   10  C   UNL     1      -6.410  12.104  69.923  1.00  0.00    -0.074 A  
HETATM   11  C   UNL     1      -6.450  10.741  70.144  1.00  0.00    -0.155 A  
HETATM   12  C   UNL     1      -7.240   9.903  69.399  1.00  0.00    -0.083 A  
HETATM   13  C   UNL     1      -8.049  10.377  68.393  1.00  0.00    -0.112 A  
HETATM   14  O   UNL     1      -7.151   8.609  69.800  1.00  0.00    -0.049 OA 
HETATM   15  C   UNL     1      -6.284   8.739  70.947  1.00  0.00    -0.043 C  
HETATM   16  C   UNL     1      -8.071  11.762  68.182  1.00  0.00    -0.150 A  
HETATM   17  C   UNL     1      -9.022  12.364  67.186  1.00  0.00    -0.195 C  
HETATM   18  O   UNL     1      -5.765  10.078  71.112  1.00  0.00    -0.078 OA 
HETATM   19  C   UNL     1      -9.597  13.618  67.820  1.00  0.00    -0.224 C  
HETATM   20  N   UNL     1      -8.492  14.559  68.161  1.00  0.00    -0.149 NA 
HETATM   21  C   UNL     1      -8.708  15.883  67.981  1.00  0.00    -0.169 A  
HETATM   22  C   UNL     1      -7.743  16.868  68.243  1.00  0.00    -0.205 A  
HETATM   23  C   UNL     1      -7.899  18.280  68.082  1.00  0.00    -0.288 A  
BRANCH  23  24
HETATM   24  O   UNL     1      -8.996  18.985  67.659  1.00  0.00    -0.284 OA 
HETATM   25  C   UNL     1     -10.212  19.106  68.361  1.00  0.00    -0.389 C  
ENDBRANCH  23  24
ENDBRANCH   2   3
TORSDOF 2
ENDMDL
MODEL       92
REMARK 921   NORMALIZED FREE ENERGY PREDICTED BY IDOCK:   -3.76 KCAL/MOL
REMARK 922        TOTAL FREE ENERGY PREDICTED BY IDOCK:   -4.32 KCAL/MOL
REMARK 923 INTER-LIGAND FREE ENERGY PREDICTED BY IDOCK:   -4.22 KCAL/MOL
REMARK 924 INTRA-LIGAND FREE ENERGY PREDICTED BY IDOCK:   -0.10 KCAL/MOL
REMARK 927      BINDING AFFINITY PREDICTED BY RF-SCORE:    0.00 PKD
ROOT
HETATM    1  C   UNL     1      -9.579  13.462  67.144  1.00  0.00    -0.241 C  
HETATM    2  O   UNL     1      -8.808  12.364  66.670  1.00  0.00    -0.208 OA 
ENDROOT
BRANCH   2   3
HETATM    3  C   UNL     1      -8.756  11.245  67.469  1.00  0.00    -0.138 A  
HETATM    4  C   UNL     1      -8.276  11.267  68.773  1.00  0.00    -0.122 A  
HETATM    5  C   UNL     1      -8.304  10.111  69.544  1.00  0.00    -0.178 A  
HETATM    6  C   UNL     1      -8.811   8.916  69.027  1.00  0.00    -0.136 A  
HETATM    7  C   UNL     1      -8.844   7.791  69.857  1.00  0.00    -0.142 A  
HETATM    8  C   UNL     1      -9.343   6.577  69.385  1.00  0.00    -0.143 A  
HETATM    9  C   UNL     1      -9.481   5.351  70.192  1.00  0.00    -0.213 A  
HETATM   10  C   UNL     1      -9.671   5.383  71.585  1.00  0.00    -0.204 A  
HETATM   11  C   UNL     1      -9.866   4.190  72.254  1.00  0.00    -0.165 A  
HETATM   12  C   UNL     1      -9.843   2.980  71.610  1.00  0.00    -0.143 A  
HETATM   13  C   UNL     1      -9.633   2.886  70.255  1.00  0.00    -0.141 A  
HETATM   14  O   UNL     1     -10.086   1.939  72.447  1.00  0.00    -0.128 OA 
HETATM   15  C   UNL     1     -10.360   2.640  73.679  1.00  0.00    -0.127 C  
HETATM   16  C   UNL     1      -9.487   4.083  69.540  1.00  0.00    -0.257 A  
HETATM   17  C   UNL     1      -9.377   4.065  68.042  1.00  0.00    -0.220 C  
HETATM   18  O   UNL     1     -10.132   4.064  73.581  1.00  0.00    -0.118 OA 
HETATM   19  C   UNL     1     -10.230   5.209  67.520  1.00  0.00    -0.156 C  
HETATM   20  N   UNL     1      -9.742   6.497  68.089  1.00  0.00    -0.125 NA 
HETATM   21  C   UNL     1      -9.748   7.588  67.288  1.00  0.00    -0.167 A  
HETATM   22  C   UNL     1      -9.295   8.852  67.697  1.00  0.00    -0.156 A  
HETATM   23  C   UNL     1      -9.275  10.046  66.911  1.00  0.00    -0.147 A  
BRANCH  23  24
HETATM   24  O   UNL     1      -9.690  10.237  65.619  1.00  0.00    -0.211 OA 
HETATM   25  C   UNL     1      -9.156   9.595  64.484  1.00  0.00    -0.236 C  
ENDBRANCH  23  24
ENDBRANCH   2   3
TORSDOF 2
ENDMDL
MODEL       93
REMARK 921   NORMALIZED FREE ENERGY PREDICTED BY IDOCK:   -3.66 KCAL/MOL
REMARK 922        TOTAL FREE ENERGY PREDICTED BY IDOCK:   -4.21 KCAL/MOL
REMARK 923 INTER-LIGAND FREE ENERGY PREDICTED BY IDOCK:   -4.22 KCAL/MOL
REMARK 924 INTRA-LIGAND FREE ENERGY PREDICTED BY IDOCK:    0.01 KCAL/MOL
REMARK 927      BINDING AFFINITY PREDICTED BY RF-SCORE:    0.00 PKD
ROOT
HETATM    1  C   UNL     1      -6.418   2.253  63.211  1.00  0.00    -0.014 C  
HETATM    2  O   UNL     1      -7.450   3.135  62.785  1.00  0.00    -0.051 OA 
ENDROOT
BRANCH   2   3
HETATM    3  C   UNL     1      -8.193   3.750  63.767  1.00  0.00    -0.090 A  
HETATM    4  C   UNL     1      -9.294   3.152  64.368  1.00  0.00    -0.141 A  
HETATM    5  C   UNL     1      -9.967   3.806  65.393  1.00  0.00    -0.086 A  
HETATM    6  C   UNL     1      -9.552   5.066  65.834  1.00  0.00    -0.176 A  
HETATM    7  C   UNL     1     -10.246   5.666  66.889  1.00  0.00    -0.272 A  
HETATM    8  C   UNL     1      -9.867   6.921  67.364  1.00  0.00    -0.144 A  
HETATM    9  C   UNL     1     -10.487   7.613  68.509  1.00  0.00    -0.206 A  
HETATM   10  C   UNL     1     -11.099   6.918  69.568  1.00  0.00    -0.270 A  
HETATM   11  C   UNL     1     -11.590   7.642  70.637  1.00  0.00    -0.232 A  
HETATM   12  C   UNL     1     -11.532   9.011  70.681  1.00  0.00    -0.248 A  
HETATM   13  C   UNL     1     -10.971   9.743  69.661  1.00  0.00    -0.269 A  
HETATM   14  O   UNL     1     -12.042   9.518  71.832  1.00  0.00    -0.371 OA 
HETATM   15  C   UNL     1     -12.343   8.305  72.554  1.00  0.00    -0.276 C  
HETATM   16  C   UNL     1     -10.416   9.035  68.588  1.00  0.00    -0.229 A  
HETATM   17  C   UNL     1      -9.678   9.761  67.499  1.00  0.00    -0.192 C  
HETATM   18  O   UNL     1     -12.141   7.113  71.761  1.00  0.00    -0.298 OA 
HETATM   19  C   UNL     1      -8.442   8.939  67.175  1.00  0.00    -0.106 C  
HETATM   20  N   UNL     1      -8.848   7.571  66.744  1.00  0.00    -0.134 NA 
HETATM   21  C   UNL     1      -8.147   6.986  65.745  1.00  0.00    -0.123 A  
HETATM   22  C   UNL     1      -8.444   5.712  65.234  1.00  0.00    -0.147 A  
HETATM   23  C   UNL     1      -7.748   5.030  64.187  1.00  0.00    -0.082 A  
BRANCH  23  24
HETATM   24  O   UNL     1      -6.656   5.439  63.466  1.00  0.00    -0.025 OA 
HETATM   25  C   UNL     1      -6.657   6.442  62.476  1.00  0.00    -0.034 C  
ENDBRANCH  23  24
ENDBRANCH   2   3
TORSDOF 2
ENDMDL
MODEL       94
REMARK 921   NORMALIZED FREE ENERGY PREDICTED BY IDOCK:   -3.63 KCAL/MOL
REMARK 922        TOTAL FREE ENERGY PREDICTED BY IDOCK:   -4.18 KCAL/MOL
REMARK 923 INTER-LIGAND FREE ENERGY PREDICTED BY IDOCK:   -4.05 KCAL/MOL
REMARK 924 INTRA-LIGAND FREE ENERGY PREDICTED BY IDOCK:   -0.13 KCAL/MOL
REMARK 927      BINDING AFFINITY PREDICTED BY RF-SCORE:    0.00 PKD
ROOT
HETATM    1  C   UNL     1      -7.737  18.051  68.239  1.00  0.00    -0.282 C  
HETATM    2  O   UNL     1      -8.406  16.991  68.913  1.00  0.00    -0.252 OA 
ENDROOT
BRANCH   2   3
HETATM    3  C   UNL     1      -8.176  15.714  68.454  1.00  0.00    -0.146 A  
HETATM    4  C   UNL     1      -6.980  15.327  67.860  1.00  0.00    -0.162 A  
HETATM    5  C   UNL     1      -6.793  14.006  67.470  1.00  0.00    -0.150 A  
HETATM    6  C   UNL     1      -7.794  13.051  67.666  1.00  0.00    -0.166 A  
HETATM    7  C   UNL     1      -7.542  11.731  67.283  1.00  0.00    -0.150 A  
HETATM    8  C   UNL     1      -8.510  10.743  67.462  1.00  0.00    -0.119 A  
HETATM    9  C   UNL     1      -8.325   9.313  67.153  1.00  0.00    -0.124 A  
HETATM   10  C   UNL     1      -7.063   8.692  67.189  1.00  0.00    -0.075 A  
HETATM   11  C   UNL     1      -6.989   7.332  66.959  1.00  0.00    -0.081 A  
HETATM   12  C   UNL     1      -8.097   6.580  66.661  1.00  0.00    -0.110 A  
HETATM   13  C   UNL     1      -9.350   7.140  66.584  1.00  0.00    -0.207 A  
HETATM   14  O   UNL     1      -7.806   5.264  66.502  1.00  0.00    -0.098 OA 
HETATM   15  C   UNL     1      -6.400   5.255  66.828  1.00  0.00    -0.040 C  
HETATM   16  C   UNL     1      -9.465   8.507  66.866  1.00  0.00    -0.237 A  
HETATM   17  C   UNL     1     -10.817   9.161  66.922  1.00  0.00    -0.014 C  
HETATM   18  O   UNL     1      -5.859   6.580  67.030  1.00  0.00    -0.016 OA 
HETATM   19  C   UNL     1     -10.810  10.097  68.119  1.00  0.00    -0.262 C  
HETATM   20  N   UNL     1      -9.721  11.102  67.962  1.00  0.00    -0.171 NA 
HETATM   21  C   UNL     1      -9.964  12.370  68.369  1.00  0.00    -0.210 A  
HETATM   22  C   UNL     1      -9.031  13.412  68.255  1.00  0.00    -0.176 A  
HETATM   23  C   UNL     1      -9.215  14.770  68.665  1.00  0.00    -0.194 A  
BRANCH  23  24
HETATM   24  O   UNL     1     -10.304  15.353  69.257  1.00  0.00    -0.225 OA 
HETATM   25  C   UNL     1     -11.537  15.616  68.627  1.00  0.00    -0.382 C  
ENDBRANCH  23  24
ENDBRANCH   2   3
TORSDOF 2
ENDMDL
MODEL       95
REMARK 921   NORMALIZED FREE ENERGY PREDICTED BY IDOCK:   -3.63 KCAL/MOL
REMARK 922        TOTAL FREE ENERGY PREDICTED BY IDOCK:   -4.17 KCAL/MOL
REMARK 923 INTER-LIGAND FREE ENERGY PREDICTED BY IDOCK:   -4.08 KCAL/MOL
REMARK 924 INTRA-LIGAND FREE ENERGY PREDICTED BY IDOCK:   -0.09 KCAL/MOL
REMARK 927      BINDING AFFINITY PREDICTED BY RF-SCORE:    0.00 PKD
ROOT
HETATM    1  C   UNL     1      -9.278  10.991  62.607  1.00  0.00    -0.333 C  
HETATM    2  O   UNL     1      -8.137  10.371  63.191  1.00  0.00    -0.156 OA 
ENDROOT
BRANCH   2   3
HETATM    3  C   UNL     1      -8.308   9.779  64.422  1.00  0.00    -0.168 A  
HETATM    4  C   UNL     1      -8.496  10.506  65.591  1.00  0.00    -0.179 A  
HETATM    5  C   UNL     1      -8.719   9.844  66.793  1.00  0.00    -0.137 A  
HETATM    6  C   UNL     1      -8.757   8.448  66.846  1.00  0.00    -0.137 A  
HETATM    7  C   UNL     1      -9.016   7.834  68.076  1.00  0.00    -0.126 A  
HETATM    8  C   UNL     1      -9.066   6.444  68.177  1.00  0.00    -0.113 A  
HETATM    9  C   UNL     1      -9.392   5.698  69.407  1.00  0.00    -0.156 A  
HETATM   10  C   UNL     1     -10.209   6.235  70.418  1.00  0.00    -0.248 A  
HETATM   11  C   UNL     1     -10.526   5.440  71.503  1.00  0.00    -0.223 A  
HETATM   12  C   UNL     1     -10.040   4.166  71.642  1.00  0.00    -0.128 A  
HETATM   13  C   UNL     1      -9.214   3.601  70.698  1.00  0.00    -0.204 A  
HETATM   14  O   UNL     1     -10.497   3.552  72.762  1.00  0.00    -0.165 OA 
HETATM   15  C   UNL     1     -11.406   4.553  73.269  1.00  0.00    -0.270 C  
HETATM   16  C   UNL     1      -8.919   4.363  69.560  1.00  0.00    -0.148 A  
HETATM   17  C   UNL     1      -8.126   3.767  68.432  1.00  0.00    -0.079 C  
HETATM   18  O   UNL     1     -11.357   5.789  72.521  1.00  0.00    -0.282 OA 
HETATM   19  C   UNL     1      -8.787   4.212  67.139  1.00  0.00    -0.116 C  
HETATM   20  N   UNL     1      -8.803   5.701  67.071  1.00  0.00    -0.112 NA 
HETATM   21  C   UNL     1      -8.587   6.284  65.869  1.00  0.00    -0.148 A  
HETATM   22  C   UNL     1      -8.555   7.674  65.677  1.00  0.00    -0.142 A  
HETATM   23  C   UNL     1      -8.337   8.360  64.441  1.00  0.00    -0.097 A  
BRANCH  23  24
HETATM   24  O   UNL     1      -8.127   7.840  63.191  1.00  0.00    -0.143 OA 
HETATM   25  C   UNL     1      -6.936   7.233  62.745  1.00  0.00    -0.069 C  
ENDBRANCH  23  24
ENDBRANCH   2   3
TORSDOF 2
ENDMDL
MODEL       96
REMARK 921   NORMALIZED FREE ENERGY PREDICTED BY IDOCK:   -3.56 KCAL/MOL
REMARK 922        TOTAL FREE ENERGY PREDICTED BY IDOCK:   -4.10 KCAL/MOL
REMARK 923 INTER-LIGAND FREE ENERGY PREDICTED BY IDOCK:   -3.99 KCAL/MOL
REMARK 924 INTRA-LIGAND FREE ENERGY PREDICTED BY IDOCK:   -0.10 KCAL/MOL
REMARK 927      BINDING AFFINITY PREDICTED BY RF-SCORE:    0.00 PKD
ROOT
HETATM    1  C   UNL     1      -9.267   2.644  69.158  1.00  0.00    -0.142 C  
HETATM    2  O   UNL     1      -8.471   3.442  68.287  1.00  0.00    -0.080 OA 
ENDROOT
BRANCH   2   3
HETATM    3  C   UNL     1      -8.610   4.807  68.387  1.00  0.00    -0.097 A  
HETATM    4  C   UNL     1      -8.416   5.502  69.575  1.00  0.00    -0.105 A  
HETATM    5  C   UNL     1      -8.518   6.888  69.594  1.00  0.00    -0.133 A  
HETATM    6  C   UNL     1      -8.814   7.602  68.429  1.00  0.00    -0.130 A  
HETATM    7  C   UNL     1      -8.874   8.997  68.498  1.00  0.00    -0.134 A  
HETATM    8  C   UNL     1      -9.165   9.751  67.362  1.00  0.00    -0.134 A  
HETATM    9  C   UNL     1      -9.190  11.224  67.309  1.00  0.00    -0.170 A  
HETATM   10  C   UNL     1      -8.413  12.022  68.169  1.00  0.00    -0.171 A  
HETATM   11  C   UNL     1      -8.439  13.393  68.003  1.00  0.00    -0.173 A  
HETATM   12  C   UNL     1      -9.225  13.999  67.056  1.00  0.00    -0.254 A  
HETATM   13  C   UNL     1     -10.025  13.271  66.208  1.00  0.00    -0.291 A  
HETATM   14  O   UNL     1      -9.078  15.348  67.043  1.00  0.00    -0.204 OA 
HETATM   15  C   UNL     1      -8.037  15.518  68.029  1.00  0.00    -0.136 C  
HETATM   16  C   UNL     1      -9.978  11.875  66.316  1.00  0.00    -0.245 A  
HETATM   17  C   UNL     1     -10.730  11.012  65.343  1.00  0.00    -0.222 C  
HETATM   18  O   UNL     1      -7.694  14.287  68.705  1.00  0.00    -0.126 OA 
HETATM   19  C   UNL     1      -9.816   9.856  64.973  1.00  0.00    -0.252 C  
HETATM   20  N   UNL     1      -9.443   9.100  66.203  1.00  0.00    -0.225 NA 
HETATM   21  C   UNL     1      -9.354   7.752  66.116  1.00  0.00    -0.100 A  
HETATM   22  C   UNL     1      -9.034   6.926  67.204  1.00  0.00    -0.121 A  
HETATM   23  C   UNL     1      -8.917   5.500  67.187  1.00  0.00    -0.112 A  
BRANCH  23  24
HETATM   24  O   UNL     1      -9.073   4.633  66.137  1.00  0.00    -0.120 OA 
HETATM   25  C   UNL     1      -8.277   4.603  64.974  1.00  0.00    -0.115 C  
ENDBRANCH  23  24
ENDBRANCH   2   3
TORSDOF 2
ENDMDL
MODEL       97
REMARK 921   NORMALIZED FREE ENERGY PREDICTED BY IDOCK:   -3.55 KCAL/MOL
REMARK 922        TOTAL FREE ENERGY PREDICTED BY IDOCK:   -4.09 KCAL/MOL
REMARK 923 INTER-LIGAND FREE ENERGY PREDICTED BY IDOCK:   -3.98 KCAL/MOL
REMARK 924 INTRA-LIGAND FREE ENERGY PREDICTED BY IDOCK:   -0.11 KCAL/MOL
REMARK 927      BINDING AFFINITY PREDICTED BY RF-SCORE:    0.00 PKD
ROOT
HETATM    1  C   UNL     1      -8.509  17.680  67.553  1.00  0.00    -0.219 C  
HETATM    2  O   UNL     1      -8.613  16.547  66.697  1.00  0.00    -0.203 OA 
ENDROOT
BRANCH   2   3
HETATM    3  C   UNL     1      -8.276  15.325  67.233  1.00  0.00    -0.204 A  
HETATM    4  C   UNL     1      -6.981  14.998  67.617  1.00  0.00    -0.205 A  
HETATM    5  C   UNL     1      -6.720  13.766  68.203  1.00  0.00    -0.124 A  
HETATM    6  C   UNL     1      -7.746  12.841  68.416  1.00  0.00    -0.132 A  
HETATM    7  C   UNL     1      -7.433  11.628  69.038  1.00  0.00    -0.051 A  
HETATM    8  C   UNL     1      -8.423  10.675  69.273  1.00  0.00    -0.091 A  
HETATM    9  C   UNL     1      -8.215   9.396  69.976  1.00  0.00    -0.171 A  
HETATM   10  C   UNL     1      -7.213   9.225  70.948  1.00  0.00    -0.113 A  
HETATM   11  C   UNL     1      -7.135   8.016  71.612  1.00  0.00    -0.072 A  
HETATM   12  C   UNL     1      -7.975   6.970  71.326  1.00  0.00    -0.103 A  
HETATM   13  C   UNL     1      -8.953   7.071  70.365  1.00  0.00    -0.155 A  
HETATM   14  O   UNL     1      -7.747   5.889  72.113  1.00  0.00    -0.099 OA 
HETATM   15  C   UNL     1      -6.727   6.404  72.995  1.00  0.00    -0.073 C  
HETATM   16  C   UNL     1      -9.093   8.304  69.713  1.00  0.00    -0.147 A  
HETATM   17  C   UNL     1     -10.217   8.526  68.742  1.00  0.00    -0.217 C  
HETATM   18  O   UNL     1      -6.273   7.724  72.621  1.00  0.00    -0.056 OA 
HETATM   19  C   UNL     1     -10.767   9.917  69.008  1.00  0.00    -0.222 C  
HETATM   20  N   UNL     1      -9.684  10.926  68.834  1.00  0.00    -0.197 NA 
HETATM   21  C   UNL     1     -10.006  12.111  68.263  1.00  0.00    -0.212 A  
HETATM   22  C   UNL     1      -9.075  13.133  68.023  1.00  0.00    -0.207 A  
HETATM   23  C   UNL     1      -9.341  14.407  67.431  1.00  0.00    -0.199 A  
BRANCH  23  24
HETATM   24  O   UNL     1     -10.530  14.919  66.982  1.00  0.00    -0.265 OA 
HETATM   25  C   UNL     1     -11.535  15.486  67.790  1.00  0.00    -0.243 C  
ENDBRANCH  23  24
ENDBRANCH   2   3
TORSDOF 2
ENDMDL
MODEL       98
REMARK 921   NORMALIZED FREE ENERGY PREDICTED BY IDOCK:   -3.53 KCAL/MOL
REMARK 922        TOTAL FREE ENERGY PREDICTED BY IDOCK:   -4.06 KCAL/MOL
REMARK 923 INTER-LIGAND FREE ENERGY PREDICTED BY IDOCK:   -4.11 KCAL/MOL
REMARK 924 INTRA-LIGAND FREE ENERGY PREDICTED BY IDOCK:    0.05 KCAL/MOL
REMARK 927      BINDING AFFINITY PREDICTED BY RF-SCORE:    0.00 PKD
ROOT
HETATM    1  C   UNL     1     -10.087   4.097  72.559  1.00  0.00    -0.170 C  
HETATM    2  O   UNL     1      -9.044   4.588  71.723  1.00  0.00    -0.122 OA 
ENDROOT
BRANCH   2   3
HETATM    3  C   UNL     1      -9.352   5.638  70.889  1.00  0.00    -0.160 A  
HETATM    4  C   UNL     1     -10.600   5.791  70.294  1.00  0.00    -0.369 A  
HETATM    5  C   UNL     1     -10.861   6.906  69.507  1.00  0.00    -0.287 A  
HETATM    6  C   UNL     1      -9.885   7.885  69.300  1.00  0.00    -0.177 A  
HETATM    7  C   UNL     1     -10.212   9.001  68.524  1.00  0.00    -0.224 A  
HETATM    8  C   UNL     1      -9.271  10.004  68.293  1.00  0.00    -0.129 A  
HETATM    9  C   UNL     1      -9.530  11.248  67.546  1.00  0.00    -0.177 A  
HETATM   10  C   UNL     1     -10.808  11.830  67.472  1.00  0.00    -0.286 A  
HETATM   11  C   UNL     1     -10.948  13.037  66.814  1.00  0.00    -0.276 A  
HETATM   12  C   UNL     1      -9.893  13.661  66.200  1.00  0.00    -0.293 A  
HETATM   13  C   UNL     1      -8.627  13.123  66.216  1.00  0.00     0.448 A  
HETATM   14  O   UNL     1     -10.242  14.847  65.640  1.00  0.00    -0.310 OA 
HETATM   15  C   UNL     1     -11.622  14.946  66.051  1.00  0.00    -0.226 C  
HETATM   16  C   UNL     1      -8.443  11.928  66.923  1.00  0.00    -0.174 A  
HETATM   17  C   UNL     1      -7.067  11.347  67.087  1.00  0.00    -0.134 C  
HETATM   18  O   UNL     1     -12.098  13.755  66.719  1.00  0.00    -0.411 OA 
HETATM   19  C   UNL     1      -6.958  10.860  68.522  1.00  0.00    -0.072 C  
HETATM   20  N   UNL     1      -8.017   9.845  68.789  1.00  0.00    -0.089 NA 
HETATM   21  C   UNL     1      -7.699   8.787  69.571  1.00  0.00    -0.089 A  
HETATM   22  C   UNL     1      -8.598   7.754  69.878  1.00  0.00    -0.137 A  
HETATM   23  C   UNL     1      -8.337   6.611  70.697  1.00  0.00    -0.129 A  
BRANCH  23  24
HETATM   24  O   UNL     1      -7.189   6.271  71.363  1.00  0.00    -0.076 OA 
HETATM   25  C   UNL     1      -6.379   7.154  72.105  1.00  0.00    -0.044 C  
ENDBRANCH  23  24
ENDBRANCH   2   3
TORSDOF 2
ENDMDL
MODEL       99
REMARK 921   NORMALIZED FREE ENERGY PREDICTED BY IDOCK:   -3.41 KCAL/MOL
REMARK 922        TOTAL FREE ENERGY PREDICTED BY IDOCK:   -3.92 KCAL/MOL
REMARK 923 INTER-LIGAND FREE ENERGY PREDICTED BY IDOCK:   -3.78 KCAL/MOL
REMARK 924 INTRA-LIGAND FREE ENERGY PREDICTED BY IDOCK:   -0.15 KCAL/MOL
REMARK 927      BINDING AFFINITY PREDICTED BY RF-SCORE:    0.00 PKD
ROOT
HETATM    1  C   UNL     1      -6.383   3.519  71.221  1.00  0.00    -0.018 C  
HETATM    2  O   UNL     1      -7.574   4.195  71.610  1.00  0.00    -0.061 OA 
ENDROOT
BRANCH   2   3
HETATM    3  C   UNL     1      -7.669   5.530  71.290  1.00  0.00    -0.108 A  
HETATM    4  C   UNL     1      -6.797   6.491  71.787  1.00  0.00    -0.064 A  
HETATM    5  C   UNL     1      -6.916   7.814  71.379  1.00  0.00    -0.053 A  
HETATM    6  C   UNL     1      -7.905   8.199  70.469  1.00  0.00    -0.087 A  
HETATM    7  C   UNL     1      -7.960   9.537  70.069  1.00  0.00    -0.163 A  
HETATM    8  C   UNL     1      -8.928   9.967  69.161  1.00  0.00    -0.169 A  
HETATM    9  C   UNL     1      -9.035  11.336  68.626  1.00  0.00    -0.148 A  
HETATM   10  C   UNL     1      -7.920  12.185  68.502  1.00  0.00    -0.119 A  
HETATM   11  C   UNL     1      -8.096  13.426  67.921  1.00  0.00    -0.162 A  
HETATM   12  C   UNL     1      -9.324  13.868  67.498  1.00  0.00    -0.217 A  
HETATM   13  C   UNL     1     -10.452  13.091  67.620  1.00  0.00    -0.228 A  
HETATM   14  O   UNL     1      -9.268  15.099  66.930  1.00  0.00    -0.212 OA 
HETATM   15  C   UNL     1      -7.846  15.347  66.957  1.00  0.00    -0.209 C  
HETATM   16  C   UNL     1     -10.296  11.806  68.156  1.00  0.00    -0.213 A  
HETATM   17  C   UNL     1     -11.460  10.857  68.206  1.00  0.00    -0.376 C  
HETATM   18  O   UNL     1      -7.109  14.326  67.668  1.00  0.00    -0.161 OA 
HETATM   19  C   UNL     1     -10.939   9.491  67.794  1.00  0.00    -0.100 C  
HETATM   20  N   UNL     1      -9.849   9.071  68.720  1.00  0.00    -0.167 NA 
HETATM   21  C   UNL     1      -9.784   7.766  69.073  1.00  0.00    -0.157 A  
HETATM   22  C   UNL     1      -8.821   7.249  69.954  1.00  0.00    -0.142 A  
HETATM   23  C   UNL     1      -8.688   5.886  70.368  1.00  0.00    -0.139 A  
BRANCH  23  24
HETATM   24  O   UNL     1      -9.437   4.797  70.007  1.00  0.00    -0.138 OA 
HETATM   25  C   UNL     1      -9.420   4.173  68.743  1.00  0.00    -0.163 C  
ENDBRANCH  23  24
ENDBRANCH   2   3
TORSDOF 2
ENDMDL
MODEL      100
REMARK 921   NORMALIZED FREE ENERGY PREDICTED BY IDOCK:   -3.22 KCAL/MOL
REMARK 922        TOTAL FREE ENERGY PREDICTED BY IDOCK:   -3.71 KCAL/MOL
REMARK 923 INTER-LIGAND FREE ENERGY PREDICTED BY IDOCK:   -3.65 KCAL/MOL
REMARK 924 INTRA-LIGAND FREE ENERGY PREDICTED BY IDOCK:   -0.06 KCAL/MOL
REMARK 927      BINDING AFFINITY PREDICTED BY RF-SCORE:    0.00 PKD
ROOT
HETATM    1  C   UNL     1     -11.494   5.476  72.332  1.00  0.00    -0.204 C  
HETATM    2  O   UNL     1     -10.495   5.572  71.322  1.00  0.00    -0.225 OA 
ENDROOT
BRANCH   2   3
HETATM    3  C   UNL     1     -10.015   6.829  71.034  1.00  0.00    -0.182 A  
HETATM    4  C   UNL     1      -9.104   7.496  71.845  1.00  0.00    -0.153 A  
HETATM    5  C   UNL     1      -8.617   8.741  71.465  1.00  0.00    -0.253 A  
HETATM    6  C   UNL     1      -9.031   9.340  70.272  1.00  0.00    -0.261 A  
HETATM    7  C   UNL     1      -8.486  10.580  69.924  1.00  0.00     0.230 A  
HETATM    8  C   UNL     1      -8.867  11.215  68.743  1.00  0.00    -0.125 A  
HETATM    9  C   UNL     1      -8.310  12.488  68.250  1.00  0.00    -0.167 A  
HETATM   10  C   UNL     1      -7.006  12.912  68.567  1.00  0.00    -0.098 A  
HETATM   11  C   UNL     1      -6.536  14.082  68.003  1.00  0.00    -0.147 A  
HETATM   12  C   UNL     1      -7.310  14.859  67.180  1.00  0.00    -0.025 A  
HETATM   13  C   UNL     1      -8.601  14.508  66.859  1.00  0.00    -0.207 A  
HETATM   14  O   UNL     1      -6.646  15.946  66.712  1.00  0.00    -0.254 OA 
HETATM   15  C   UNL     1      -5.330  15.717  67.260  1.00  0.00     0.145 C  
HETATM   16  C   UNL     1      -9.087  13.298  67.372  1.00  0.00    -0.216 A  
HETATM   17  C   UNL     1     -10.441  12.790  66.966  1.00  0.00    -0.245 C  
HETATM   18  O   UNL     1      -5.282  14.583  68.155  1.00  0.00    -0.108 OA 
HETATM   19  C   UNL     1     -10.303  11.296  66.725  1.00  0.00    -0.238 C  
HETATM   20  N   UNL     1      -9.819  10.632  67.968  1.00  0.00    -0.157 NA 
HETATM   21  C   UNL     1     -10.327   9.416  68.277  1.00  0.00    -0.212 A  
HETATM   22  C   UNL     1      -9.970   8.697  69.429  1.00  0.00    -0.197 A  
HETATM   23  C   UNL     1     -10.460   7.411  69.818  1.00  0.00    -0.229 A  
BRANCH  23  24
HETATM   24  O   UNL     1     -11.355   6.597  69.174  1.00  0.00    -0.264 OA 
HETATM   25  C   UNL     1     -11.082   5.824  68.027  1.00  0.00     0.141 C  
ENDBRANCH  23  24
ENDBRANCH   2   3
TORSDOF 2
ENDMDL
MODEL      101
REMARK 921   NORMALIZED FREE ENERGY PREDICTED BY IDOCK:   -3.18 KCAL/MOL
REMARK 922        TOTAL FREE ENERGY PREDICTED BY IDOCK:   -3.68 KCAL/MOL
REMARK 923 INTER-LIGAND FREE ENERGY PREDICTED BY IDOCK:   -3.66 KCAL/MOL
REMARK 924 INTRA-LIGAND FREE ENERGY PREDICTED BY IDOCK:   -0.01 KCAL/MOL
REMARK 927      BINDING AFFINITY PREDICTED BY RF-SCORE:    0.00 PKD
ROOT
HETATM    1  C   UNL     1      -8.826  10.772  62.598  1.00  0.00    -0.286 C  
HETATM    2  O   UNL     1      -7.800  10.238  63.428  1.00  0.00    -0.155 OA 
ENDROOT
BRANCH   2   3
HETATM    3  C   UNL     1      -8.153   9.220  64.284  1.00  0.00    -0.144 A  
HETATM    4  C   UNL     1      -8.198   7.886  63.895  1.00  0.00    -0.020 A  
HETATM    5  C   UNL     1      -8.509   6.901  64.825  1.00  0.00     0.100 A  
HETATM    6  C   UNL     1      -8.779   7.231  66.156  1.00  0.00    -0.170 A  
HETATM    7  C   UNL     1      -9.056   6.197  67.056  1.00  0.00    -0.119 A  
HETATM    8  C   UNL     1      -9.329   6.478  68.395  1.00  0.00    -0.122 A  
HETATM    9  C   UNL     1      -9.570   5.464  69.438  1.00  0.00    -0.203 A  
HETATM   10  C   UNL     1      -9.022   4.170  69.371  1.00  0.00    -0.161 A  
HETATM   11  C   UNL     1      -9.236   3.306  70.427  1.00  0.00    -0.148 A  
HETATM   12  C   UNL     1      -9.994   3.656  71.515  1.00  0.00    -0.111 A  
HETATM   13  C   UNL     1     -10.578   4.897  71.620  1.00  0.00    -0.143 A  
HETATM   14  O   UNL     1     -10.052   2.673  72.449  1.00  0.00    -0.155 OA 
HETATM   15  C   UNL     1      -9.163   1.694  71.868  1.00  0.00    -0.083 C  
HETATM   16  C   UNL     1     -10.333   5.814  70.590  1.00  0.00    -0.310 A  
HETATM   17  C   UNL     1     -10.834   7.227  70.695  1.00  0.00    -0.261 C  
HETATM   18  O   UNL     1      -8.716   2.055  70.542  1.00  0.00    -0.054 OA 
HETATM   19  C   UNL     1      -9.721   8.132  70.196  1.00  0.00    -0.175 C  
HETATM   20  N   UNL     1      -9.377   7.776  68.791  1.00  0.00    -0.146 NA 
HETATM   21  C   UNL     1      -9.076   8.782  67.936  1.00  0.00    -0.139 A  
HETATM   22  C   UNL     1      -8.758   8.581  66.584  1.00  0.00    -0.139 A  
HETATM   23  C   UNL     1      -8.426   9.590  65.627  1.00  0.00    -0.133 A  
BRANCH  23  24
HETATM   24  O   UNL     1      -8.333  10.946  65.799  1.00  0.00    -0.166 OA 
HETATM   25  C   UNL     1      -9.409  11.813  66.076  1.00  0.00    -0.220 C  
ENDBRANCH  23  24
ENDBRANCH   2   3
TORSDOF 2
ENDMDL
MODEL      102
REMARK 921   NORMALIZED FREE ENERGY PREDICTED BY IDOCK:   -3.18 KCAL/MOL
REMARK 922        TOTAL FREE ENERGY PREDICTED BY IDOCK:   -3.68 KCAL/MOL
REMARK 923 INTER-LIGAND FREE ENERGY PREDICTED BY IDOCK:   -3.59 KCAL/MOL
REMARK 924 INTRA-LIGAND FREE ENERGY PREDICTED BY IDOCK:   -0.08 KCAL/MOL
REMARK 927      BINDING AFFINITY PREDICTED BY RF-SCORE:    0.00 PKD
ROOT
HETATM    1  C   UNL     1     -12.671  10.993  71.388  1.00  0.00    -0.429 C  
HETATM    2  O   UNL     1     -11.376  10.883  70.807  1.00  0.00    -0.191 OA 
ENDROOT
BRANCH   2   3
HETATM    3  C   UNL     1     -11.109   9.742  70.085  1.00  0.00    -0.285 A  
HETATM    4  C   UNL     1     -11.716   8.520  70.349  1.00  0.00    -0.003 A  
HETATM    5  C   UNL     1     -11.443   7.420  69.544  1.00  0.00     0.182 A  
HETATM    6  C   UNL     1     -10.560   7.522  68.465  1.00  0.00    -0.172 A  
HETATM    7  C   UNL     1     -10.345   6.392  67.671  1.00  0.00    -0.243 A  
HETATM    8  C   UNL     1      -9.475   6.446  66.582  1.00  0.00    -0.161 A  
HETATM    9  C   UNL     1      -9.226   5.336  65.644  1.00  0.00    -0.145 A  
HETATM   10  C   UNL     1     -10.187   4.344  65.379  1.00  0.00    -0.247 A  
HETATM   11  C   UNL     1      -9.899   3.382  64.431  1.00  0.00    -0.174 A  
HETATM   12  C   UNL     1      -8.698   3.342  63.771  1.00  0.00    -0.093 A  
HETATM   13  C   UNL     1      -7.711   4.270  64.011  1.00  0.00    -0.083 A  
HETATM   14  O   UNL     1      -8.634   2.337  62.862  1.00  0.00    -0.076 OA 
HETATM   15  C   UNL     1      -9.972   1.801  62.955  1.00  0.00    -0.105 C  
HETATM   16  C   UNL     1      -7.994   5.291  64.928  1.00  0.00    -0.105 A  
HETATM   17  C   UNL     1      -7.014   6.407  65.148  1.00  0.00    -0.052 C  
HETATM   18  O   UNL     1     -10.748   2.404  64.015  1.00  0.00    -0.002 OA 
HETATM   19  C   UNL     1      -7.816   7.695  65.230  1.00  0.00    -0.122 C  
HETATM   20  N   UNL     1      -8.800   7.601  66.346  1.00  0.00    -0.149 NA 
HETATM   21  C   UNL     1      -9.027   8.711  67.087  1.00  0.00    -0.132 A  
HETATM   22  C   UNL     1      -9.911   8.747  68.176  1.00  0.00    -0.206 A  
HETATM   23  C   UNL     1     -10.204   9.879  69.000  1.00  0.00    -0.200 A  
BRANCH  23  24
HETATM   24  O   UNL     1      -9.716  11.157  68.916  1.00  0.00    -0.198 OA 
HETATM   25  C   UNL     1     -10.195  12.162  68.052  1.00  0.00    -0.201 C  
ENDBRANCH  23  24
ENDBRANCH   2   3
TORSDOF 2
ENDMDL
MODEL      103
REMARK 921   NORMALIZED FREE ENERGY PREDICTED BY IDOCK:   -3.17 KCAL/MOL
REMARK 922        TOTAL FREE ENERGY PREDICTED BY IDOCK:   -3.66 KCAL/MOL
REMARK 923 INTER-LIGAND FREE ENERGY PREDICTED BY IDOCK:   -3.92 KCAL/MOL
REMARK 924 INTRA-LIGAND FREE ENERGY PREDICTED BY IDOCK:    0.27 KCAL/MOL
REMARK 927      BINDING AFFINITY PREDICTED BY RF-SCORE:    0.00 PKD
ROOT
HETATM    1  C   UNL     1     -10.237  17.787  66.555  1.00  0.00    -0.358 C  
HETATM    2  O   UNL     1     -10.980  16.675  67.042  1.00  0.00    -0.157 OA 
ENDROOT
BRANCH   2   3
HETATM    3  C   UNL     1     -10.324  15.467  67.113  1.00  0.00    -0.272 A  
HETATM    4  C   UNL     1      -9.437  15.147  68.134  1.00  0.00    -0.201 A  
HETATM    5  C   UNL     1      -8.851  13.888  68.176  1.00  0.00    -0.184 A  
HETATM    6  C   UNL     1      -9.141  12.928  67.202  1.00  0.00    -0.220 A  
HETATM    7  C   UNL     1      -8.547  11.667  67.310  1.00  0.00    -0.154 A  
HETATM    8  C   UNL     1      -8.808  10.677  66.363  1.00  0.00    -0.154 A  
HETATM    9  C   UNL     1      -8.288   9.299  66.417  1.00  0.00    -0.120 A  
HETATM   10  C   UNL     1      -7.966   8.662  67.629  1.00  0.00    -0.107 A  
HETATM   11  C   UNL     1      -7.555   7.344  67.594  1.00  0.00    -0.106 A  
HETATM   12  C   UNL     1      -7.415   6.653  66.418  1.00  0.00    -0.085 A  
HETATM   13  C   UNL     1      -7.688   7.234  65.202  1.00  0.00    -0.113 A  
HETATM   14  O   UNL     1      -7.030   5.366  66.611  1.00  0.00    -0.062 OA 
HETATM   15  C   UNL     1      -7.035   5.295  68.053  1.00  0.00    -0.062 C  
HETATM   16  C   UNL     1      -8.159   8.553  65.208  1.00  0.00    -0.138 A  
HETATM   17  C   UNL     1      -8.594   9.211  63.930  1.00  0.00    -0.188 C  
HETATM   18  O   UNL     1      -7.279   6.574  68.680  1.00  0.00    -0.080 OA 
HETATM   19  C   UNL     1      -9.868   9.980  64.235  1.00  0.00    -0.082 C  
HETATM   20  N   UNL     1      -9.604  10.983  65.306  1.00  0.00    -0.216 NA 
HETATM   21  C   UNL     1     -10.212  12.189  65.210  1.00  0.00    -0.274 A  
HETATM   22  C   UNL     1     -10.028  13.224  66.138  1.00  0.00    -0.295 A  
HETATM   23  C   UNL     1     -10.637  14.518  66.105  1.00  0.00    -0.306 A  
BRANCH  23  24
HETATM   24  O   UNL     1     -11.524  15.032  65.195  1.00  0.00    -0.360 OA 
HETATM   25  C   UNL     1     -11.183  15.789  64.056  1.00  0.00     0.366 C  
ENDBRANCH  23  24
ENDBRANCH   2   3
TORSDOF 2
ENDMDL
MODEL      104
REMARK 921   NORMALIZED FREE ENERGY PREDICTED BY IDOCK:   -3.14 KCAL/MOL
REMARK 922        TOTAL FREE ENERGY PREDICTED BY IDOCK:   -3.62 KCAL/MOL
REMARK 923 INTER-LIGAND FREE ENERGY PREDICTED BY IDOCK:   -3.61 KCAL/MOL
REMARK 924 INTRA-LIGAND FREE ENERGY PREDICTED BY IDOCK:   -0.01 KCAL/MOL
REMARK 927      BINDING AFFINITY PREDICTED BY RF-SCORE:    0.00 PKD
ROOT
HETATM    1  C   UNL     1      -9.191  14.174  67.474  1.00  0.00    -0.192 C  
HETATM    2  O   UNL     1      -8.667  13.111  68.262  1.00  0.00    -0.176 OA 
ENDROOT
BRANCH   2   3
HETATM    3  C   UNL     1      -8.944  11.829  67.847  1.00  0.00    -0.180 A  
HETATM    4  C   UNL     1      -9.848  11.541  66.830  1.00  0.00    -0.227 A  
HETATM    5  C   UNL     1     -10.040  10.227  66.422  1.00  0.00    -0.296 A  
HETATM    6  C   UNL     1      -9.334   9.179  67.020  1.00  0.00    -0.188 A  
HETATM    7  C   UNL     1      -9.543   7.880  66.549  1.00  0.00    -0.281 A  
HETATM    8  C   UNL     1      -8.859   6.803  67.114  1.00  0.00    -0.119 A  
HETATM    9  C   UNL     1      -8.956   5.406  66.653  1.00  0.00    -0.116 A  
HETATM   10  C   UNL     1      -9.264   5.071  65.322  1.00  0.00    -0.125 A  
HETATM   11  C   UNL     1      -9.261   3.739  64.958  1.00  0.00    -0.149 A  
HETATM   12  C   UNL     1      -9.008   2.736  65.858  1.00  0.00    -0.142 A  
HETATM   13  C   UNL     1      -8.730   3.003  67.178  1.00  0.00    -0.140 A  
HETATM   14  O   UNL     1      -9.025   1.505  65.286  1.00  0.00    -0.119 OA 
HETATM   15  C   UNL     1      -9.226   1.853  63.899  1.00  0.00    -0.110 C  
HETATM   16  C   UNL     1      -8.671   4.348  67.565  1.00  0.00    -0.112 A  
HETATM   17  C   UNL     1      -8.253   4.719  68.960  1.00  0.00    -0.081 C  
HETATM   18  O   UNL     1      -9.467   3.264  63.701  1.00  0.00    -0.108 OA 
HETATM   19  C   UNL     1      -7.322   5.914  68.842  1.00  0.00    -0.084 C  
HETATM   20  N   UNL     1      -8.032   7.037  68.166  1.00  0.00    -0.117 NA 
HETATM   21  C   UNL     1      -7.795   8.295  68.606  1.00  0.00    -0.120 A  
HETATM   22  C   UNL     1      -8.417   9.433  68.069  1.00  0.00    -0.120 A  
HETATM   23  C   UNL     1      -8.214  10.788  68.479  1.00  0.00    -0.136 A  
BRANCH  23  24
HETATM   24  O   UNL     1      -7.385  11.282  69.451  1.00  0.00    -0.105 OA 
HETATM   25  C   UNL     1      -6.015  10.981  69.591  1.00  0.00    -0.070 C  
ENDBRANCH  23  24
ENDBRANCH   2   3
TORSDOF 2
ENDMDL
MODEL      105
REMARK 921   NORMALIZED FREE ENERGY PREDICTED BY IDOCK:   -3.14 KCAL/MOL
REMARK 922        TOTAL FREE ENERGY PREDICTED BY IDOCK:   -3.62 KCAL/MOL
REMARK 923 INTER-LIGAND FREE ENERGY PREDICTED BY IDOCK:   -3.50 KCAL/MOL
REMARK 924 INTRA-LIGAND FREE ENERGY PREDICTED BY IDOCK:   -0.12 KCAL/MOL
REMARK 927      BINDING AFFINITY PREDICTED BY RF-SCORE:    0.00 PKD
ROOT
HETATM    1  C   UNL     1      -9.565   3.395  67.814  1.00  0.00    -0.110 C  
HETATM    2  O   UNL     1      -8.419   4.122  67.387  1.00  0.00    -0.099 OA 
ENDROOT
BRANCH   2   3
HETATM    3  C   UNL     1      -8.577   5.474  67.180  1.00  0.00    -0.109 A  
HETATM    4  C   UNL     1      -9.418   5.998  66.205  1.00  0.00    -0.153 A  
HETATM    5  C   UNL     1      -9.573   7.374  66.088  1.00  0.00    -0.032 A  
HETATM    6  C   UNL     1      -8.892   8.248  66.940  1.00  0.00    -0.155 A  
HETATM    7  C   UNL     1      -9.109   9.622  66.797  1.00  0.00    -0.171 A  
HETATM    8  C   UNL     1      -8.454  10.532  67.626  1.00  0.00    -0.115 A  
HETATM    9  C   UNL     1      -8.657  11.993  67.604  1.00  0.00    -0.163 A  
HETATM   10  C   UNL     1      -9.868  12.578  67.191  1.00  0.00    -0.210 A  
HETATM   11  C   UNL     1     -10.000  13.951  67.272  1.00  0.00    -0.242 A  
HETATM   12  C   UNL     1      -8.979  14.759  67.703  1.00  0.00    -0.182 A  
HETATM   13  C   UNL     1      -7.765  14.243  68.091  1.00  0.00    -0.141 A  
HETATM   14  O   UNL     1      -9.329  16.070  67.734  1.00  0.00    -0.209 OA 
HETATM   15  C   UNL     1     -10.721  15.988  67.362  1.00  0.00    -0.306 C  
HETATM   16  C   UNL     1      -7.619  12.850  68.072  1.00  0.00    -0.137 A  
HETATM   17  C   UNL     1      -6.366  12.209  68.598  1.00  0.00    -0.063 C  
HETATM   18  O   UNL     1     -11.126  14.654  66.980  1.00  0.00    -0.315 OA 
HETATM   19  C   UNL     1      -6.792  10.994  69.404  1.00  0.00    -0.119 C  
HETATM   20  N   UNL     1      -7.561  10.060  68.534  1.00  0.00    -0.086 NA 
HETATM   21  C   UNL     1      -7.370   8.731  68.704  1.00  0.00    -0.080 A  
HETATM   22  C   UNL     1      -8.015   7.751  67.934  1.00  0.00    -0.125 A  
HETATM   23  C   UNL     1      -7.867   6.334  68.060  1.00  0.00    -0.104 A  
BRANCH  23  24
HETATM   24  O   UNL     1      -7.095   5.620  68.938  1.00  0.00    -0.065 OA 
HETATM   25  C   UNL     1      -5.696   5.467  68.862  1.00  0.00    -0.015 C  
ENDBRANCH  23  24
ENDBRANCH   2   3
TORSDOF 2
ENDMDL
MODEL      106
REMARK 921   NORMALIZED FREE ENERGY PREDICTED BY IDOCK:   -2.90 KCAL/MOL
REMARK 922        TOTAL FREE ENERGY PREDICTED BY IDOCK:   -3.36 KCAL/MOL
REMARK 923 INTER-LIGAND FREE ENERGY PREDICTED BY IDOCK:   -3.34 KCAL/MOL
REMARK 924 INTRA-LIGAND FREE ENERGY PREDICTED BY IDOCK:   -0.02 KCAL/MOL
REMARK 927      BINDING AFFINITY PREDICTED BY RF-SCORE:    0.00 PKD
ROOT
HETATM    1  C   UNL     1      -8.095  11.227  62.353  1.00  0.00    -0.003 C  
HETATM    2  O   UNL     1      -9.427  11.038  62.817  1.00  0.00    -0.315 OA 
ENDROOT
BRANCH   2   3
HETATM    3  C   UNL     1      -9.777  11.666  63.990  1.00  0.00    -0.202 A  
HETATM    4  C   UNL     1      -9.671  13.040  64.174  1.00  0.00     0.408 A  
HETATM    5  C   UNL     1     -10.094  13.616  65.365  1.00  0.00    -0.291 A  
HETATM    6  C   UNL     1     -10.629  12.833  66.392  1.00  0.00    -0.273 A  
HETATM    7  C   UNL     1     -11.068  13.468  67.557  1.00  0.00    -0.293 A  
HETATM    8  C   UNL     1     -11.611  12.727  68.607  1.00  0.00    -0.314 A  
HETATM    9  C   UNL     1     -12.160  13.300  69.849  1.00  0.00    -0.377 A  
HETATM   10  C   UNL     1     -12.713  14.593  69.902  1.00  0.00    -0.126 A  
HETATM   11  C   UNL     1     -13.273  15.024  71.089  1.00  0.00    -0.434 A  
HETATM   12  C   UNL     1     -13.273  14.250  72.221  1.00  0.00    -0.417 A  
HETATM   13  C   UNL     1     -12.721  12.990  72.234  1.00  0.00    -0.060 A  
HETATM   14  O   UNL     1     -13.900  14.851  73.264  1.00  0.00    -0.364 OA 
HETATM   15  C   UNL     1     -14.380  16.058  72.633  1.00  0.00     0.097 C  
HETATM   16  C   UNL     1     -12.194  12.504  71.031  1.00  0.00    -0.198 A  
HETATM   17  C   UNL     1     -11.687  11.093  70.939  1.00  0.00    -0.093 C  
HETATM   18  O   UNL     1     -13.906  16.212  71.277  1.00  0.00     0.106 OA 
HETATM   19  C   UNL     1     -12.168  10.532  69.611  1.00  0.00    -0.137 C  
HETATM   20  N   UNL     1     -11.651  11.374  68.495  1.00  0.00    -0.303 NA 
HETATM   21  C   UNL     1     -11.262  10.752  67.358  1.00  0.00    -0.241 A  
HETATM   22  C   UNL     1     -10.738  11.428  66.246  1.00  0.00    -0.322 A  
HETATM   23  C   UNL     1     -10.311  10.840  65.013  1.00  0.00    -0.287 A  
BRANCH  23  24
HETATM   24  O   UNL     1     -10.324   9.523  64.635  1.00  0.00     0.707 OA 
HETATM   25  C   UNL     1      -9.259   8.614  64.796  1.00  0.00     0.394 C  
ENDBRANCH  23  24
ENDBRANCH   2   3
TORSDOF 2
ENDMDL
MODEL      107
REMARK 921   NORMALIZED FREE ENERGY PREDICTED BY IDOCK:   -2.72 KCAL/MOL
REMARK 922        TOTAL FREE ENERGY PREDICTED BY IDOCK:   -3.16 KCAL/MOL
REMARK 923 INTER-LIGAND FREE ENERGY PREDICTED BY IDOCK:   -3.04 KCAL/MOL
REMARK 924 INTRA-LIGAND FREE ENERGY PREDICTED BY IDOCK:   -0.12 KCAL/MOL
REMARK 927      BINDING AFFINITY PREDICTED BY RF-SCORE:    0.00 PKD
ROOT
HETATM    1  C   UNL     1      -5.261  14.944  72.341  1.00  0.00    -0.043 C  
HETATM    2  O   UNL     1      -5.528  14.769  70.954  1.00  0.00    -0.135 OA 
ENDROOT
BRANCH   2   3
HETATM    3  C   UNL     1      -5.787  13.488  70.523  1.00  0.00    -0.164 A  
HETATM    4  C   UNL     1      -5.229  12.362  71.118  1.00  0.00    -0.139 A  
HETATM    5  C   UNL     1      -5.576  11.094  70.668  1.00  0.00    -0.131 A  
HETATM    6  C   UNL     1      -6.485  10.929  69.619  1.00  0.00    -0.114 A  
HETATM    7  C   UNL     1      -6.822   9.630  69.226  1.00  0.00    -0.050 A  
HETATM    8  C   UNL     1      -7.726   9.416  68.186  1.00  0.00    -0.083 A  
HETATM    9  C   UNL     1      -8.198   8.094  67.736  1.00  0.00    -0.128 A  
HETATM   10  C   UNL     1      -8.261   6.983  68.598  1.00  0.00    -0.122 A  
HETATM   11  C   UNL     1      -8.786   5.801  68.115  1.00  0.00    -0.105 A  
HETATM   12  C   UNL     1      -9.210   5.665  66.818  1.00  0.00    -0.128 A  
HETATM   13  C   UNL     1      -9.145   6.708  65.924  1.00  0.00    -0.059 A  
HETATM   14  O   UNL     1      -9.717   4.433  66.560  1.00  0.00    -0.183 OA 
HETATM   15  C   UNL     1      -9.653   3.833  67.872  1.00  0.00    -0.130 C  
HETATM   16  C   UNL     1      -8.668   7.937  66.400  1.00  0.00    -0.170 A  
HETATM   17  C   UNL     1      -8.684   9.152  65.516  1.00  0.00    -0.210 C  
HETATM   18  O   UNL     1      -8.978   4.668  68.841  1.00  0.00    -0.099 OA 
HETATM   19  C   UNL     1      -9.150  10.318  66.371  1.00  0.00    -0.152 C  
HETATM   20  N   UNL     1      -8.226  10.493  67.527  1.00  0.00    -0.114 NA 
HETATM   21  C   UNL     1      -7.934  11.755  67.920  1.00  0.00    -0.141 A  
HETATM   22  C   UNL     1      -7.061  12.053  68.978  1.00  0.00    -0.077 A  
HETATM   23  C   UNL     1      -6.710  13.356  69.452  1.00  0.00    -0.037 A  
BRANCH  23  24
HETATM   24  O   UNL     1      -7.135  14.581  69.008  1.00  0.00    -0.111 OA 
HETATM   25  C   UNL     1      -8.397  15.154  69.268  1.00  0.00    -0.211 C  
ENDBRANCH  23  24
ENDBRANCH   2   3
TORSDOF 2
ENDMDL
MODEL      108
REMARK 921   NORMALIZED FREE ENERGY PREDICTED BY IDOCK:   -2.65 KCAL/MOL
REMARK 922        TOTAL FREE ENERGY PREDICTED BY IDOCK:   -3.08 KCAL/MOL
REMARK 923 INTER-LIGAND FREE ENERGY PREDICTED BY IDOCK:   -2.97 KCAL/MOL
REMARK 924 INTRA-LIGAND FREE ENERGY PREDICTED BY IDOCK:   -0.12 KCAL/MOL
REMARK 927      BINDING AFFINITY PREDICTED BY RF-SCORE:    0.00 PKD
ROOT
HETATM    1  C   UNL     1      -7.989   9.391  62.809  1.00  0.00    -0.130 C  
HETATM    2  O   UNL     1      -7.162   9.246  63.959  1.00  0.00    -0.095 OA 
ENDROOT
BRANCH   2   3
HETATM    3  C   UNL     1      -7.738   8.692  65.079  1.00  0.00    -0.103 A  
HETATM    4  C   UNL     1      -8.859   7.872  65.026  1.00  0.00     0.168 A  
HETATM    5  C   UNL     1      -9.356   7.300  66.191  1.00  0.00    -0.101 A  
HETATM    6  C   UNL     1      -8.745   7.537  67.425  1.00  0.00    -0.124 A  
HETATM    7  C   UNL     1      -9.269   6.912  68.561  1.00  0.00    -0.129 A  
HETATM    8  C   UNL     1      -8.691   7.117  69.813  1.00  0.00    -0.142 A  
HETATM    9  C   UNL     1      -9.123   6.460  71.060  1.00  0.00    -0.154 A  
HETATM   10  C   UNL     1      -9.738   5.195  71.071  1.00  0.00    -0.245 A  
HETATM   11  C   UNL     1     -10.043   4.619  72.289  1.00  0.00    -0.189 A  
HETATM   12  C   UNL     1      -9.802   5.255  73.479  1.00  0.00    -0.161 A  
HETATM   13  C   UNL     1      -9.229   6.504  73.527  1.00  0.00    -0.149 A  
HETATM   14  O   UNL     1     -10.149   4.502  74.553  1.00  0.00    -0.176 OA 
HETATM   15  C   UNL     1     -10.551   3.275  73.906  1.00  0.00    -0.195 C  
HETATM   16  C   UNL     1      -8.858   7.092  72.311  1.00  0.00    -0.143 A  
HETATM   17  C   UNL     1      -8.117   8.398  72.292  1.00  0.00    -0.186 C  
HETATM   18  O   UNL     1     -10.571   3.379  72.465  1.00  0.00    -0.112 OA 
HETATM   19  C   UNL     1      -7.030   8.279  71.238  1.00  0.00    -0.061 C  
HETATM   20  N   UNL     1      -7.647   7.980  69.914  1.00  0.00    -0.085 NA 
HETATM   21  C   UNL     1      -7.110   8.563  68.817  1.00  0.00    -0.067 A  
HETATM   22  C   UNL     1      -7.611   8.381  67.519  1.00  0.00    -0.098 A  
HETATM   23  C   UNL     1      -7.095   8.958  66.317  1.00  0.00    -0.083 A  
BRANCH  23  24
HETATM   24  O   UNL     1      -6.018   9.789  66.150  1.00  0.00    -0.060 OA 
HETATM   25  C   UNL     1      -5.994  11.167  66.445  1.00  0.00    -0.145 C  
ENDBRANCH  23  24
ENDBRANCH   2   3
TORSDOF 2
ENDMDL
MODEL      109
REMARK 921   NORMALIZED FREE ENERGY PREDICTED BY IDOCK:   -2.60 KCAL/MOL
REMARK 922        TOTAL FREE ENERGY PREDICTED BY IDOCK:   -3.02 KCAL/MOL
REMARK 923 INTER-LIGAND FREE ENERGY PREDICTED BY IDOCK:   -2.89 KCAL/MOL
REMARK 924 INTRA-LIGAND FREE ENERGY PREDICTED BY IDOCK:   -0.13 KCAL/MOL
REMARK 927      BINDING AFFINITY PREDICTED BY RF-SCORE:    0.00 PKD
ROOT
HETATM    1  C   UNL     1     -12.808  15.378  64.629  1.00  0.00     0.677 C  
HETATM    2  O   UNL     1     -11.638  14.662  64.246  1.00  0.00    -0.314 OA 
ENDROOT
BRANCH   2   3
HETATM    3  C   UNL     1     -11.268  13.599  65.038  1.00  0.00    -0.321 A  
HETATM    4  C   UNL     1     -11.990  12.413  65.098  1.00  0.00    -0.454 A  
HETATM    5  C   UNL     1     -11.529  11.358  65.876  1.00  0.00     0.027 A  
HETATM    6  C   UNL     1     -10.343  11.469  66.606  1.00  0.00    -0.262 A  
HETATM    7  C   UNL     1      -9.910  10.366  67.348  1.00  0.00    -0.210 A  
HETATM    8  C   UNL     1      -8.731  10.429  68.090  1.00  0.00    -0.125 A  
HETATM    9  C   UNL     1      -8.152   9.308  68.853  1.00  0.00    -0.103 A  
HETATM   10  C   UNL     1      -8.365   7.965  68.496  1.00  0.00    -0.128 A  
HETATM   11  C   UNL     1      -7.724   6.978  69.221  1.00  0.00    -0.109 A  
HETATM   12  C   UNL     1      -6.922   7.266  70.296  1.00  0.00    -0.060 A  
HETATM   13  C   UNL     1      -6.702   8.559  70.707  1.00  0.00    -0.043 A  
HETATM   14  O   UNL     1      -6.369   6.155  70.845  1.00  0.00    -0.037 OA 
HETATM   15  C   UNL     1      -6.838   5.138  69.934  1.00  0.00    -0.052 C  
HETATM   16  C   UNL     1      -7.294   9.584  69.958  1.00  0.00    -0.115 A  
HETATM   17  C   UNL     1      -6.998  11.024  70.273  1.00  0.00     0.336 C  
HETATM   18  O   UNL     1      -7.773   5.646  68.956  1.00  0.00    -0.086 OA 
HETATM   19  C   UNL     1      -6.810  11.740  68.946  1.00  0.00    -0.102 C  
HETATM   20  N   UNL     1      -8.045  11.601  68.122  1.00  0.00    -0.140 NA 
HETATM   21  C   UNL     1      -8.436  12.664  67.380  1.00  0.00    -0.186 A  
HETATM   22  C   UNL     1      -9.589  12.668  66.582  1.00  0.00    -0.249 A  
HETATM   23  C   UNL     1     -10.061  13.747  65.771  1.00  0.00    -0.307 A  
BRANCH  23  24
HETATM   24  O   UNL     1      -9.511  14.988  65.578  1.00  0.00    -0.252 OA 
HETATM   25  C   UNL     1      -9.516  16.040  66.516  1.00  0.00    -0.271 C  
ENDBRANCH  23  24
ENDBRANCH   2   3
TORSDOF 2
ENDMDL
MODEL      110
REMARK 921   NORMALIZED FREE ENERGY PREDICTED BY IDOCK:   -2.41 KCAL/MOL
REMARK 922        TOTAL FREE ENERGY PREDICTED BY IDOCK:   -2.81 KCAL/MOL
REMARK 923 INTER-LIGAND FREE ENERGY PREDICTED BY IDOCK:   -3.71 KCAL/MOL
REMARK 924 INTRA-LIGAND FREE ENERGY PREDICTED BY IDOCK:    0.90 KCAL/MOL
REMARK 927      BINDING AFFINITY PREDICTED BY RF-SCORE:    0.00 PKD
ROOT
HETATM    1  C   UNL     1     -10.711   5.134  73.960  1.00  0.00    -0.268 C  
HETATM    2  O   UNL     1     -11.363   5.264  72.701  1.00  0.00    -0.267 OA 
ENDROOT
BRANCH   2   3
HETATM    3  C   UNL     1     -11.057   6.376  71.950  1.00  0.00    -0.268 A  
HETATM    4  C   UNL     1     -11.992   7.356  71.635  1.00  0.00    -0.339 A  
HETATM    5  C   UNL     1     -11.603   8.482  70.920  1.00  0.00    -0.295 A  
HETATM    6  C   UNL     1     -10.278   8.649  70.508  1.00  0.00    -0.229 A  
HETATM    7  C   UNL     1      -9.935   9.816  69.818  1.00  0.00    -0.265 A  
HETATM    8  C   UNL     1      -8.625  10.027  69.389  1.00  0.00    -0.175 A  
HETATM    9  C   UNL     1      -8.143  11.245  68.712  1.00  0.00    -0.130 A  
HETATM   10  C   UNL     1      -8.740  12.503  68.912  1.00  0.00     0.310 A  
HETATM   11  C   UNL     1      -8.180  13.605  68.297  1.00  0.00    -0.156 A  
HETATM   12  C   UNL     1      -7.089  13.506  67.471  1.00  0.00    -0.148 A  
HETATM   13  C   UNL     1      -6.484  12.298  67.217  1.00  0.00    -0.152 A  
HETATM   14  O   UNL     1      -6.683  14.710  66.995  1.00  0.00    -0.120 OA 
HETATM   15  C   UNL     1      -7.586  15.596  67.692  1.00  0.00    -0.158 C  
HETATM   16  C   UNL     1      -6.996  11.169  67.870  1.00  0.00    -0.069 A  
HETATM   17  C   UNL     1      -6.311   9.838  67.738  1.00  0.00    -0.053 C  
HETATM   18  O   UNL     1      -8.596  14.890  68.448  1.00  0.00    -0.147 OA 
HETATM   19  C   UNL     1      -6.304   9.202  69.117  1.00  0.00    -0.042 C  
HETATM   20  N   UNL     1      -7.705   9.051  69.606  1.00  0.00    -0.072 NA 
HETATM   21  C   UNL     1      -8.017   7.934  70.303  1.00  0.00    -0.102 A  
HETATM   22  C   UNL     1      -9.302   7.664  70.798  1.00  0.00    -0.162 A  
HETATM   23  C   UNL     1      -9.704   6.512  71.544  1.00  0.00    -0.168 A  
BRANCH  23  24
HETATM   24  O   UNL     1      -8.953   5.440  71.950  1.00  0.00    -0.134 OA 
HETATM   25  C   UNL     1      -7.603   5.492  72.354  1.00  0.00    -0.101 C  
ENDBRANCH  23  24
ENDBRANCH   2   3
TORSDOF 2
ENDMDL
MODEL      111
REMARK 921   NORMALIZED FREE ENERGY PREDICTED BY IDOCK:   -2.01 KCAL/MOL
REMARK 922        TOTAL FREE ENERGY PREDICTED BY IDOCK:   -2.36 KCAL/MOL
REMARK 923 INTER-LIGAND FREE ENERGY PREDICTED BY IDOCK:   -2.87 KCAL/MOL
REMARK 924 INTRA-LIGAND FREE ENERGY PREDICTED BY IDOCK:    0.51 KCAL/MOL
REMARK 927      BINDING AFFINITY PREDICTED BY RF-SCORE:    0.00 PKD
ROOT
HETATM    1  C   UNL     1     -10.639  14.719  66.681  1.00  0.00    -0.299 C  
HETATM    2  O   UNL     1      -9.838  14.670  67.856  1.00  0.00    -0.213 OA 
ENDROOT
BRANCH   2   3
HETATM    3  C   UNL     1      -9.613  13.430  68.409  1.00  0.00    -0.188 A  
HETATM    4  C   UNL     1      -8.440  12.712  68.206  1.00  0.00    -0.163 A  
HETATM    5  C   UNL     1      -8.255  11.489  68.840  1.00  0.00    -0.019 A  
HETATM    6  C   UNL     1      -9.236  10.964  69.686  1.00  0.00     0.372 A  
HETATM    7  C   UNL     1      -8.985   9.744  70.322  1.00  0.00    -0.198 A  
HETATM    8  C   UNL     1      -9.933   9.182  71.176  1.00  0.00    -0.307 A  
HETATM    9  C   UNL     1      -9.746   7.938  71.945  1.00  0.00    -0.231 A  
HETATM   10  C   UNL     1      -8.477   7.490  72.354  1.00  0.00    -0.134 A  
HETATM   11  C   UNL     1      -8.397   6.353  73.134  1.00  0.00    -0.115 A  
HETATM   12  C   UNL     1      -9.508   5.630  73.488  1.00  0.00    -0.138 A  
HETATM   13  C   UNL     1     -10.770   6.006  73.092  1.00  0.00    -0.285 A  
HETATM   14  O   UNL     1      -9.210   4.569  74.280  1.00  0.00    -0.109 OA 
HETATM   15  C   UNL     1      -7.790   4.759  74.465  1.00  0.00    -0.095 C  
HETATM   16  C   UNL     1     -10.888   7.185  72.346  1.00  0.00    -0.280 A  
HETATM   17  C   UNL     1     -12.243   7.723  71.983  1.00  0.00    -0.342 C  
HETATM   18  O   UNL     1      -7.257   5.837  73.664  1.00  0.00    -0.085 OA 
HETATM   19  C   UNL     1     -12.195   9.228  72.188  1.00  0.00    -0.307 C  
HETATM   20  N   UNL     1     -11.125   9.815  71.332  1.00  0.00    -0.326 NA 
HETATM   21  C   UNL     1     -11.365  11.013  70.749  1.00  0.00     0.278 A  
HETATM   22  C   UNL     1     -10.450  11.660  69.904  1.00  0.00     0.729 A  
HETATM   23  C   UNL     1     -10.632  12.923  69.259  1.00  0.00     0.161 A  
BRANCH  23  24
HETATM   24  O   UNL     1     -11.701  13.778  69.319  1.00  0.00    -0.282 OA 
HETATM   25  C   UNL     1     -11.771  14.949  70.101  1.00  0.00    -0.294 C  
ENDBRANCH  23  24
ENDBRANCH   2   3
TORSDOF 2
ENDMDL
MODEL      112
REMARK 921   NORMALIZED FREE ENERGY PREDICTED BY IDOCK:   -1.95 KCAL/MOL
REMARK 922        TOTAL FREE ENERGY PREDICTED BY IDOCK:   -2.30 KCAL/MOL
REMARK 923 INTER-LIGAND FREE ENERGY PREDICTED BY IDOCK:   -2.89 KCAL/MOL
REMARK 924 INTRA-LIGAND FREE ENERGY PREDICTED BY IDOCK:    0.60 KCAL/MOL
REMARK 927      BINDING AFFINITY PREDICTED BY RF-SCORE:    0.00 PKD
ROOT
HETATM    1  C   UNL     1      -8.713   1.670  69.761  1.00  0.00    -0.056 C  
HETATM    2  O   UNL     1      -9.757   2.548  70.170  1.00  0.00    -0.067 OA 
ENDROOT
BRANCH   2   3
HETATM    3  C   UNL     1      -9.452   3.888  70.249  1.00  0.00    -0.185 A  
HETATM    4  C   UNL     1      -9.273   4.553  71.457  1.00  0.00    -0.186 A  
HETATM    5  C   UNL     1      -8.912   5.895  71.464  1.00  0.00    -0.147 A  
HETATM    6  C   UNL     1      -8.724   6.594  70.268  1.00  0.00    -0.147 A  
HETATM    7  C   UNL     1      -8.331   7.934  70.333  1.00  0.00    -0.121 A  
HETATM    8  C   UNL     1      -8.129   8.671  69.166  1.00  0.00    -0.116 A  
HETATM    9  C   UNL     1      -7.655  10.066  69.120  1.00  0.00    -0.096 A  
HETATM   10  C   UNL     1      -6.841  10.618  70.125  1.00  0.00    -0.119 A  
HETATM   11  C   UNL     1      -6.379  11.911  69.967  1.00  0.00    -0.072 A  
HETATM   12  C   UNL     1      -6.720  12.681  68.884  1.00  0.00    -0.098 A  
HETATM   13  C   UNL     1      -7.536  12.202  67.886  1.00  0.00    -0.123 A  
HETATM   14  O   UNL     1      -6.136  13.905  68.910  1.00  0.00    -0.080 OA 
HETATM   15  C   UNL     1      -5.309  13.787  70.088  1.00  0.00    -0.102 C  
HETATM   16  C   UNL     1      -7.975  10.876  67.991  1.00  0.00    -0.109 A  
HETATM   17  C   UNL     1      -8.767  10.247  66.880  1.00  0.00    -0.131 C  
HETATM   18  O   UNL     1      -5.532  12.555  70.811  1.00  0.00    -0.154 OA 
HETATM   19  C   UNL     1      -8.233   8.837  66.696  1.00  0.00    -0.107 C  
HETATM   20  N   UNL     1      -8.377   8.076  67.970  1.00  0.00    -0.125 NA 
HETATM   21  C   UNL     1      -8.724   6.770  67.894  1.00  0.00    -0.120 A  
HETATM   22  C   UNL     1      -8.913   5.953  69.019  1.00  0.00    -0.122 A  
HETATM   23  C   UNL     1      -9.273   4.569  69.017  1.00  0.00    -0.134 A  
BRANCH  23  24
HETATM   24  O   UNL     1      -9.501   3.737  67.951  1.00  0.00    -0.176 OA 
HETATM   25  C   UNL     1     -10.118   4.108  66.740  1.00  0.00     0.005 C  
ENDBRANCH  23  24
ENDBRANCH   2   3
TORSDOF 2
ENDMDL
MODEL      113
REMARK 921   NORMALIZED FREE ENERGY PREDICTED BY IDOCK:    0.83 KCAL/MOL
REMARK 922        TOTAL FREE ENERGY PREDICTED BY IDOCK:    0.80 KCAL/MOL
REMARK 923 INTER-LIGAND FREE ENERGY PREDICTED BY IDOCK:   -1.09 KCAL/MOL
REMARK 924 INTRA-LIGAND FREE ENERGY PREDICTED BY IDOCK:    1.89 KCAL/MOL
REMARK 927      BINDING AFFINITY PREDICTED BY RF-SCORE:    0.00 PKD
ROOT
HETATM    1  C   UNL     1     -12.008  17.589  68.124  1.00  0.00     2.040 C  
HETATM    2  O   UNL     1     -11.421  16.966  69.262  1.00  0.00     0.099 OA 
ENDROOT
BRANCH   2   3
HETATM    3  C   UNL     1     -11.033  15.653  69.126  1.00  0.00    -0.259 A  
HETATM    4  C   UNL     1     -11.053  14.745  70.178  1.00  0.00    -0.208 A  
HETATM    5  C   UNL     1     -10.701  13.419  69.958  1.00  0.00     0.833 A  
HETATM    6  C   UNL     1     -10.323  12.978  68.687  1.00  0.00    -0.203 A  
HETATM    7  C   UNL     1     -10.007  11.626  68.516  1.00  0.00    -0.198 A  
HETATM    8  C   UNL     1      -9.627  11.140  67.266  1.00  0.00    -0.165 A  
HETATM    9  C   UNL     1      -9.336   9.727  66.962  1.00  0.00    -0.178 A  
HETATM   10  C   UNL     1      -9.923   8.667  67.677  1.00  0.00    -0.248 A  
HETATM   11  C   UNL     1      -9.653   7.372  67.278  1.00  0.00    -0.150 A  
HETATM   12  C   UNL     1      -8.807   7.089  66.237  1.00  0.00    -0.148 A  
HETATM   13  C   UNL     1      -8.184   8.084  65.522  1.00  0.00    -0.138 A  
HETATM   14  O   UNL     1      -8.706   5.758  65.994  1.00  0.00    -0.136 OA 
HETATM   15  C   UNL     1      -9.662   5.235  66.942  1.00  0.00    -0.156 C  
HETATM   16  C   UNL     1      -8.480   9.409  65.867  1.00  0.00    -0.135 A  
HETATM   17  C   UNL     1      -7.934  10.547  65.052  1.00  0.00    -0.079 C  
HETATM   18  O   UNL     1     -10.197   6.250  67.820  1.00  0.00    -0.139 OA 
HETATM   19  C   UNL     1      -9.057  11.558  64.891  1.00  0.00     0.092 C  
HETATM   20  N   UNL     1      -9.515  12.016  66.234  1.00  0.00    -0.227 NA 
HETATM   21  C   UNL     1      -9.851  13.319  66.380  1.00  0.00    -0.281 A  
HETATM   22  C   UNL     1     -10.275  13.878  67.595  1.00  0.00    -0.242 A  
HETATM   23  C   UNL     1     -10.650  15.239  67.823  1.00  0.00    -0.266 A  
BRANCH  23  24
HETATM   24  O   UNL     1     -10.693  16.283  66.936  1.00  0.00    -0.300 OA 
HETATM   25  C   UNL     1      -9.638  16.687  66.093  1.00  0.00    -0.294 C  
ENDBRANCH  23  24
ENDBRANCH   2   3
TORSDOF 2
ENDMDL
MODEL      114
REMARK 921   NORMALIZED FREE ENERGY PREDICTED BY IDOCK:    9.00 KCAL/MOL
REMARK 922        TOTAL FREE ENERGY PREDICTED BY IDOCK:    9.93 KCAL/MOL
REMARK 923 INTER-LIGAND FREE ENERGY PREDICTED BY IDOCK:    9.91 KCAL/MOL
REMARK 924 INTRA-LIGAND FREE ENERGY PREDICTED BY IDOCK:    0.02 KCAL/MOL
REMARK 927      BINDING AFFINITY PREDICTED BY RF-SCORE:    0.00 PKD
ROOT
HETATM    1  C   UNL     1      -7.821   8.403  71.982  1.00  0.00    -0.127 C  
HETATM    2  O   UNL     1      -7.680   8.654  70.588  1.00  0.00    -0.069 OA 
ENDROOT
BRANCH   2   3
HETATM    3  C   UNL     1      -8.240   9.813  70.102  1.00  0.00    -0.179 A  
HETATM    4  C   UNL     1      -9.459  10.309  70.547  1.00  0.00     0.633 A  
HETATM    5  C   UNL     1      -9.941  11.516  70.053  1.00  0.00     1.527 A  
HETATM    6  C   UNL     1      -9.214  12.246  69.108  1.00  0.00     0.593 A  
HETATM    7  C   UNL     1      -9.730  13.468  68.668  1.00  0.00    -0.104 A  
HETATM    8  C   UNL     1      -9.039  14.232  67.728  1.00  0.00    -0.195 A  
HETATM    9  C   UNL     1      -9.460  15.560  67.245  1.00  0.00    -0.218 A  
HETATM   10  C   UNL     1     -10.235  16.436  68.028  1.00  0.00    -0.264 A  
HETATM   11  C   UNL     1     -10.522  17.691  67.528  1.00  0.00    -0.365 A  
HETATM   12  C   UNL     1     -10.111  18.093  66.283  1.00  0.00    -0.371 A  
HETATM   13  C   UNL     1      -9.377  17.268  65.463  1.00  0.00     0.596 A  
HETATM   14  O   UNL     1     -10.474  19.370  66.001  1.00  0.00    -0.473 OA 
HETATM   15  C   UNL     1     -11.081  19.762  67.251  1.00  0.00    -0.063 C  
HETATM   16  C   UNL     1      -9.023  16.009  65.965  1.00  0.00    -0.345 A  
HETATM   17  C   UNL     1      -8.119  15.104  65.176  1.00  0.00     5.682 C  
HETATM   18  O   UNL     1     -11.194  18.669  68.190  1.00  0.00     0.165 OA 
HETATM   19  C   UNL     1      -7.139  14.488  66.159  1.00  0.00     4.076 C  
HETATM   20  N   UNL     1      -7.886  13.738  67.209  1.00  0.00    -0.140 NA 
HETATM   21  C   UNL     1      -7.359  12.573  67.653  1.00  0.00    -0.134 A  
HETATM   22  C   UNL     1      -7.975  11.763  68.620  1.00  0.00    -0.116 A  
HETATM   23  C   UNL     1      -7.478  10.527  69.140  1.00  0.00    -0.114 A  
BRANCH  23  24
HETATM   24  O   UNL     1      -6.316   9.867  68.835  1.00  0.00    -0.041 OA 
HETATM   25  C   UNL     1      -5.835   9.612  67.535  1.00  0.00    -0.047 C  
ENDBRANCH  23  24
ENDBRANCH   2   3
TORSDOF 2
ENDMDL
MODEL      115
REMARK 921   NORMALIZED FREE ENERGY PREDICTED BY IDOCK:    9.32 KCAL/MOL
REMARK 922        TOTAL FREE ENERGY PREDICTED BY IDOCK:   10.29 KCAL/MOL
REMARK 923 INTER-LIGAND FREE ENERGY PREDICTED BY IDOCK:   10.10 KCAL/MOL
REMARK 924 INTRA-LIGAND FREE ENERGY PREDICTED BY IDOCK:    0.19 KCAL/MOL
REMARK 927      BINDING AFFINITY PREDICTED BY RF-SCORE:    0.00 PKD
ROOT
HETATM    1  C   UNL     1     -12.377  12.526  71.986  1.00  0.00     0.696 C  
HETATM    2  O   UNL     1     -11.200  11.764  72.231  1.00  0.00     5.263 OA 
ENDROOT
BRANCH   2   3
HETATM    3  C   UNL     1     -10.707  11.019  71.184  1.00  0.00     2.454 A  
HETATM    4  C   UNL     1      -9.729  11.490  70.315  1.00  0.00     2.716 A  
HETATM    5  C   UNL     1      -9.235  10.665  69.312  1.00  0.00    -0.121 A  
HETATM    6  C   UNL     1      -9.708   9.359  69.159  1.00  0.00    -0.165 A  
HETATM    7  C   UNL     1      -9.154   8.562  68.153  1.00  0.00    -0.138 A  
HETATM    8  C   UNL     1      -9.593   7.252  67.964  1.00  0.00    -0.139 A  
HETATM    9  C   UNL     1      -9.035   6.308  66.978  1.00  0.00    -0.115 A  
HETATM   10  C   UNL     1      -7.704   6.386  66.531  1.00  0.00    -0.099 A  
HETATM   11  C   UNL     1      -7.240   5.416  65.663  1.00  0.00    -0.068 A  
HETATM   12  C   UNL     1      -8.045   4.408  65.196  1.00  0.00    -0.102 A  
HETATM   13  C   UNL     1      -9.362   4.301  65.577  1.00  0.00    -0.162 A  
HETATM   14  O   UNL     1      -7.384   3.549  64.380  1.00  0.00    -0.064 OA 
HETATM   15  C   UNL     1      -6.042   4.076  64.459  1.00  0.00    -0.022 C  
HETATM   16  C   UNL     1      -9.846   5.237  66.500  1.00  0.00    -0.204 A  
HETATM   17  C   UNL     1     -11.236   5.109  67.055  1.00  0.00     1.059 C  
HETATM   18  O   UNL     1      -5.966   5.315  65.200  1.00  0.00    -0.024 OA 
HETATM   19  C   UNL     1     -11.152   5.414  68.541  1.00  0.00     0.558 C  
HETATM   20  N   UNL     1     -10.607   6.787  68.740  1.00  0.00    -0.211 NA 
HETATM   21  C   UNL     1     -11.126   7.537  69.740  1.00  0.00    -0.129 A  
HETATM   22  C   UNL     1     -10.715   8.851  70.016  1.00  0.00    -0.241 A  
HETATM   23  C   UNL     1     -11.213   9.699  71.054  1.00  0.00    -0.375 A  
BRANCH  23  24
HETATM   24  O   UNL     1     -12.168   9.437  72.001  1.00  0.00    -0.363 OA 
HETATM   25  C   UNL     1     -12.180   8.323  72.865  1.00  0.00     0.097 C  
ENDBRANCH  23  24
ENDBRANCH   2   3
TORSDOF 2
ENDMDL
MODEL      116
REMARK 921   NORMALIZED FREE ENERGY PREDICTED BY IDOCK:   14.75 KCAL/MOL
REMARK 922        TOTAL FREE ENERGY PREDICTED BY IDOCK:   16.35 KCAL/MOL
REMARK 923 INTER-LIGAND FREE ENERGY PREDICTED BY IDOCK:   13.39 KCAL/MOL
REMARK 924 INTRA-LIGAND FREE ENERGY PREDICTED BY IDOCK:    2.96 KCAL/MOL
REMARK 927      BINDING AFFINITY PREDICTED BY RF-SCORE:    0.00 PKD
ROOT
HETATM    1  C   UNL     1     -14.026  12.755  63.524  1.00  0.00     4.020 C  
HETATM    2  O   UNL     1     -14.082  13.912  64.351  1.00  0.00     3.077 OA 
ENDROOT
BRANCH   2   3
HETATM    3  C   UNL     1     -13.040  14.106  65.228  1.00  0.00    -0.090 A  
HETATM    4  C   UNL     1     -12.845  15.296  65.921  1.00  0.00     1.278 A  
HETATM    5  C   UNL     1     -11.803  15.405  66.834  1.00  0.00     0.227 A  
HETATM    6  C   UNL     1     -10.941  14.331  67.071  1.00  0.00    -0.305 A  
HETATM    7  C   UNL     1      -9.929  14.486  68.023  1.00  0.00    -0.222 A  
HETATM    8  C   UNL     1      -9.045  13.442  68.295  1.00  0.00    -0.181 A  
HETATM    9  C   UNL     1      -7.987  13.476  69.320  1.00  0.00     0.471 A  
HETATM   10  C   UNL     1      -8.084  14.270  70.477  1.00  0.00     2.159 A  
HETATM   11  C   UNL     1      -7.081  14.187  71.423  1.00  0.00     2.361 A  
HETATM   12  C   UNL     1      -5.981  13.386  71.252  1.00  0.00     0.186 A  
HETATM   13  C   UNL     1      -5.819  12.611  70.128  1.00  0.00    -0.158 A  
HETATM   14  O   UNL     1      -5.135  13.430  72.312  1.00  0.00    -0.208 OA 
HETATM   15  C   UNL     1      -5.874  14.278  73.216  1.00  0.00     0.161 C  
HETATM   16  C   UNL     1      -6.847  12.632  69.176  1.00  0.00    -0.057 A  
HETATM   17  C   UNL     1      -6.797  11.719  67.984  1.00  0.00    -0.074 C  
HETATM   18  O   UNL     1      -7.068  14.834  72.618  1.00  0.00     2.078 OA 
HETATM   19  C   UNL     1      -8.200  11.169  67.786  1.00  0.00    -0.119 C  
HETATM   20  N   UNL     1      -9.154  12.294  67.576  1.00  0.00    -0.175 NA 
HETATM   21  C   UNL     1     -10.151  12.121  66.677  1.00  0.00    -0.199 A  
HETATM   22  C   UNL     1     -11.100  13.110  66.372  1.00  0.00    -0.311 A  
HETATM   23  C   UNL     1     -12.180  12.997  65.441  1.00  0.00    -0.471 A  
BRANCH  23  24
HETATM   24  O   UNL     1     -12.540  11.930  64.661  1.00  0.00    -0.307 OA 
HETATM   25  C   UNL     1     -11.729  11.319  63.683  1.00  0.00     0.245 C  
ENDBRANCH  23  24
ENDBRANCH   2   3
TORSDOF 2
ENDMDL
MODEL      117
REMARK 921   NORMALIZED FREE ENERGY PREDICTED BY IDOCK:   16.39 KCAL/MOL
REMARK 922        TOTAL FREE ENERGY PREDICTED BY IDOCK:   18.18 KCAL/MOL
REMARK 923 INTER-LIGAND FREE ENERGY PREDICTED BY IDOCK:   18.12 KCAL/MOL
REMARK 924 INTRA-LIGAND FREE ENERGY PREDICTED BY IDOCK:    0.06 KCAL/MOL
REMARK 927      BINDING AFFINITY PREDICTED BY RF-SCORE:    0.00 PKD
ROOT
HETATM    1  C   UNL     1      -8.183  21.326  67.972  1.00  0.00     0.824 C  
HETATM    2  O   UNL     1      -7.519  20.081  68.162  1.00  0.00    -0.295 OA 
ENDROOT
BRANCH   2   3
HETATM    3  C   UNL     1      -8.216  18.943  67.824  1.00  0.00    -0.270 A  
HETATM    4  C   UNL     1      -8.853  18.781  66.599  1.00  0.00    -0.315 A  
HETATM    5  C   UNL     1      -9.491  17.583  66.300  1.00  0.00    -0.238 A  
HETATM    6  C   UNL     1      -9.504  16.529  67.218  1.00  0.00    -0.237 A  
HETATM    7  C   UNL     1     -10.135  15.336  66.853  1.00  0.00    -0.257 A  
HETATM    8  C   UNL     1     -10.171  14.255  67.735  1.00  0.00    -0.235 A  
HETATM    9  C   UNL     1     -10.751  12.935  67.429  1.00  0.00    -0.252 A  
HETATM   10  C   UNL     1     -10.815  12.426  66.120  1.00  0.00    -0.308 A  
HETATM   11  C   UNL     1     -11.307  11.148  65.930  1.00  0.00     0.179 A  
HETATM   12  C   UNL     1     -11.767  10.381  66.970  1.00  0.00     1.326 A  
HETATM   13  C   UNL     1     -11.755  10.839  68.266  1.00  0.00    -0.205 A  
HETATM   14  O   UNL     1     -12.176   9.151  66.569  1.00  0.00     5.442 OA 
HETATM   15  C   UNL     1     -11.833   9.194  65.167  1.00  0.00     9.969 C  
HETATM   16  C   UNL     1     -11.212  12.110  68.497  1.00  0.00    -0.307 A  
HETATM   17  C   UNL     1     -11.053  12.626  69.899  1.00  0.00     0.253 C  
HETATM   18  O   UNL     1     -11.365  10.493  64.741  1.00  0.00     0.676 OA 
HETATM   19  C   UNL     1      -9.696  13.304  69.973  1.00  0.00     2.664 C  
HETATM   20  N   UNL     1      -9.632  14.408  68.973  1.00  0.00    -0.117 NA 
HETATM   21  C   UNL     1      -8.989  15.546  69.323  1.00  0.00    -0.267 A  
HETATM   22  C   UNL     1      -8.879  16.663  68.481  1.00  0.00    -0.235 A  
HETATM   23  C   UNL     1      -8.213  17.894  68.780  1.00  0.00    -0.224 A  
BRANCH  23  24
HETATM   24  O   UNL     1      -7.538  18.256  69.916  1.00  0.00     0.595 OA 
HETATM   25  C   UNL     1      -6.148  18.136  70.116  1.00  0.00    -0.041 C  
ENDBRANCH  23  24
ENDBRANCH   2   3
TORSDOF 2
ENDMDL
MODEL      118
REMARK 921   NORMALIZED FREE ENERGY PREDICTED BY IDOCK:   16.56 KCAL/MOL
REMARK 922        TOTAL FREE ENERGY PREDICTED BY IDOCK:   18.38 KCAL/MOL
REMARK 923 INTER-LIGAND FREE ENERGY PREDICTED BY IDOCK:   18.13 KCAL/MOL
REMARK 924 INTRA-LIGAND FREE ENERGY PREDICTED BY IDOCK:    0.24 KCAL/MOL
REMARK 927      BINDING AFFINITY PREDICTED BY RF-SCORE:    0.00 PKD
ROOT
HETATM    1  C   UNL     1     -14.305  12.671  63.694  1.00  0.00     5.564 C  
HETATM    2  O   UNL     1     -14.303  13.957  64.304  1.00  0.00     4.950 OA 
ENDROOT
BRANCH   2   3
HETATM    3  C   UNL     1     -13.420  14.156  65.341  1.00  0.00     0.674 A  
HETATM    4  C   UNL     1     -13.551  13.533  66.576  1.00  0.00     3.920 A  
HETATM    5  C   UNL     1     -12.592  13.735  67.561  1.00  0.00     0.375 A  
HETATM    6  C   UNL     1     -11.488  14.561  67.330  1.00  0.00    -0.385 A  
HETATM    7  C   UNL     1     -10.538  14.705  68.345  1.00  0.00    -0.241 A  
HETATM    8  C   UNL     1      -9.419  15.517  68.160  1.00  0.00    -0.198 A  
HETATM    9  C   UNL     1      -8.328  15.688  69.136  1.00  0.00    -0.251 A  
HETATM   10  C   UNL     1      -7.987  14.690  70.067  1.00  0.00     0.513 A  
HETATM   11  C   UNL     1      -6.903  14.902  70.896  1.00  0.00     0.644 A  
HETATM   12  C   UNL     1      -6.177  16.065  70.867  1.00  0.00     0.728 A  
HETATM   13  C   UNL     1      -6.484  17.086  69.999  1.00  0.00     0.176 A  
HETATM   14  O   UNL     1      -5.139  16.055  71.741  1.00  0.00    -0.223 OA 
HETATM   15  C   UNL     1      -5.235  14.711  72.260  1.00  0.00    -0.129 C  
HETATM   16  C   UNL     1      -7.544  16.878  69.107  1.00  0.00    -0.157 A  
HETATM   17  C   UNL     1      -7.858  17.897  68.048  1.00  0.00    -0.251 C  
HETATM   18  O   UNL     1      -6.408  14.008  71.793  1.00  0.00    -0.038 OA 
HETATM   19  C   UNL     1      -8.157  17.133  66.769  1.00  0.00    -0.243 C  
HETATM   20  N   UNL     1      -9.303  16.208  66.996  1.00  0.00    -0.213 NA 
HETATM   21  C   UNL     1     -10.198  16.049  65.993  1.00  0.00    -0.341 A  
HETATM   22  C   UNL     1     -11.330  15.225  66.089  1.00  0.00    -0.160 A  
HETATM   23  C   UNL     1     -12.314  15.005  65.074  1.00  0.00    -0.015 A  
BRANCH  23  24
HETATM   24  O   UNL     1     -12.376  15.520  63.805  1.00  0.00    -0.606 OA 
HETATM   25  C   UNL     1     -11.930  14.872  62.635  1.00  0.00     4.042 C  
ENDBRANCH  23  24
ENDBRANCH   2   3
TORSDOF 2
ENDMDL
MODEL      119
REMARK 921   NORMALIZED FREE ENERGY PREDICTED BY IDOCK:   17.48 KCAL/MOL
REMARK 922        TOTAL FREE ENERGY PREDICTED BY IDOCK:   19.41 KCAL/MOL
REMARK 923 INTER-LIGAND FREE ENERGY PREDICTED BY IDOCK:   18.91 KCAL/MOL
REMARK 924 INTRA-LIGAND FREE ENERGY PREDICTED BY IDOCK:    0.50 KCAL/MOL
REMARK 927      BINDING AFFINITY PREDICTED BY RF-SCORE:    0.00 PKD
ROOT
HETATM    1  C   UNL     1      -7.817   8.408  71.979  1.00  0.00    -0.127 C  
HETATM    2  O   UNL     1      -7.673   8.602  70.576  1.00  0.00    -0.071 OA 
ENDROOT
BRANCH   2   3
HETATM    3  C   UNL     1      -8.250   9.729  70.037  1.00  0.00    -0.191 A  
HETATM    4  C   UNL     1      -9.407   9.692  69.268  1.00  0.00    -0.184 A  
HETATM    5  C   UNL     1      -9.969  10.875  68.801  1.00  0.00    -0.203 A  
HETATM    6  C   UNL     1      -9.386  12.111  69.094  1.00  0.00     0.520 A  
HETATM    7  C   UNL     1     -10.010  13.271  68.625  1.00  0.00    -0.127 A  
HETATM    8  C   UNL     1      -9.466  14.527  68.894  1.00  0.00    -0.144 A  
HETATM    9  C   UNL     1     -10.075  15.812  68.504  1.00  0.00    -0.215 A  
HETATM   10  C   UNL     1     -11.463  15.969  68.339  1.00  0.00    -0.331 A  
HETATM   11  C   UNL     1     -11.956  17.225  68.044  1.00  0.00     1.621 A  
HETATM   12  C   UNL     1     -11.135  18.310  67.871  1.00  0.00     0.147 A  
HETATM   13  C   UNL     1      -9.768  18.208  67.991  1.00  0.00    -0.316 A  
HETATM   14  O   UNL     1     -11.824  19.451  67.618  1.00  0.00     0.916 OA 
HETATM   15  C   UNL     1     -13.183  18.981  67.746  1.00  0.00     8.048 C  
HETATM   16  C   UNL     1      -9.243  16.958  68.344  1.00  0.00    -0.253 A  
HETATM   17  C   UNL     1      -7.773  16.801  68.613  1.00  0.00    -0.232 C  
HETATM   18  O   UNL     1     -13.270  17.549  67.926  1.00  0.00     4.677 OA 
HETATM   19  C   UNL     1      -7.638  15.909  69.836  1.00  0.00     0.294 C  
HETATM   20  N   UNL     1      -8.291  14.595  69.572  1.00  0.00     0.073 NA 
HETATM   21  C   UNL     1      -7.697  13.481  70.061  1.00  0.00     1.578 A  
HETATM   22  C   UNL     1      -8.198  12.185  69.862  1.00  0.00     2.286 A  
HETATM   23  C   UNL     1      -7.630  10.967  70.350  1.00  0.00     1.518 A  
BRANCH  23  24
HETATM   24  O   UNL     1      -6.506  10.783  71.111  1.00  0.00    -0.248 OA 
HETATM   25  C   UNL     1      -5.248  11.372  70.872  1.00  0.00    -0.128 C  
ENDBRANCH  23  24
ENDBRANCH   2   3
TORSDOF 2
ENDMDL
MODEL      120
REMARK 921   NORMALIZED FREE ENERGY PREDICTED BY IDOCK:   22.90 KCAL/MOL
REMARK 922        TOTAL FREE ENERGY PREDICTED BY IDOCK:   25.46 KCAL/MOL
REMARK 923 INTER-LIGAND FREE ENERGY PREDICTED BY IDOCK:   23.34 KCAL/MOL
REMARK 924 INTRA-LIGAND FREE ENERGY PREDICTED BY IDOCK:    2.12 KCAL/MOL
REMARK 927      BINDING AFFINITY PREDICTED BY RF-SCORE:    0.00 PKD
ROOT
HETATM    1  C   UNL     1      -7.385   8.291  72.857  1.00  0.00    -0.104 C  
HETATM    2  O   UNL     1      -8.557   8.300  72.048  1.00  0.00    -0.145 OA 
ENDROOT
BRANCH   2   3
HETATM    3  C   UNL     1      -8.643   9.277  71.082  1.00  0.00    -0.025 A  
HETATM    4  C   UNL     1      -9.412   9.138  69.933  1.00  0.00    -0.199 A  
HETATM    5  C   UNL     1      -9.499  10.187  69.025  1.00  0.00    -0.195 A  
HETATM    6  C   UNL     1      -8.822  11.389  69.249  1.00  0.00     0.334 A  
HETATM    7  C   UNL     1      -8.970  12.422  68.319  1.00  0.00    -0.178 A  
HETATM    8  C   UNL     1      -8.315  13.640  68.502  1.00  0.00    -0.110 A  
HETATM    9  C   UNL     1      -8.452  14.813  67.619  1.00  0.00    -0.185 A  
HETATM   10  C   UNL     1      -9.614  15.057  66.865  1.00  0.00    -0.251 A  
HETATM   11  C   UNL     1      -9.687  16.218  66.121  1.00  0.00    -0.329 A  
HETATM   12  C   UNL     1      -8.653  17.117  66.066  1.00  0.00    -0.105 A  
HETATM   13  C   UNL     1      -7.483  16.916  66.760  1.00  0.00    -0.276 A  
HETATM   14  O   UNL     1      -8.945  18.202  65.303  1.00  0.00     0.635 OA 
HETATM   15  C   UNL     1     -10.320  17.930  64.958  1.00  0.00     1.201 C  
HETATM   16  C   UNL     1      -7.400  15.774  67.567  1.00  0.00    -0.205 A  
HETATM   17  C   UNL     1      -6.203  15.551  68.448  1.00  0.00    -0.104 C  
HETATM   18  O   UNL     1     -10.765  16.627  65.401  1.00  0.00    -0.473 OA 
HETATM   19  C   UNL     1      -6.722  15.040  69.781  1.00  0.00    -0.180 C  
HETATM   20  N   UNL     1      -7.489  13.780  69.571  1.00  0.00     0.231 NA 
HETATM   21  C   UNL     1      -7.366  12.800  70.496  1.00  0.00     2.989 A  
HETATM   22  C   UNL     1      -8.017  11.560  70.402  1.00  0.00     3.114 A  
HETATM   23  C   UNL     1      -7.939  10.483  71.339  1.00  0.00     3.968 A  
BRANCH  23  24
HETATM   24  O   UNL     1      -7.243  10.411  72.518  1.00  0.00     2.836 OA 
HETATM   25  C   UNL     1      -7.330  11.335  73.578  1.00  0.00    11.100 C  
ENDBRANCH  23  24
ENDBRANCH   2   3
TORSDOF 2
ENDMDL
MODEL      121
REMARK 921   NORMALIZED FREE ENERGY PREDICTED BY IDOCK:   29.55 KCAL/MOL
REMARK 922        TOTAL FREE ENERGY PREDICTED BY IDOCK:   32.88 KCAL/MOL
REMARK 923 INTER-LIGAND FREE ENERGY PREDICTED BY IDOCK:   30.70 KCAL/MOL
REMARK 924 INTRA-LIGAND FREE ENERGY PREDICTED BY IDOCK:    2.18 KCAL/MOL
REMARK 927      BINDING AFFINITY PREDICTED BY RF-SCORE:    0.00 PKD
ROOT
HETATM    1  C   UNL     1     -11.130  18.814  71.664  1.00  0.00     4.326 C  
HETATM    2  O   UNL     1     -10.310  17.799  72.232  1.00  0.00     3.947 OA 
ENDROOT
BRANCH   2   3
HETATM    3  C   UNL     1     -10.209  16.615  71.537  1.00  0.00     3.341 A  
HETATM    4  C   UNL     1      -9.970  15.393  72.155  1.00  0.00     3.400 A  
HETATM    5  C   UNL     1      -9.935  14.228  71.399  1.00  0.00     4.153 A  
HETATM    6  C   UNL     1     -10.137  14.262  70.016  1.00  0.00     0.762 A  
HETATM    7  C   UNL     1     -10.122  13.057  69.309  1.00  0.00     0.463 A  
HETATM    8  C   UNL     1     -10.321  13.042  67.929  1.00  0.00    -0.231 A  
HETATM    9  C   UNL     1     -10.387  11.825  67.098  1.00  0.00    -0.242 A  
HETATM   10  C   UNL     1     -10.816  10.587  67.609  1.00  0.00    -0.355 A  
HETATM   11  C   UNL     1     -10.920   9.515  66.744  1.00  0.00     0.193 A  
HETATM   12  C   UNL     1     -10.582   9.611  65.418  1.00  0.00     0.908 A  
HETATM   13  C   UNL     1     -10.130  10.789  64.871  1.00  0.00    -0.387 A  
HETATM   14  O   UNL     1     -10.787   8.452  64.743  1.00  0.00     5.673 OA 
HETATM   15  C   UNL     1     -11.383   7.637  65.775  1.00  0.00     5.319 C  
HETATM   16  C   UNL     1     -10.066  11.908  65.711  1.00  0.00    -0.272 A  
HETATM   17  C   UNL     1      -9.700  13.255  65.156  1.00  0.00     0.038 C  
HETATM   18  O   UNL     1     -11.384   8.280  67.070  1.00  0.00     0.576 OA 
HETATM   19  C   UNL     1     -10.630  14.270  65.799  1.00  0.00    -0.309 C  
HETATM   20  N   UNL     1     -10.472  14.226  67.281  1.00  0.00    -0.268 NA 
HETATM   21  C   UNL     1     -10.524  15.396  67.959  1.00  0.00    -0.257 A  
HETATM   22  C   UNL     1     -10.367  15.491  69.351  1.00  0.00    -0.258 A  
HETATM   23  C   UNL     1     -10.414  16.687  70.134  1.00  0.00     0.102 A  
BRANCH  23  24
HETATM   24  O   UNL     1     -10.627  17.978  69.727  1.00  0.00     0.330 OA 
HETATM   25  C   UNL     1     -10.495  18.454  68.407  1.00  0.00    -0.249 C  
ENDBRANCH  23  24
ENDBRANCH   2   3
TORSDOF 2
ENDMDL
