MODEL        1
REMARK 921   NORMALIZED FREE ENERGY PREDICTED BY IDOCK:   -7.71 KCAL/MOL
REMARK 922        TOTAL FREE ENERGY PREDICTED BY IDOCK:   -9.34 KCAL/MOL
REMARK 923 INTER-LIGAND FREE ENERGY PREDICTED BY IDOCK:   -8.61 KCAL/MOL
REMARK 924 INTRA-LIGAND FREE ENERGY PREDICTED BY IDOCK:   -0.74 KCAL/MOL
REMARK 927      BINDING AFFINITY PREDICTED BY RF-SCORE:    0.00 PKD
ROOT
HETATM    1  N   UNL     1     -12.756   7.301  70.668  1.00  0.00    -0.600 NA 
HETATM    2  C   UNL     1     -11.568   6.474  70.944  1.00  0.00    -0.359 C  
HETATM    3  H1  UNL     1     -12.906   7.405  69.664  1.00  0.00     0.000 HD 
HETATM    4  H2  UNL     1     -12.701   8.205  71.136  1.00  0.00     0.000 HD 
HETATM    5  C   UNL     1     -11.343   6.316  72.456  1.00  0.00    -0.313 C  
HETATM    6  C   UNL     1     -10.815   7.553  73.197  1.00  0.00    -0.448 C  
HETATM    7  C   UNL     1      -9.354   7.888  72.863  1.00  0.00    -0.309 C  
HETATM    8  C   UNL     1      -9.110   8.716  71.587  1.00  0.00    -0.247 C  
HETATM    9  N   UNL     1     -10.127   8.467  70.546  1.00  0.00    -0.188 NA 
HETATM   10  C   UNL     1     -10.305   7.024  70.243  1.00  0.00    -0.203 C  
ENDROOT
BRANCH   9  11
HETATM   11  C   UNL     1     -10.469   9.481  69.622  1.00  0.00    -0.223 A  
HETATM   12  C   UNL     1     -11.291  10.572  69.980  1.00  0.00    -0.318 A  
HETATM   13  C   UNL     1     -11.670  11.563  69.091  1.00  0.00    -0.395 A  
HETATM   14  F   UNL     1     -11.802  10.728  71.208  1.00  0.00    -0.407 F  
HETATM   15  C   UNL     1     -11.287  11.487  67.760  1.00  0.00    -0.364 A  
HETATM   16  C   UNL     1     -11.828  12.532  66.865  1.00  0.00    -0.334 C  
HETATM   17  C   UNL     1     -11.558  12.432  65.431  1.00  0.00    -0.426 C  
HETATM   18  O   UNL     1     -12.525  13.449  67.292  1.00  0.00    -0.194 OA 
HETATM   19  C   UNL     1     -12.129  13.355  64.435  1.00  0.00    -0.416 C  
HETATM   20  C   UNL     1     -10.747  11.432  65.051  1.00  0.00    -0.277 C  
HETATM   21  O   UNL     1     -12.920  14.324  64.943  1.00  0.00    -0.682 OA 
HETATM   22  N   UNL     1     -10.109  10.508  65.872  1.00  0.00    -0.253 NA 
HETATM   23  O   UNL     1     -11.913  13.260  63.228  1.00  0.00    -0.511 OA 
HETATM   24  C   UNL     1     -10.426  10.474  67.285  1.00  0.00    -0.250 A  
HETATM   25 CL   UNL     1      -8.556   8.551  67.925  1.00  0.00    -0.133 Cl 
HETATM   26  C   UNL     1      -9.966   9.528  68.266  1.00  0.00    -0.161 A  
BRANCH  22  27
HETATM   27  C   UNL     1      -9.275   9.488  65.190  1.00  0.00    -0.244 C  
HETATM   28  C   UNL     1      -7.904   9.867  64.667  1.00  0.00    -0.142 C  
HETATM   29  C   UNL     1      -8.968   9.475  63.703  1.00  0.00    -0.207 C  
ENDBRANCH  22  27
ENDBRANCH   9  11
TORSDOF 2
ENDMDL
MODEL        2
REMARK 921   NORMALIZED FREE ENERGY PREDICTED BY IDOCK:   -7.66 KCAL/MOL
REMARK 922        TOTAL FREE ENERGY PREDICTED BY IDOCK:   -9.29 KCAL/MOL
REMARK 923 INTER-LIGAND FREE ENERGY PREDICTED BY IDOCK:   -8.47 KCAL/MOL
REMARK 924 INTRA-LIGAND FREE ENERGY PREDICTED BY IDOCK:   -0.82 KCAL/MOL
REMARK 927      BINDING AFFINITY PREDICTED BY RF-SCORE:    0.00 PKD
ROOT
HETATM    1  N   UNL     1      -7.485  17.937  68.776  1.00  0.00    -0.279 NA 
HETATM    2  C   UNL     1      -7.333  18.241  67.343  1.00  0.00    -0.212 C  
HETATM    3  H1  UNL     1      -7.404  16.934  68.950  1.00  0.00     0.000 HD 
HETATM    4  H2  UNL     1      -8.356  18.314  69.150  1.00  0.00     0.000 HD 
HETATM    5  C   UNL     1      -7.454  19.750  67.081  1.00  0.00    -0.280 C  
HETATM    6  C   UNL     1      -8.865  20.348  67.191  1.00  0.00    -0.435 C  
HETATM    7  C   UNL     1      -9.799  19.923  66.049  1.00  0.00    -0.515 C  
HETATM    8  C   UNL     1     -10.508  18.564  66.206  1.00  0.00    -0.406 C  
HETATM    9  N   UNL     1      -9.712  17.596  66.984  1.00  0.00    -0.281 NA 
HETATM   10  C   UNL     1      -8.327  17.439  66.472  1.00  0.00    -0.273 C  
ENDROOT
BRANCH   9  11
HETATM   11  C   UNL     1     -10.352  16.594  67.750  1.00  0.00    -0.306 A  
HETATM   12  C   UNL     1     -10.798  16.831  69.069  1.00  0.00    -0.291 A  
HETATM   13  C   UNL     1     -11.398  15.864  69.855  1.00  0.00    -0.348 A  
HETATM   14  F   UNL     1     -10.651  18.010  69.687  1.00  0.00    -0.170 F  
HETATM   15  C   UNL     1     -11.539  14.569  69.378  1.00  0.00    -0.343 A  
HETATM   16  C   UNL     1     -12.094  13.581  70.328  1.00  0.00    -0.355 C  
HETATM   17  C   UNL     1     -12.150  12.176  69.921  1.00  0.00    -0.324 C  
HETATM   18  O   UNL     1     -12.465  13.905  71.453  1.00  0.00    -0.351 OA 
HETATM   19  C   UNL     1     -12.586  11.092  70.819  1.00  0.00    -0.369 C  
HETATM   20  C   UNL     1     -11.774  11.911  68.660  1.00  0.00    -0.323 C  
HETATM   21  O   UNL     1     -12.949  11.489  72.057  1.00  0.00    -0.433 OA 
HETATM   22  N   UNL     1     -11.374  12.825  67.692  1.00  0.00    -0.290 NA 
HETATM   23  O   UNL     1     -12.618   9.911  70.480  1.00  0.00    -0.203 OA 
HETATM   24  C   UNL     1     -11.180  14.212  68.060  1.00  0.00    -0.281 A  
HETATM   25 CL   UNL     1     -10.641  15.089  65.501  1.00  0.00    -0.348 Cl 
HETATM   26  C   UNL     1     -10.662  15.275  67.240  1.00  0.00    -0.311 A  
BRANCH  22  27
HETATM   27  C   UNL     1     -10.991  12.262  66.373  1.00  0.00    -0.287 C  
HETATM   28  C   UNL     1     -10.768  10.770  66.231  1.00  0.00    -0.205 C  
HETATM   29  C   UNL     1      -9.622  11.699  66.036  1.00  0.00    -0.249 C  
ENDBRANCH  22  27
ENDBRANCH   9  11
TORSDOF 2
ENDMDL
MODEL        3
REMARK 921   NORMALIZED FREE ENERGY PREDICTED BY IDOCK:   -7.62 KCAL/MOL
REMARK 922        TOTAL FREE ENERGY PREDICTED BY IDOCK:   -9.25 KCAL/MOL
REMARK 923 INTER-LIGAND FREE ENERGY PREDICTED BY IDOCK:   -8.50 KCAL/MOL
REMARK 924 INTRA-LIGAND FREE ENERGY PREDICTED BY IDOCK:   -0.75 KCAL/MOL
REMARK 927      BINDING AFFINITY PREDICTED BY RF-SCORE:    0.00 PKD
ROOT
HETATM    1  N   UNL     1      -7.608  18.139  68.709  1.00  0.00    -0.293 NA 
HETATM    2  C   UNL     1      -7.576  18.635  67.323  1.00  0.00    -0.226 C  
HETATM    3  H1  UNL     1      -7.263  17.181  68.765  1.00  0.00     0.000 HD 
HETATM    4  H2  UNL     1      -8.537  18.229  69.119  1.00  0.00     0.000 HD 
HETATM    5  C   UNL     1      -8.094  20.079  67.238  1.00  0.00    -0.357 C  
HETATM    6  C   UNL     1      -9.608  20.269  67.409  1.00  0.00    -0.569 C  
HETATM    7  C   UNL     1     -10.427  19.747  66.219  1.00  0.00    -0.614 C  
HETATM    8  C   UNL     1     -10.753  18.241  66.213  1.00  0.00    -0.155 C  
HETATM    9  N   UNL     1      -9.712  17.433  66.877  1.00  0.00    -0.274 NA 
HETATM   10  C   UNL     1      -8.348  17.705  66.358  1.00  0.00    -0.253 C  
ENDROOT
BRANCH   9  11
HETATM   11  C   UNL     1     -10.049  16.217  67.517  1.00  0.00    -0.258 A  
HETATM   12  C   UNL     1      -9.764  14.962  66.936  1.00  0.00    -0.240 A  
HETATM   13  C   UNL     1     -10.108  13.757  67.522  1.00  0.00    -0.241 A  
HETATM   14  F   UNL     1      -9.159  14.829  65.749  1.00  0.00    -0.266 F  
HETATM   15  C   UNL     1     -10.816  13.741  68.714  1.00  0.00    -0.281 A  
HETATM   16  C   UNL     1     -11.232  12.410  69.207  1.00  0.00    -0.201 C  
HETATM   17  C   UNL     1     -12.086  12.340  70.393  1.00  0.00    -0.385 C  
HETATM   18  O   UNL     1     -10.911  11.377  68.624  1.00  0.00    -0.190 OA 
HETATM   19  C   UNL     1     -12.645  11.079  70.913  1.00  0.00    -0.391 C  
HETATM   20  C   UNL     1     -12.350  13.507  71.001  1.00  0.00    -0.338 C  
HETATM   21  O   UNL     1     -12.298   9.974  70.220  1.00  0.00    -0.190 OA 
HETATM   22  N   UNL     1     -11.871  14.765  70.650  1.00  0.00    -0.287 NA 
HETATM   23  O   UNL     1     -13.375  11.024  71.901  1.00  0.00    -0.422 OA 
HETATM   24  C   UNL     1     -11.121  14.924  69.421  1.00  0.00    -0.280 A  
HETATM   25 CL   UNL     1     -10.531  17.588  69.818  1.00  0.00     0.150 Cl 
HETATM   26  C   UNL     1     -10.647  16.148  68.833  1.00  0.00    -0.275 A  
BRANCH  22  27
HETATM   27  C   UNL     1     -12.333  15.901  71.486  1.00  0.00    -0.448 C  
HETATM   28  C   UNL     1     -11.912  15.983  72.939  1.00  0.00    -0.611 C  
HETATM   29  C   UNL     1     -13.350  15.792  72.608  1.00  0.00    -0.607 C  
ENDBRANCH  22  27
ENDBRANCH   9  11
TORSDOF 2
ENDMDL
MODEL        4
REMARK 921   NORMALIZED FREE ENERGY PREDICTED BY IDOCK:   -7.53 KCAL/MOL
REMARK 922        TOTAL FREE ENERGY PREDICTED BY IDOCK:   -9.14 KCAL/MOL
REMARK 923 INTER-LIGAND FREE ENERGY PREDICTED BY IDOCK:   -8.44 KCAL/MOL
REMARK 924 INTRA-LIGAND FREE ENERGY PREDICTED BY IDOCK:   -0.71 KCAL/MOL
REMARK 927      BINDING AFFINITY PREDICTED BY RF-SCORE:    0.00 PKD
ROOT
HETATM    1  N   UNL     1      -9.172   8.283  70.529  1.00  0.00    -0.149 NA 
HETATM    2  C   UNL     1      -9.867   7.926  71.778  1.00  0.00    -0.173 C  
HETATM    3  H1  UNL     1      -8.778   9.223  70.583  1.00  0.00     0.000 HD 
HETATM    4  H2  UNL     1      -9.780   8.178  69.717  1.00  0.00     0.000 HD 
HETATM    5  C   UNL     1     -10.460   6.511  71.696  1.00  0.00    -0.241 C  
HETATM    6  C   UNL     1     -11.700   6.344  70.806  1.00  0.00    -0.378 C  
HETATM    7  C   UNL     1     -12.961   7.000  71.385  1.00  0.00    -0.395 C  
HETATM    8  C   UNL     1     -13.139   8.508  71.119  1.00  0.00    -0.038 C  
HETATM    9  N   UNL     1     -11.852   9.220  71.008  1.00  0.00    -0.295 NA 
HETATM   10  C   UNL     1     -10.947   8.966  72.157  1.00  0.00    -0.279 C  
ENDROOT
BRANCH   9  11
HETATM   11  C   UNL     1     -11.740  10.375  70.199  1.00  0.00    -0.312 A  
HETATM   12  C   UNL     1     -11.328  10.306  68.850  1.00  0.00    -0.173 A  
HETATM   13  C   UNL     1     -11.178  11.420  68.043  1.00  0.00    -0.346 A  
HETATM   14  F   UNL     1     -11.016   9.156  68.241  1.00  0.00    -0.232 F  
HETATM   15  C   UNL     1     -11.382  12.689  68.564  1.00  0.00    -0.333 A  
HETATM   16  C   UNL     1     -11.094  13.821  67.656  1.00  0.00    -0.273 C  
HETATM   17  C   UNL     1     -11.173  15.181  68.189  1.00  0.00    -0.326 C  
HETATM   18  O   UNL     1     -10.755  13.641  66.489  1.00  0.00    -0.282 OA 
HETATM   19  C   UNL     1     -10.810  16.377  67.408  1.00  0.00    -0.219 C  
HETATM   20  C   UNL     1     -11.600  15.295  69.456  1.00  0.00    -0.322 C  
HETATM   21  O   UNL     1     -10.406  16.130  66.144  1.00  0.00    -0.309 OA 
HETATM   22  N   UNL     1     -12.009  14.269  70.302  1.00  0.00    -0.308 NA 
HETATM   23  O   UNL     1     -10.862  17.518  67.863  1.00  0.00    -0.374 OA 
HETATM   24  C   UNL     1     -11.843  12.893  69.882  1.00  0.00    -0.303 A  
HETATM   25 CL   UNL     1     -13.098  11.797  72.080  1.00  0.00    -0.537 Cl 
HETATM   26  C   UNL     1     -12.093  11.703  70.652  1.00  0.00    -0.335 A  
BRANCH  22  27
HETATM   27  C   UNL     1     -12.421  14.670  71.670  1.00  0.00    -0.345 C  
HETATM   28  C   UNL     1     -13.696  15.464  71.867  1.00  0.00    -0.603 C  
HETATM   29  C   UNL     1     -12.389  16.091  72.202  1.00  0.00    -0.557 C  
ENDBRANCH  22  27
ENDBRANCH   9  11
TORSDOF 2
ENDMDL
MODEL        5
REMARK 921   NORMALIZED FREE ENERGY PREDICTED BY IDOCK:   -7.50 KCAL/MOL
REMARK 922        TOTAL FREE ENERGY PREDICTED BY IDOCK:   -9.12 KCAL/MOL
REMARK 923 INTER-LIGAND FREE ENERGY PREDICTED BY IDOCK:   -8.30 KCAL/MOL
REMARK 924 INTRA-LIGAND FREE ENERGY PREDICTED BY IDOCK:   -0.81 KCAL/MOL
REMARK 927      BINDING AFFINITY PREDICTED BY RF-SCORE:    0.00 PKD
ROOT
HETATM    1  N   UNL     1     -12.869  12.968  64.678  1.00  0.00    -0.732 NA 
HETATM    2  C   UNL     1     -11.666  13.090  63.838  1.00  0.00    -0.468 C  
HETATM    3  H1  UNL     1     -13.153  13.876  65.048  1.00  0.00     0.000 HD 
HETATM    4  H2  UNL     1     -12.740  12.283  65.423  1.00  0.00     0.000 HD 
HETATM    5  C   UNL     1     -11.239  11.724  63.280  1.00  0.00    -0.357 C  
HETATM    6  C   UNL     1     -10.598  10.752  64.282  1.00  0.00    -0.225 C  
HETATM    7  C   UNL     1      -9.193  11.175  64.731  1.00  0.00    -0.157 C  
HETATM    8  C   UNL     1      -9.114  12.199  65.881  1.00  0.00     0.002 C  
HETATM    9  N   UNL     1     -10.266  13.120  65.898  1.00  0.00    -0.287 NA 
HETATM   10  C   UNL     1     -10.503  13.779  64.588  1.00  0.00    -0.412 C  
ENDROOT
BRANCH   9  11
HETATM   11  C   UNL     1     -10.719  13.678  67.117  1.00  0.00    -0.277 A  
HETATM   12  C   UNL     1     -10.546  15.046  67.423  1.00  0.00    -0.271 A  
HETATM   13  C   UNL     1     -10.949  15.615  68.617  1.00  0.00    -0.294 A  
HETATM   14  F   UNL     1      -9.948  15.909  66.592  1.00  0.00    -0.231 F  
HETATM   15  C   UNL     1     -11.507  14.824  69.611  1.00  0.00    -0.327 A  
HETATM   16  C   UNL     1     -11.807  15.501  70.891  1.00  0.00    -0.371 C  
HETATM   17  C   UNL     1     -12.281  14.692  72.015  1.00  0.00    -0.372 C  
HETATM   18  O   UNL     1     -11.629  16.708  71.040  1.00  0.00    -0.191 OA 
HETATM   19  C   UNL     1     -12.513  15.239  73.363  1.00  0.00    -0.517 C  
HETATM   20  C   UNL     1     -12.497  13.393  71.757  1.00  0.00    -0.023 C  
HETATM   21  O   UNL     1     -12.269  16.561  73.491  1.00  0.00    -0.488 OA 
HETATM   22  N   UNL     1     -12.357  12.743  70.536  1.00  0.00    -0.318 NA 
HETATM   23  O   UNL     1     -12.896  14.555  74.310  1.00  0.00    -0.133 OA 
HETATM   24  C   UNL     1     -11.778  13.453  69.414  1.00  0.00    -0.325 A  
HETATM   25 CL   UNL     1     -12.158  11.418  67.592  1.00  0.00     0.008 Cl 
HETATM   26  C   UNL     1     -11.446  12.927  68.117  1.00  0.00    -0.315 A  
BRANCH  22  27
HETATM   27  C   UNL     1     -12.647  11.288  70.528  1.00  0.00    -0.246 C  
HETATM   28  C   UNL     1     -12.876  10.560  71.838  1.00  0.00    -0.509 C  
HETATM   29  C   UNL     1     -11.690  10.212  71.009  1.00  0.00    -0.470 C  
ENDBRANCH  22  27
ENDBRANCH   9  11
TORSDOF 2
ENDMDL
MODEL        6
REMARK 921   NORMALIZED FREE ENERGY PREDICTED BY IDOCK:   -7.41 KCAL/MOL
REMARK 922        TOTAL FREE ENERGY PREDICTED BY IDOCK:   -9.01 KCAL/MOL
REMARK 923 INTER-LIGAND FREE ENERGY PREDICTED BY IDOCK:   -8.63 KCAL/MOL
REMARK 924 INTRA-LIGAND FREE ENERGY PREDICTED BY IDOCK:   -0.39 KCAL/MOL
REMARK 927      BINDING AFFINITY PREDICTED BY RF-SCORE:    0.00 PKD
ROOT
HETATM    1  N   UNL     1      -8.906   8.534  72.673  1.00  0.00    -0.361 NA 
HETATM    2  C   UNL     1      -9.930   7.663  73.275  1.00  0.00    -0.320 C  
HETATM    3  H1  UNL     1      -9.128   9.519  72.820  1.00  0.00     0.000 HD 
HETATM    4  H2  UNL     1      -8.767   8.324  71.685  1.00  0.00     0.000 HD 
HETATM    5  C   UNL     1      -9.595   6.180  73.054  1.00  0.00    -0.150 C  
HETATM    6  C   UNL     1      -9.791   5.644  71.628  1.00  0.00    -0.213 C  
HETATM    7  C   UNL     1     -11.265   5.526  71.217  1.00  0.00    -0.055 C  
HETATM    8  C   UNL     1     -11.938   6.806  70.683  1.00  0.00    -0.362 C  
HETATM    9  N   UNL     1     -11.374   8.033  71.278  1.00  0.00    -0.259 NA 
HETATM   10  C   UNL     1     -11.349   8.000  72.763  1.00  0.00    -0.374 C  
ENDROOT
BRANCH   9  11
HETATM   11  C   UNL     1     -11.367   9.245  70.550  1.00  0.00    -0.258 A  
HETATM   12  C   UNL     1     -10.718   9.364  69.302  1.00  0.00    -0.211 A  
HETATM   13  C   UNL     1     -10.667  10.544  68.580  1.00  0.00    -0.259 A  
HETATM   14  F   UNL     1     -10.067   8.350  68.719  1.00  0.00    -0.175 F  
HETATM   15  C   UNL     1     -11.225  11.702  69.100  1.00  0.00    -0.325 A  
HETATM   16  C   UNL     1     -11.027  12.934  68.307  1.00  0.00    -0.256 C  
HETATM   17  C   UNL     1     -11.486  14.206  68.866  1.00  0.00    -0.327 C  
HETATM   18  O   UNL     1     -10.456  12.916  67.219  1.00  0.00    -0.232 OA 
HETATM   19  C   UNL     1     -11.252  15.507  68.214  1.00  0.00    -0.343 C  
HETATM   20  C   UNL     1     -12.145  14.135  70.033  1.00  0.00    -0.346 C  
HETATM   21  O   UNL     1     -10.588  15.444  67.041  1.00  0.00    -0.296 OA 
HETATM   22  N   UNL     1     -12.470  12.986  70.746  1.00  0.00    -0.339 NA 
HETATM   23  O   UNL     1     -11.625  16.576  68.693  1.00  0.00    -0.261 OA 
HETATM   24  C   UNL     1     -11.944  11.708  70.314  1.00  0.00    -0.358 A  
HETATM   25 CL   UNL     1     -13.308  10.217  72.192  1.00  0.00    -0.510 Cl 
HETATM   26  C   UNL     1     -12.069  10.437  70.977  1.00  0.00    -0.385 A  
BRANCH  22  27
HETATM   27  C   UNL     1     -13.194  13.190  72.026  1.00  0.00    -0.446 C  
HETATM   28  C   UNL     1     -14.269  14.253  72.120  1.00  0.00    -0.632 C  
HETATM   29  C   UNL     1     -13.030  14.398  72.930  1.00  0.00    -0.575 C  
ENDBRANCH  22  27
ENDBRANCH   9  11
TORSDOF 2
ENDMDL
MODEL        7
REMARK 921   NORMALIZED FREE ENERGY PREDICTED BY IDOCK:   -7.28 KCAL/MOL
REMARK 922        TOTAL FREE ENERGY PREDICTED BY IDOCK:   -8.87 KCAL/MOL
REMARK 923 INTER-LIGAND FREE ENERGY PREDICTED BY IDOCK:   -8.13 KCAL/MOL
REMARK 924 INTRA-LIGAND FREE ENERGY PREDICTED BY IDOCK:   -0.74 KCAL/MOL
REMARK 927      BINDING AFFINITY PREDICTED BY RF-SCORE:    0.00 PKD
ROOT
HETATM    1  N   UNL     1      -8.319  16.014  68.654  1.00  0.00    -0.190 NA 
HETATM    2  C   UNL     1      -8.116  16.128  67.199  1.00  0.00    -0.192 C  
HETATM    3  H1  UNL     1      -7.924  15.144  69.012  1.00  0.00     0.000 HD 
HETATM    4  H2  UNL     1      -9.303  16.112  68.905  1.00  0.00     0.000 HD 
HETATM    5  C   UNL     1      -8.710  17.438  66.659  1.00  0.00    -0.286 C  
HETATM    6  C   UNL     1     -10.242  17.509  66.582  1.00  0.00    -0.332 C  
HETATM    7  C   UNL     1     -10.842  16.613  65.489  1.00  0.00    -0.170 C  
HETATM    8  C   UNL     1     -11.063  15.132  65.855  1.00  0.00    -0.319 C  
HETATM    9  N   UNL     1     -10.081  14.638  66.839  1.00  0.00    -0.252 NA 
HETATM   10  C   UNL     1      -8.675  14.903  66.439  1.00  0.00    -0.082 C  
ENDROOT
BRANCH   9  11
HETATM   11  C   UNL     1     -10.427  13.606  67.741  1.00  0.00    -0.240 A  
HETATM   12  C   UNL     1      -9.984  12.277  67.562  1.00  0.00    -0.199 A  
HETATM   13  C   UNL     1     -10.331  11.239  68.409  1.00  0.00    -0.207 A  
HETATM   14  F   UNL     1      -9.210  11.898  66.538  1.00  0.00    -0.190 F  
HETATM   15  C   UNL     1     -11.199  11.465  69.467  1.00  0.00    -0.322 A  
HETATM   16  C   UNL     1     -11.595  10.275  70.251  1.00  0.00    -0.316 C  
HETATM   17  C   UNL     1     -12.603  10.434  71.300  1.00  0.00    -0.525 C  
HETATM   18  O   UNL     1     -11.131   9.163  70.014  1.00  0.00    -0.235 OA 
HETATM   19  C   UNL     1     -13.149   9.304  72.073  1.00  0.00    -0.436 C  
HETATM   20  C   UNL     1     -13.023  11.688  71.531  1.00  0.00    -0.358 C  
HETATM   21  O   UNL     1     -12.638   8.096  71.754  1.00  0.00    -0.309 OA 
HETATM   22  N   UNL     1     -12.579  12.851  70.910  1.00  0.00    -0.320 NA 
HETATM   23  O   UNL     1     -14.006   9.438  72.944  1.00  0.00    -0.345 OA 
HETATM   24  C   UNL     1     -11.675  12.756  69.784  1.00  0.00    -0.282 A  
HETATM   25 CL   UNL     1     -11.316  15.476  69.507  1.00  0.00    -0.289 Cl 
HETATM   26  C   UNL     1     -11.200  13.824  68.945  1.00  0.00    -0.272 A  
BRANCH  22  27
HETATM   27  C   UNL     1     -13.226  14.114  71.344  1.00  0.00    -0.347 C  
HETATM   28  C   UNL     1     -13.038  14.604  72.766  1.00  0.00    -0.580 C  
HETATM   29  C   UNL     1     -14.396  14.202  72.307  1.00  0.00    -0.533 C  
ENDBRANCH  22  27
ENDBRANCH   9  11
TORSDOF 2
ENDMDL
MODEL        8
REMARK 921   NORMALIZED FREE ENERGY PREDICTED BY IDOCK:   -7.09 KCAL/MOL
REMARK 922        TOTAL FREE ENERGY PREDICTED BY IDOCK:   -8.66 KCAL/MOL
REMARK 923 INTER-LIGAND FREE ENERGY PREDICTED BY IDOCK:   -7.97 KCAL/MOL
REMARK 924 INTRA-LIGAND FREE ENERGY PREDICTED BY IDOCK:   -0.69 KCAL/MOL
REMARK 927      BINDING AFFINITY PREDICTED BY RF-SCORE:    0.00 PKD
ROOT
HETATM    1  N   UNL     1     -12.814  12.625  65.321  1.00  0.00    -0.655 NA 
HETATM    2  C   UNL     1     -12.658  14.081  65.488  1.00  0.00    -0.516 C  
HETATM    3  H1  UNL     1     -13.483  12.248  65.992  1.00  0.00     0.000 HD 
HETATM    4  H2  UNL     1     -11.917  12.143  65.373  1.00  0.00     0.000 HD 
HETATM    5  C   UNL     1     -11.651  14.650  64.477  1.00  0.00    -0.377 C  
HETATM    6  C   UNL     1     -10.172  14.330  64.738  1.00  0.00    -0.284 C  
HETATM    7  C   UNL     1      -9.593  15.067  65.955  1.00  0.00    -0.356 C  
HETATM    8  C   UNL     1      -9.837  14.422  67.333  1.00  0.00    -0.224 C  
HETATM    9  N   UNL     1     -11.102  13.666  67.389  1.00  0.00    -0.276 NA 
HETATM   10  C   UNL     1     -12.273  14.459  66.937  1.00  0.00    -0.267 C  
ENDROOT
BRANCH   9  11
HETATM   11  C   UNL     1     -11.233  12.550  68.248  1.00  0.00    -0.266 A  
HETATM   12  C   UNL     1     -11.901  12.636  69.490  1.00  0.00    -0.312 A  
HETATM   13  C   UNL     1     -12.018  11.571  70.366  1.00  0.00    -0.459 A  
HETATM   14  F   UNL     1     -12.456  13.767  69.942  1.00  0.00    -0.360 F  
HETATM   15  C   UNL     1     -11.417  10.357  70.069  1.00  0.00    -0.382 A  
HETATM   16  C   UNL     1     -11.505   9.314  71.114  1.00  0.00    -0.333 C  
HETATM   17  C   UNL     1     -10.784   8.057  70.908  1.00  0.00    -0.240 C  
HETATM   18  O   UNL     1     -12.130   9.495  72.155  1.00  0.00    -0.313 OA 
HETATM   19  C   UNL     1     -10.716   6.990  71.922  1.00  0.00    -0.217 C  
HETATM   20  C   UNL     1     -10.168   7.916  69.724  1.00  0.00    -0.212 C  
HETATM   21  O   UNL     1     -11.385   7.247  73.065  1.00  0.00    -0.285 OA 
HETATM   22  N   UNL     1     -10.171   8.815  68.663  1.00  0.00    -0.191 NA 
HETATM   23  O   UNL     1     -10.098   5.941  71.753  1.00  0.00    -0.181 OA 
HETATM   24  C   UNL     1     -10.761  10.126  68.841  1.00  0.00    -0.223 A  
HETATM   25 CL   UNL     1     -10.423  10.923  66.223  1.00  0.00    -0.311 Cl 
HETATM   26  C   UNL     1     -10.759  11.224  67.913  1.00  0.00    -0.207 A  
BRANCH  22  27
HETATM   27  C   UNL     1      -9.390   8.419  67.464  1.00  0.00    -0.147 C  
HETATM   28  C   UNL     1      -9.853   7.251  66.618  1.00  0.00    -0.257 C  
HETATM   29  C   UNL     1      -8.562   7.152  67.351  1.00  0.00    -0.121 C  
ENDBRANCH  22  27
ENDBRANCH   9  11
TORSDOF 2
ENDMDL
MODEL        9
REMARK 921   NORMALIZED FREE ENERGY PREDICTED BY IDOCK:   -7.07 KCAL/MOL
REMARK 922        TOTAL FREE ENERGY PREDICTED BY IDOCK:   -8.63 KCAL/MOL
REMARK 923 INTER-LIGAND FREE ENERGY PREDICTED BY IDOCK:   -7.85 KCAL/MOL
REMARK 924 INTRA-LIGAND FREE ENERGY PREDICTED BY IDOCK:   -0.78 KCAL/MOL
REMARK 927      BINDING AFFINITY PREDICTED BY RF-SCORE:    0.00 PKD
ROOT
HETATM    1  N   UNL     1      -7.357  17.184  68.847  1.00  0.00    -0.242 NA 
HETATM    2  C   UNL     1      -7.564  18.147  67.752  1.00  0.00    -0.222 C  
HETATM    3  H1  UNL     1      -7.054  16.278  68.488  1.00  0.00     0.000 HD 
HETATM    4  H2  UNL     1      -8.188  17.097  69.433  1.00  0.00     0.000 HD 
HETATM    5  C   UNL     1      -8.019  19.511  68.292  1.00  0.00    -0.368 C  
HETATM    6  C   UNL     1      -9.463  19.590  68.808  1.00  0.00    -0.447 C  
HETATM    7  C   UNL     1     -10.515  19.514  67.693  1.00  0.00    -0.593 C  
HETATM    8  C   UNL     1     -10.908  18.104  67.209  1.00  0.00    -0.217 C  
HETATM    9  N   UNL     1      -9.801  17.136  67.325  1.00  0.00    -0.258 NA 
HETATM   10  C   UNL     1      -8.546  17.610  66.686  1.00  0.00    -0.257 C  
ENDROOT
BRANCH   9  11
HETATM   11  C   UNL     1     -10.068  15.764  67.539  1.00  0.00    -0.245 A  
HETATM   12  C   UNL     1     -10.218  15.224  68.835  1.00  0.00    -0.232 A  
HETATM   13  C   UNL     1     -10.449  13.882  69.078  1.00  0.00    -0.147 A  
HETATM   14  F   UNL     1     -10.120  15.962  69.948  1.00  0.00    -0.252 F  
HETATM   15  C   UNL     1     -10.489  12.981  68.024  1.00  0.00    -0.234 A  
HETATM   16  C   UNL     1     -10.633  11.556  68.390  1.00  0.00    -0.201 C  
HETATM   17  C   UNL     1     -10.557  10.551  67.329  1.00  0.00    -0.317 C  
HETATM   18  O   UNL     1     -10.772  11.200  69.558  1.00  0.00    -0.222 OA 
HETATM   19  C   UNL     1     -10.585   9.100  67.586  1.00  0.00    -0.242 C  
HETATM   20  C   UNL     1     -10.455  11.022  66.076  1.00  0.00    -0.245 C  
HETATM   21  O   UNL     1     -10.700   8.755  68.886  1.00  0.00    -0.187 OA 
HETATM   22  N   UNL     1     -10.451  12.354  65.676  1.00  0.00    -0.255 NA 
HETATM   23  O   UNL     1     -10.506   8.258  66.695  1.00  0.00    -0.305 OA 
HETATM   24  C   UNL     1     -10.402  13.398  66.678  1.00  0.00    -0.269 A  
HETATM   25 CL   UNL     1     -10.639  15.486  64.893  1.00  0.00    -0.430 Cl 
HETATM   26  C   UNL     1     -10.274  14.815  66.466  1.00  0.00    -0.276 A  
BRANCH  22  27
HETATM   27  C   UNL     1     -10.310  12.602  64.220  1.00  0.00    -0.374 C  
HETATM   28  C   UNL     1     -11.307  11.995  63.254  1.00  0.00    -0.396 C  
HETATM   29  C   UNL     1      -9.884  11.560  63.201  1.00  0.00    -0.413 C  
ENDBRANCH  22  27
ENDBRANCH   9  11
TORSDOF 2
ENDMDL
MODEL       10
REMARK 921   NORMALIZED FREE ENERGY PREDICTED BY IDOCK:   -7.07 KCAL/MOL
REMARK 922        TOTAL FREE ENERGY PREDICTED BY IDOCK:   -8.63 KCAL/MOL
REMARK 923 INTER-LIGAND FREE ENERGY PREDICTED BY IDOCK:   -7.83 KCAL/MOL
REMARK 924 INTRA-LIGAND FREE ENERGY PREDICTED BY IDOCK:   -0.80 KCAL/MOL
REMARK 927      BINDING AFFINITY PREDICTED BY RF-SCORE:    0.00 PKD
ROOT
HETATM    1  N   UNL     1      -8.998  15.900  68.618  1.00  0.00    -0.192 NA 
HETATM    2  C   UNL     1      -8.536  15.818  67.222  1.00  0.00    -0.189 C  
HETATM    3  H1  UNL     1      -8.682  15.094  69.158  1.00  0.00     0.000 HD 
HETATM    4  H2  UNL     1     -10.010  16.015  68.673  1.00  0.00     0.000 HD 
HETATM    5  C   UNL     1      -9.011  17.032  66.409  1.00  0.00    -0.308 C  
HETATM    6  C   UNL     1     -10.504  17.067  66.049  1.00  0.00    -0.280 C  
HETATM    7  C   UNL     1     -10.904  16.020  65.000  1.00  0.00    -0.421 C  
HETATM    8  C   UNL     1     -11.200  14.599  65.520  1.00  0.00    -0.343 C  
HETATM    9  N   UNL     1     -10.415  14.260  66.722  1.00  0.00    -0.272 NA 
HETATM   10  C   UNL     1      -8.958  14.492  66.549  1.00  0.00    -0.180 C  
ENDROOT
BRANCH   9  11
HETATM   11  C   UNL     1     -10.927  13.355  67.680  1.00  0.00    -0.259 A  
HETATM   12  C   UNL     1     -11.764  13.777  68.736  1.00  0.00    -0.356 A  
HETATM   13  C   UNL     1     -12.255  12.922  69.706  1.00  0.00    -0.227 A  
HETATM   14  F   UNL     1     -12.134  15.052  68.908  1.00  0.00    -0.325 F  
HETATM   15  C   UNL     1     -11.886  11.585  69.706  1.00  0.00    -0.429 A  
HETATM   16  C   UNL     1     -12.373  10.773  70.842  1.00  0.00    -0.396 C  
HETATM   17  C   UNL     1     -11.914   9.389  70.960  1.00  0.00    -0.389 C  
HETATM   18  O   UNL     1     -13.115  11.245  71.701  1.00  0.00    -0.451 OA 
HETATM   19  C   UNL     1     -12.251   8.520  72.102  1.00  0.00    -0.382 C  
HETATM   20  C   UNL     1     -11.148   8.933  69.957  1.00  0.00    -0.170 C  
HETATM   21  O   UNL     1     -13.036   9.092  73.040  1.00  0.00    -0.295 OA 
HETATM   22  N   UNL     1     -10.776   9.619  68.805  1.00  0.00    -0.221 NA 
HETATM   23  O   UNL     1     -11.852   7.363  72.207  1.00  0.00    -0.291 OA 
HETATM   24  C   UNL     1     -11.094  11.026  68.680  1.00  0.00    -0.240 A  
HETATM   25 CL   UNL     1     -10.149  11.279  66.102  1.00  0.00    -0.267 Cl 
HETATM   26  C   UNL     1     -10.697  11.927  67.631  1.00  0.00    -0.215 A  
BRANCH  22  27
HETATM   27  C   UNL     1      -9.904   8.883  67.856  1.00  0.00    -0.169 C  
HETATM   28  C   UNL     1     -10.493   7.787  66.990  1.00  0.00    -0.419 C  
HETATM   29  C   UNL     1      -9.475   7.436  68.018  1.00  0.00    -0.146 C  
ENDBRANCH  22  27
ENDBRANCH   9  11
TORSDOF 2
ENDMDL
MODEL       11
REMARK 921   NORMALIZED FREE ENERGY PREDICTED BY IDOCK:   -7.02 KCAL/MOL
REMARK 922        TOTAL FREE ENERGY PREDICTED BY IDOCK:   -8.57 KCAL/MOL
REMARK 923 INTER-LIGAND FREE ENERGY PREDICTED BY IDOCK:   -7.93 KCAL/MOL
REMARK 924 INTRA-LIGAND FREE ENERGY PREDICTED BY IDOCK:   -0.64 KCAL/MOL
REMARK 927      BINDING AFFINITY PREDICTED BY RF-SCORE:    0.00 PKD
ROOT
HETATM    1  N   UNL     1     -12.735  12.604  65.410  1.00  0.00    -0.582 NA 
HETATM    2  C   UNL     1     -12.538  14.034  65.700  1.00  0.00    -0.512 C  
HETATM    3  H1  UNL     1     -13.424  12.192  66.040  1.00  0.00     0.000 HD 
HETATM    4  H2  UNL     1     -11.854  12.091  65.431  1.00  0.00     0.000 HD 
HETATM    5  C   UNL     1     -11.502  14.654  64.750  1.00  0.00    -0.410 C  
HETATM    6  C   UNL     1     -10.036  14.269  64.999  1.00  0.00    -0.324 C  
HETATM    7  C   UNL     1      -9.451  14.883  66.279  1.00  0.00    -0.339 C  
HETATM    8  C   UNL     1      -9.732  14.133  67.595  1.00  0.00    -0.228 C  
HETATM    9  N   UNL     1     -11.020  13.414  67.575  1.00  0.00    -0.263 NA 
HETATM   10  C   UNL     1     -12.161  14.279  67.179  1.00  0.00    -0.377 C  
ENDROOT
BRANCH   9  11
HETATM   11  C   UNL     1     -11.194  12.235  68.337  1.00  0.00    -0.266 A  
HETATM   12  C   UNL     1     -11.860  12.241  69.582  1.00  0.00    -0.324 A  
HETATM   13  C   UNL     1     -12.020  11.111  70.364  1.00  0.00    -0.469 A  
HETATM   14  F   UNL     1     -12.372  13.350  70.130  1.00  0.00    -0.357 F  
HETATM   15  C   UNL     1     -11.465   9.904  69.965  1.00  0.00    -0.274 A  
HETATM   16  C   UNL     1     -11.595   8.780  70.916  1.00  0.00    -0.277 C  
HETATM   17  C   UNL     1     -10.923   7.518  70.603  1.00  0.00    -0.263 C  
HETATM   18  O   UNL     1     -12.214   8.896  71.971  1.00  0.00    -0.338 OA 
HETATM   19  C   UNL     1     -10.898   6.366  71.522  1.00  0.00    -0.254 C  
HETATM   20  C   UNL     1     -10.311   7.455  69.410  1.00  0.00    -0.210 C  
HETATM   21  O   UNL     1     -11.558   6.551  72.685  1.00  0.00    -0.240 OA 
HETATM   22  N   UNL     1     -10.278   8.440  68.429  1.00  0.00    -0.202 NA 
HETATM   23  O   UNL     1     -10.320   5.313  71.263  1.00  0.00    -0.216 OA 
HETATM   24  C   UNL     1     -10.817   9.753  68.720  1.00  0.00    -0.188 A  
HETATM   25 CL   UNL     1     -10.446  10.757  66.178  1.00  0.00    -0.299 Cl 
HETATM   26  C   UNL     1     -10.772  10.926  67.888  1.00  0.00    -0.231 A  
BRANCH  22  27
HETATM   27  C   UNL     1      -9.512   8.118  67.200  1.00  0.00    -0.161 C  
HETATM   28  C   UNL     1      -9.589   6.724  66.610  1.00  0.00    -0.211 C  
HETATM   29  C   UNL     1      -8.292   7.215  67.152  1.00  0.00    -0.118 C  
ENDBRANCH  22  27
ENDBRANCH   9  11
TORSDOF 2
ENDMDL
MODEL       12
REMARK 921   NORMALIZED FREE ENERGY PREDICTED BY IDOCK:   -7.01 KCAL/MOL
REMARK 922        TOTAL FREE ENERGY PREDICTED BY IDOCK:   -8.57 KCAL/MOL
REMARK 923 INTER-LIGAND FREE ENERGY PREDICTED BY IDOCK:   -7.86 KCAL/MOL
REMARK 924 INTRA-LIGAND FREE ENERGY PREDICTED BY IDOCK:   -0.71 KCAL/MOL
REMARK 927      BINDING AFFINITY PREDICTED BY RF-SCORE:    0.00 PKD
ROOT
HETATM    1  N   UNL     1     -12.575   7.134  70.609  1.00  0.00    -0.610 NA 
HETATM    2  C   UNL     1     -11.377   6.408  71.064  1.00  0.00    -0.328 C  
HETATM    3  H1  UNL     1     -12.724   7.006  69.608  1.00  0.00     0.000 HD 
HETATM    4  H2  UNL     1     -12.534   8.122  70.860  1.00  0.00     0.000 HD 
HETATM    5  C   UNL     1     -11.152   6.601  72.572  1.00  0.00    -0.296 C  
HETATM    6  C   UNL     1     -10.643   7.981  73.013  1.00  0.00    -0.332 C  
HETATM    7  C   UNL     1      -9.186   8.252  72.610  1.00  0.00    -0.345 C  
HETATM    8  C   UNL     1      -8.952   8.772  71.178  1.00  0.00    -0.222 C  
HETATM    9  N   UNL     1      -9.962   8.279  70.223  1.00  0.00    -0.184 NA 
HETATM   10  C   UNL     1     -10.119   6.803  70.255  1.00  0.00    -0.179 C  
ENDROOT
BRANCH   9  11
HETATM   11  C   UNL     1     -10.317   9.052  69.093  1.00  0.00    -0.219 A  
HETATM   12  C   UNL     1     -10.106   8.591  67.775  1.00  0.00    -0.211 A  
HETATM   13  C   UNL     1     -10.413   9.335  66.650  1.00  0.00    -0.237 A  
HETATM   14  F   UNL     1      -9.560   7.400  67.498  1.00  0.00    -0.136 F  
HETATM   15  C   UNL     1     -10.906  10.625  66.783  1.00  0.00    -0.233 A  
HETATM   16  C   UNL     1     -11.103  11.380  65.527  1.00  0.00    -0.136 C  
HETATM   17  C   UNL     1     -11.504  12.785  65.612  1.00  0.00    -0.379 C  
HETATM   18  O   UNL     1     -10.900  10.869  64.428  1.00  0.00    -0.299 OA 
HETATM   19  C   UNL     1     -11.630  13.662  64.435  1.00  0.00    -0.393 C  
HETATM   20  C   UNL     1     -11.755  13.254  66.845  1.00  0.00    -0.388 C  
HETATM   21  O   UNL     1     -11.361  13.070  63.252  1.00  0.00    -0.317 OA 
HETATM   22  N   UNL     1     -11.712  12.544  68.039  1.00  0.00    -0.346 NA 
HETATM   23  O   UNL     1     -11.951  14.846  64.510  1.00  0.00    -0.447 OA 
HETATM   24  C   UNL     1     -11.208  11.186  68.043  1.00  0.00    -0.296 A  
HETATM   25 CL   UNL     1     -11.746  10.714  70.706  1.00  0.00    -0.435 Cl 
HETATM   26  C   UNL     1     -10.978  10.336  69.181  1.00  0.00    -0.238 A  
BRANCH  22  27
HETATM   27  C   UNL     1     -12.020  13.311  69.272  1.00  0.00    -0.303 C  
HETATM   28  C   UNL     1     -12.155  14.819  69.203  1.00  0.00    -0.278 C  
HETATM   29  C   UNL     1     -11.041  14.223  69.991  1.00  0.00    -0.075 C  
ENDBRANCH  22  27
ENDBRANCH   9  11
TORSDOF 2
ENDMDL
MODEL       13
REMARK 921   NORMALIZED FREE ENERGY PREDICTED BY IDOCK:   -6.90 KCAL/MOL
REMARK 922        TOTAL FREE ENERGY PREDICTED BY IDOCK:   -8.45 KCAL/MOL
REMARK 923 INTER-LIGAND FREE ENERGY PREDICTED BY IDOCK:   -7.65 KCAL/MOL
REMARK 924 INTRA-LIGAND FREE ENERGY PREDICTED BY IDOCK:   -0.79 KCAL/MOL
REMARK 927      BINDING AFFINITY PREDICTED BY RF-SCORE:    0.00 PKD
ROOT
HETATM    1  N   UNL     1      -7.134  10.504  67.617  1.00  0.00    -0.083 NA 
HETATM    2  C   UNL     1      -7.811   9.539  68.501  1.00  0.00    -0.085 C  
HETATM    3  H1  UNL     1      -7.040  11.414  68.070  1.00  0.00     0.000 HD 
HETATM    4  H2  UNL     1      -7.603  10.580  66.714  1.00  0.00     0.000 HD 
HETATM    5  C   UNL     1      -7.951   8.169  67.820  1.00  0.00    -0.127 C  
HETATM    6  C   UNL     1      -8.995   8.071  66.698  1.00  0.00    -0.179 C  
HETATM    7  C   UNL     1     -10.443   8.135  67.203  1.00  0.00    -0.396 C  
HETATM    8  C   UNL     1     -11.030   9.540  67.443  1.00  0.00    -0.033 C  
HETATM    9  N   UNL     1     -10.004  10.522  67.844  1.00  0.00    -0.166 NA 
HETATM   10  C   UNL     1      -9.179  10.064  68.991  1.00  0.00    -0.178 C  
ENDROOT
BRANCH   9  11
HETATM   11  C   UNL     1     -10.158  11.890  67.522  1.00  0.00    -0.193 A  
HETATM   12  C   UNL     1      -9.837  12.399  66.245  1.00  0.00    -0.247 A  
HETATM   13  C   UNL     1      -9.948  13.737  65.910  1.00  0.00    -0.308 A  
HETATM   14  F   UNL     1      -9.369  11.634  65.252  1.00  0.00    -0.226 F  
HETATM   15  C   UNL     1     -10.339  14.664  66.865  1.00  0.00    -0.264 A  
HETATM   16  C   UNL     1     -10.324  16.081  66.443  1.00  0.00    -0.305 C  
HETATM   17  C   UNL     1     -10.607  17.111  67.443  1.00  0.00    -0.297 C  
HETATM   18  O   UNL     1     -10.041  16.409  65.293  1.00  0.00    -0.545 OA 
HETATM   19  C   UNL     1     -10.520  18.555  67.163  1.00  0.00    -0.409 C  
HETATM   20  C   UNL     1     -10.957  16.670  68.662  1.00  0.00    -0.328 C  
HETATM   21  O   UNL     1     -10.170  18.869  65.898  1.00  0.00    -0.505 OA 
HETATM   22  N   UNL     1     -11.113  15.348  69.065  1.00  0.00    -0.251 NA 
HETATM   23  O   UNL     1     -10.744  19.418  68.009  1.00  0.00    -0.377 OA 
HETATM   24  C   UNL     1     -10.734  14.280  68.164  1.00  0.00    -0.244 A  
HETATM   25 CL   UNL     1     -11.613  12.238  69.796  1.00  0.00    -0.345 Cl 
HETATM   26  C   UNL     1     -10.711  12.867  68.436  1.00  0.00    -0.255 A  
BRANCH  22  27
HETATM   27  C   UNL     1     -11.493  15.134  70.483  1.00  0.00    -0.304 C  
HETATM   28  C   UNL     1     -12.905  15.442  70.938  1.00  0.00    -0.536 C  
HETATM   29  C   UNL     1     -11.775  16.244  71.481  1.00  0.00    -0.467 C  
ENDBRANCH  22  27
ENDBRANCH   9  11
TORSDOF 2
ENDMDL
MODEL       14
REMARK 921   NORMALIZED FREE ENERGY PREDICTED BY IDOCK:   -6.87 KCAL/MOL
REMARK 922        TOTAL FREE ENERGY PREDICTED BY IDOCK:   -8.41 KCAL/MOL
REMARK 923 INTER-LIGAND FREE ENERGY PREDICTED BY IDOCK:   -7.64 KCAL/MOL
REMARK 924 INTRA-LIGAND FREE ENERGY PREDICTED BY IDOCK:   -0.77 KCAL/MOL
REMARK 927      BINDING AFFINITY PREDICTED BY RF-SCORE:    0.00 PKD
ROOT
HETATM    1  N   UNL     1      -7.820   9.173  71.219  1.00  0.00    -0.324 NA 
HETATM    2  C   UNL     1      -8.607   8.431  72.220  1.00  0.00    -0.197 C  
HETATM    3  H1  UNL     1      -8.048  10.168  71.236  1.00  0.00     0.000 HD 
HETATM    4  H2  UNL     1      -7.932   8.778  70.285  1.00  0.00     0.000 HD 
HETATM    5  C   UNL     1      -8.263   6.934  72.195  1.00  0.00    -0.105 C  
HETATM    6  C   UNL     1      -8.794   6.135  70.996  1.00  0.00    -0.139 C  
HETATM    7  C   UNL     1     -10.317   5.938  71.018  1.00  0.00    -0.281 C  
HETATM    8  C   UNL     1     -11.170   7.091  70.456  1.00  0.00    -0.295 C  
HETATM    9  N   UNL     1     -10.536   8.410  70.644  1.00  0.00    -0.204 NA 
HETATM   10  C   UNL     1     -10.126   8.661  72.049  1.00  0.00    -0.331 C  
ENDROOT
BRANCH   9  11
HETATM   11  C   UNL     1     -10.783   9.461  69.730  1.00  0.00    -0.234 A  
HETATM   12  C   UNL     1     -11.537  10.600  70.086  1.00  0.00    -0.330 A  
HETATM   13  C   UNL     1     -11.822  11.629  69.207  1.00  0.00    -0.396 A  
HETATM   14  F   UNL     1     -12.069  10.771  71.303  1.00  0.00    -0.414 F  
HETATM   15  C   UNL     1     -11.408  11.549  67.885  1.00  0.00    -0.372 A  
HETATM   16  C   UNL     1     -11.851  12.644  66.996  1.00  0.00    -0.345 C  
HETATM   17  C   UNL     1     -11.550  12.549  65.567  1.00  0.00    -0.429 C  
HETATM   18  O   UNL     1     -12.495  13.600  67.421  1.00  0.00    -0.203 OA 
HETATM   19  C   UNL     1     -12.029  13.526  64.573  1.00  0.00    -0.410 C  
HETATM   20  C   UNL     1     -10.800  11.501  65.190  1.00  0.00    -0.265 C  
HETATM   21  O   UNL     1     -12.764  14.539  65.079  1.00  0.00    -0.525 OA 
HETATM   22  N   UNL     1     -10.250  10.522  66.011  1.00  0.00    -0.254 NA 
HETATM   23  O   UNL     1     -11.787  13.436  63.371  1.00  0.00    -0.430 OA 
HETATM   24  C   UNL     1     -10.607  10.487  67.414  1.00  0.00    -0.263 A  
HETATM   25 CL   UNL     1      -8.893   8.428  68.067  1.00  0.00    -0.141 Cl 
HETATM   26  C   UNL     1     -10.240   9.495  68.389  1.00  0.00    -0.194 A  
BRANCH  22  27
HETATM   27  C   UNL     1      -9.470   9.458  65.332  1.00  0.00    -0.253 C  
HETATM   28  C   UNL     1      -8.034   9.723  64.927  1.00  0.00    -0.133 C  
HETATM   29  C   UNL     1      -9.056   9.486  63.871  1.00  0.00    -0.172 C  
ENDBRANCH  22  27
ENDBRANCH   9  11
TORSDOF 2
ENDMDL
MODEL       15
REMARK 921   NORMALIZED FREE ENERGY PREDICTED BY IDOCK:   -6.84 KCAL/MOL
REMARK 922        TOTAL FREE ENERGY PREDICTED BY IDOCK:   -8.38 KCAL/MOL
REMARK 923 INTER-LIGAND FREE ENERGY PREDICTED BY IDOCK:   -8.13 KCAL/MOL
REMARK 924 INTRA-LIGAND FREE ENERGY PREDICTED BY IDOCK:   -0.24 KCAL/MOL
REMARK 927      BINDING AFFINITY PREDICTED BY RF-SCORE:    0.00 PKD
ROOT
HETATM    1  N   UNL     1     -10.098   7.212  73.342  1.00  0.00    -0.266 NA 
HETATM    2  C   UNL     1     -10.881   6.044  72.903  1.00  0.00    -0.258 C  
HETATM    3  H1  UNL     1     -10.691   7.899  73.808  1.00  0.00     0.000 HD 
HETATM    4  H2  UNL     1      -9.578   7.628  72.569  1.00  0.00     0.000 HD 
HETATM    5  C   UNL     1      -9.988   5.010  72.201  1.00  0.00    -0.236 C  
HETATM    6  C   UNL     1      -9.502   5.377  70.791  1.00  0.00    -0.215 C  
HETATM    7  C   UNL     1     -10.616   5.352  69.735  1.00  0.00    -0.347 C  
HETATM    8  C   UNL     1     -11.486   6.619  69.619  1.00  0.00    -0.298 C  
HETATM    9  N   UNL     1     -11.624   7.332  70.903  1.00  0.00    -0.291 NA 
HETATM   10  C   UNL     1     -12.076   6.451  72.011  1.00  0.00    -0.303 C  
ENDROOT
BRANCH   9  11
HETATM   11  C   UNL     1     -11.812   8.733  70.929  1.00  0.00    -0.230 A  
HETATM   12  C   UNL     1     -12.740   9.348  71.797  1.00  0.00    -0.390 A  
HETATM   13  C   UNL     1     -12.969  10.712  71.823  1.00  0.00    -0.577 A  
HETATM   14  F   UNL     1     -13.505   8.659  72.653  1.00  0.00    -0.375 F  
HETATM   15  C   UNL     1     -12.311  11.546  70.930  1.00  0.00    -0.460 A  
HETATM   16  C   UNL     1     -12.701  12.972  70.961  1.00  0.00    -0.262 C  
HETATM   17  C   UNL     1     -12.130  13.874  69.960  1.00  0.00    -0.411 C  
HETATM   18  O   UNL     1     -13.514  13.401  71.776  1.00  0.00    -0.390 OA 
HETATM   19  C   UNL     1     -12.522  15.288  69.830  1.00  0.00    -0.240 C  
HETATM   20  C   UNL     1     -11.212  13.340  69.139  1.00  0.00    -0.251 C  
HETATM   21  O   UNL     1     -13.446  15.707  70.720  1.00  0.00    -0.536 OA 
HETATM   22  N   UNL     1     -10.719  12.040  69.161  1.00  0.00    -0.135 NA 
HETATM   23  O   UNL     1     -12.053  16.040  68.978  1.00  0.00    -0.293 OA 
HETATM   24  C   UNL     1     -11.324  11.064  70.044  1.00  0.00    -0.277 A  
HETATM   25 CL   UNL     1      -9.543   9.042  69.458  1.00  0.00    -0.162 Cl 
HETATM   26  C   UNL     1     -11.037   9.657  70.127  1.00  0.00    -0.269 A  
BRANCH  22  27
HETATM   27  C   UNL     1      -9.713  11.701  68.124  1.00  0.00    -0.189 C  
HETATM   28  C   UNL     1      -9.452  12.667  66.987  1.00  0.00    -0.220 C  
HETATM   29  C   UNL     1     -10.040  11.333  66.688  1.00  0.00    -0.251 C  
ENDBRANCH  22  27
ENDBRANCH   9  11
TORSDOF 2
ENDMDL
MODEL       16
REMARK 921   NORMALIZED FREE ENERGY PREDICTED BY IDOCK:   -6.80 KCAL/MOL
REMARK 922        TOTAL FREE ENERGY PREDICTED BY IDOCK:   -8.33 KCAL/MOL
REMARK 923 INTER-LIGAND FREE ENERGY PREDICTED BY IDOCK:   -7.54 KCAL/MOL
REMARK 924 INTRA-LIGAND FREE ENERGY PREDICTED BY IDOCK:   -0.78 KCAL/MOL
REMARK 927      BINDING AFFINITY PREDICTED BY RF-SCORE:    0.00 PKD
ROOT
HETATM    1  N   UNL     1     -12.684  12.485  64.554  1.00  0.00    -0.688 NA 
HETATM    2  C   UNL     1     -12.900  13.750  65.278  1.00  0.00    -0.384 C  
HETATM    3  H1  UNL     1     -13.121  11.703  65.043  1.00  0.00     0.000 HD 
HETATM    4  H2  UNL     1     -11.693  12.315  64.382  1.00  0.00     0.000 HD 
HETATM    5  C   UNL     1     -12.243  14.928  64.543  1.00  0.00    -0.396 C  
HETATM    6  C   UNL     1     -10.711  15.001  64.609  1.00  0.00    -0.243 C  
HETATM    7  C   UNL     1     -10.176  15.377  65.998  1.00  0.00    -0.343 C  
HETATM    8  C   UNL     1     -10.031  14.229  67.016  1.00  0.00    -0.258 C  
HETATM    9  N   UNL     1     -11.025  13.159  66.809  1.00  0.00    -0.276 NA 
HETATM   10  C   UNL     1     -12.420  13.666  66.745  1.00  0.00    -0.191 C  
ENDROOT
BRANCH   9  11
HETATM   11  C   UNL     1     -10.724  11.822  67.160  1.00  0.00    -0.241 A  
HETATM   12  C   UNL     1     -10.117  10.928  66.251  1.00  0.00    -0.233 A  
HETATM   13  C   UNL     1      -9.838   9.608  66.554  1.00  0.00    -0.298 A  
HETATM   14  F   UNL     1      -9.785  11.274  65.001  1.00  0.00    -0.236 F  
HETATM   15  C   UNL     1     -10.206   9.084  67.785  1.00  0.00    -0.284 A  
HETATM   16  C   UNL     1      -9.964   7.638  67.976  1.00  0.00    -0.175 C  
HETATM   17  C   UNL     1     -10.444   7.006  69.206  1.00  0.00    -0.223 C  
HETATM   18  O   UNL     1      -9.411   6.957  67.116  1.00  0.00    -0.133 OA 
HETATM   19  C   UNL     1     -10.350   5.557  69.460  1.00  0.00    -0.287 C  
HETATM   20  C   UNL     1     -10.991   7.826  70.117  1.00  0.00    -0.241 C  
HETATM   21  O   UNL     1      -9.771   4.843  68.472  1.00  0.00    -0.143 OA 
HETATM   22  N   UNL     1     -11.117   9.209  70.035  1.00  0.00    -0.221 NA 
HETATM   23  O   UNL     1     -10.768   5.027  70.487  1.00  0.00    -0.155 OA 
HETATM   24  C   UNL     1     -10.775   9.883  68.800  1.00  0.00    -0.220 A  
HETATM   25 CL   UNL     1     -11.173  12.432  69.774  1.00  0.00    -0.111 Cl 
HETATM   26  C   UNL     1     -10.945  11.276  68.482  1.00  0.00    -0.220 A  
BRANCH  22  27
HETATM   27  C   UNL     1     -11.781   9.877  71.182  1.00  0.00    -0.396 C  
HETATM   28  C   UNL     1     -12.536   9.047  72.200  1.00  0.00    -0.461 C  
HETATM   29  C   UNL     1     -13.283  10.016  71.352  1.00  0.00    -0.486 C  
ENDBRANCH  22  27
ENDBRANCH   9  11
TORSDOF 2
ENDMDL
MODEL       17
REMARK 921   NORMALIZED FREE ENERGY PREDICTED BY IDOCK:   -6.77 KCAL/MOL
REMARK 922        TOTAL FREE ENERGY PREDICTED BY IDOCK:   -8.30 KCAL/MOL
REMARK 923 INTER-LIGAND FREE ENERGY PREDICTED BY IDOCK:   -7.70 KCAL/MOL
REMARK 924 INTRA-LIGAND FREE ENERGY PREDICTED BY IDOCK:   -0.60 KCAL/MOL
REMARK 927      BINDING AFFINITY PREDICTED BY RF-SCORE:    0.00 PKD
ROOT
HETATM    1  N   UNL     1     -11.535   6.596  67.788  1.00  0.00    -0.658 NA 
HETATM    2  C   UNL     1     -10.532   6.695  66.713  1.00  0.00    -0.228 C  
HETATM    3  H1  UNL     1     -12.255   7.312  67.686  1.00  0.00     0.000 HD 
HETATM    4  H2  UNL     1     -11.101   6.629  68.711  1.00  0.00     0.000 HD 
HETATM    5  C   UNL     1      -9.448   5.617  66.866  1.00  0.00    -0.142 C  
HETATM    6  C   UNL     1      -8.438   5.825  68.004  1.00  0.00    -0.106 C  
HETATM    7  C   UNL     1      -7.462   6.982  67.750  1.00  0.00    -0.098 C  
HETATM    8  C   UNL     1      -7.958   8.396  68.112  1.00  0.00    -0.119 C  
HETATM    9  N   UNL     1      -9.418   8.541  67.962  1.00  0.00    -0.139 NA 
HETATM   10  C   UNL     1      -9.910   8.108  66.629  1.00  0.00    -0.261 C  
ENDROOT
BRANCH   9  11
HETATM   11  C   UNL     1     -10.135   9.451  68.773  1.00  0.00    -0.193 A  
HETATM   12  C   UNL     1     -10.795   9.043  69.953  1.00  0.00    -0.218 A  
HETATM   13  C   UNL     1     -11.530   9.902  70.749  1.00  0.00    -0.433 A  
HETATM   14  F   UNL     1     -10.791   7.777  70.389  1.00  0.00    -0.226 F  
HETATM   15  C   UNL     1     -11.695  11.228  70.376  1.00  0.00    -0.398 A  
HETATM   16  C   UNL     1     -12.584  12.041  71.232  1.00  0.00    -0.252 C  
HETATM   17  C   UNL     1     -12.892  13.410  70.818  1.00  0.00    -0.221 C  
HETATM   18  O   UNL     1     -13.095  11.582  72.251  1.00  0.00    -0.373 OA 
HETATM   19  C   UNL     1     -13.844  14.277  71.536  1.00  0.00    -0.352 C  
HETATM   20  C   UNL     1     -12.255  13.854  69.723  1.00  0.00    -0.332 C  
HETATM   21  O   UNL     1     -14.411  13.719  72.626  1.00  0.00    -0.678 OA 
HETATM   22  N   UNL     1     -11.311  13.170  68.965  1.00  0.00    -0.268 NA 
HETATM   23  O   UNL     1     -14.113  15.421  71.177  1.00  0.00    -0.489 OA 
HETATM   24  C   UNL     1     -11.049  11.773  69.246  1.00  0.00    -0.218 A  
HETATM   25 CL   UNL     1      -9.002  11.519  67.415  1.00  0.00    -0.153 Cl 
HETATM   26  C   UNL     1     -10.204  10.872  68.508  1.00  0.00    -0.185 A  
BRANCH  22  27
HETATM   27  C   UNL     1     -10.769  13.889  67.785  1.00  0.00    -0.246 C  
HETATM   28  C   UNL     1     -11.063  15.365  67.605  1.00  0.00    -0.316 C  
HETATM   29  C   UNL     1     -11.603  14.390  66.619  1.00  0.00    -0.396 C  
ENDBRANCH  22  27
ENDBRANCH   9  11
TORSDOF 2
ENDMDL
MODEL       18
REMARK 921   NORMALIZED FREE ENERGY PREDICTED BY IDOCK:   -6.75 KCAL/MOL
REMARK 922        TOTAL FREE ENERGY PREDICTED BY IDOCK:   -8.27 KCAL/MOL
REMARK 923 INTER-LIGAND FREE ENERGY PREDICTED BY IDOCK:   -7.58 KCAL/MOL
REMARK 924 INTRA-LIGAND FREE ENERGY PREDICTED BY IDOCK:   -0.69 KCAL/MOL
REMARK 927      BINDING AFFINITY PREDICTED BY RF-SCORE:    0.00 PKD
ROOT
HETATM    1  N   UNL     1     -12.112   7.387  70.162  1.00  0.00    -0.444 NA 
HETATM    2  C   UNL     1     -10.839   6.724  70.490  1.00  0.00    -0.258 C  
HETATM    3  H1  UNL     1     -12.346   7.267  69.176  1.00  0.00     0.000 HD 
HETATM    4  H2  UNL     1     -12.103   8.371  70.430  1.00  0.00     0.000 HD 
HETATM    5  C   UNL     1     -10.487   6.903  71.975  1.00  0.00    -0.229 C  
HETATM    6  C   UNL     1     -10.016   8.303  72.398  1.00  0.00    -0.379 C  
HETATM    7  C   UNL     1      -8.621   8.664  71.870  1.00  0.00    -0.231 C  
HETATM    8  C   UNL     1      -8.548   9.220  70.434  1.00  0.00    -0.219 C  
HETATM    9  N   UNL     1      -9.614   8.686  69.565  1.00  0.00    -0.168 NA 
HETATM   10  C   UNL     1      -9.685   7.203  69.579  1.00  0.00    -0.157 C  
ENDROOT
BRANCH   9  11
HETATM   11  C   UNL     1     -10.114   9.456  68.489  1.00  0.00    -0.187 A  
HETATM   12  C   UNL     1     -10.004   9.028  67.148  1.00  0.00    -0.224 A  
HETATM   13  C   UNL     1     -10.455   9.773  66.072  1.00  0.00    -0.076 A  
HETATM   14  F   UNL     1      -9.425   7.873  66.796  1.00  0.00    -0.182 F  
HETATM   15  C   UNL     1     -11.000  11.031  66.277  1.00  0.00    -0.184 A  
HETATM   16  C   UNL     1     -11.354  11.794  65.061  1.00  0.00    -0.225 C  
HETATM   17  C   UNL     1     -11.818  13.174  65.213  1.00  0.00    -0.400 C  
HETATM   18  O   UNL     1     -11.230  11.312  63.938  1.00  0.00    -0.356 OA 
HETATM   19  C   UNL     1     -12.100  14.061  64.070  1.00  0.00    -0.376 C  
HETATM   20  C   UNL     1     -11.975  13.610  66.472  1.00  0.00    -0.424 C  
HETATM   21  O   UNL     1     -11.913  13.503  62.856  1.00  0.00    -0.123 OA 
HETATM   22  N   UNL     1     -11.783  12.884  67.643  1.00  0.00    -0.360 NA 
HETATM   23  O   UNL     1     -12.475  15.225  64.200  1.00  0.00    -0.663 OA 
HETATM   24  C   UNL     1     -11.211  11.555  67.571  1.00  0.00    -0.298 A  
HETATM   25 CL   UNL     1     -11.468  11.013  70.263  1.00  0.00    -0.381 Cl 
HETATM   26  C   UNL     1     -10.830  10.702  68.665  1.00  0.00    -0.227 A  
BRANCH  22  27
HETATM   27  C   UNL     1     -12.012  13.614  68.914  1.00  0.00    -0.356 C  
HETATM   28  C   UNL     1     -12.132  15.125  68.902  1.00  0.00    -0.227 C  
HETATM   29  C   UNL     1     -10.984  14.491  69.607  1.00  0.00    -0.225 C  
ENDBRANCH  22  27
ENDBRANCH   9  11
TORSDOF 2
ENDMDL
MODEL       19
REMARK 921   NORMALIZED FREE ENERGY PREDICTED BY IDOCK:   -6.75 KCAL/MOL
REMARK 922        TOTAL FREE ENERGY PREDICTED BY IDOCK:   -8.27 KCAL/MOL
REMARK 923 INTER-LIGAND FREE ENERGY PREDICTED BY IDOCK:   -7.49 KCAL/MOL
REMARK 924 INTRA-LIGAND FREE ENERGY PREDICTED BY IDOCK:   -0.78 KCAL/MOL
REMARK 927      BINDING AFFINITY PREDICTED BY RF-SCORE:    0.00 PKD
ROOT
HETATM    1  N   UNL     1     -10.621  18.394  68.534  1.00  0.00    -0.344 NA 
HETATM    2  C   UNL     1      -9.461  19.299  68.610  1.00  0.00    -0.405 C  
HETATM    3  H1  UNL     1     -10.571  17.672  69.253  1.00  0.00     0.000 HD 
HETATM    4  H2  UNL     1     -10.723  17.991  67.603  1.00  0.00     0.000 HD 
HETATM    5  C   UNL     1      -9.537  20.388  67.528  1.00  0.00    -0.560 C  
HETATM    6  C   UNL     1      -9.254  19.935  66.088  1.00  0.00    -0.414 C  
HETATM    7  C   UNL     1      -7.782  19.579  65.837  1.00  0.00    -0.288 C  
HETATM    8  C   UNL     1      -7.340  18.155  66.229  1.00  0.00    -0.267 C  
HETATM    9  N   UNL     1      -8.105  17.617  67.370  1.00  0.00    -0.205 NA 
HETATM   10  C   UNL     1      -8.122  18.531  68.540  1.00  0.00    -0.330 C  
ENDROOT
BRANCH   9  11
HETATM   11  C   UNL     1      -8.321  16.225  67.495  1.00  0.00    -0.158 A  
HETATM   12  C   UNL     1      -7.727  15.466  68.528  1.00  0.00    -0.132 A  
HETATM   13  C   UNL     1      -7.894  14.099  68.659  1.00  0.00    -0.137 A  
HETATM   14  F   UNL     1      -6.925  16.002  69.457  1.00  0.00    -0.183 F  
HETATM   15  C   UNL     1      -8.630  13.394  67.719  1.00  0.00    -0.194 A  
HETATM   16  C   UNL     1      -8.661  11.925  67.883  1.00  0.00    -0.167 C  
HETATM   17  C   UNL     1      -9.319  11.121  66.852  1.00  0.00    -0.189 C  
HETATM   18  O   UNL     1      -8.118  11.371  68.836  1.00  0.00    -0.137 OA 
HETATM   19  C   UNL     1      -9.323   9.647  66.858  1.00  0.00    -0.146 C  
HETATM   20  C   UNL     1      -9.931  11.803  65.872  1.00  0.00    -0.236 C  
HETATM   21  O   UNL     1      -8.682   9.080  67.902  1.00  0.00    -0.128 OA 
HETATM   22  N   UNL     1     -10.040  13.184  65.751  1.00  0.00    -0.289 NA 
HETATM   23  O   UNL     1      -9.862   8.973  65.983  1.00  0.00    -0.277 OA 
HETATM   24  C   UNL     1      -9.314  14.039  66.666  1.00  0.00    -0.277 A  
HETATM   25 CL   UNL     1     -10.364  16.402  65.706  1.00  0.00    -0.386 Cl 
HETATM   26  C   UNL     1      -9.206  15.473  66.631  1.00  0.00    -0.271 A  
BRANCH  22  27
HETATM   27  C   UNL     1     -10.761  13.683  64.553  1.00  0.00    -0.407 C  
HETATM   28  C   UNL     1     -12.274  13.615  64.505  1.00  0.00    -0.444 C  
HETATM   29  C   UNL     1     -11.478  12.803  63.545  1.00  0.00    -0.521 C  
ENDBRANCH  22  27
ENDBRANCH   9  11
TORSDOF 2
ENDMDL
MODEL       20
REMARK 921   NORMALIZED FREE ENERGY PREDICTED BY IDOCK:   -6.75 KCAL/MOL
REMARK 922        TOTAL FREE ENERGY PREDICTED BY IDOCK:   -8.27 KCAL/MOL
REMARK 923 INTER-LIGAND FREE ENERGY PREDICTED BY IDOCK:   -7.82 KCAL/MOL
REMARK 924 INTRA-LIGAND FREE ENERGY PREDICTED BY IDOCK:   -0.46 KCAL/MOL
REMARK 927      BINDING AFFINITY PREDICTED BY RF-SCORE:    0.00 PKD
ROOT
HETATM    1  N   UNL     1      -7.708  16.053  69.532  1.00  0.00    -0.166 NA 
HETATM    2  C   UNL     1      -7.725  16.617  68.171  1.00  0.00    -0.173 C  
HETATM    3  H1  UNL     1      -7.726  15.033  69.507  1.00  0.00     0.000 HD 
HETATM    4  H2  UNL     1      -8.465  16.428  70.104  1.00  0.00     0.000 HD 
HETATM    5  C   UNL     1      -7.698  18.153  68.208  1.00  0.00    -0.291 C  
HETATM    6  C   UNL     1      -8.996  18.844  68.651  1.00  0.00    -0.386 C  
HETATM    7  C   UNL     1     -10.127  18.741  67.618  1.00  0.00    -0.415 C  
HETATM    8  C   UNL     1     -10.967  17.448  67.642  1.00  0.00    -0.125 C  
HETATM    9  N   UNL     1     -10.192  16.277  68.093  1.00  0.00    -0.250 NA 
HETATM   10  C   UNL     1      -8.923  16.096  67.344  1.00  0.00    -0.191 C  
ENDROOT
BRANCH   9  11
HETATM   11  C   UNL     1     -10.833  15.207  68.761  1.00  0.00    -0.247 A  
HETATM   12  C   UNL     1     -11.514  15.390  69.984  1.00  0.00    -0.316 A  
HETATM   13  C   UNL     1     -12.124  14.359  70.677  1.00  0.00    -0.404 A  
HETATM   14  F   UNL     1     -11.604  16.576  70.598  1.00  0.00    -0.368 F  
HETATM   15  C   UNL     1     -12.039  13.058  70.204  1.00  0.00    -0.377 A  
HETATM   16  C   UNL     1     -12.629  12.011  71.067  1.00  0.00    -0.273 C  
HETATM   17  C   UNL     1     -12.460  10.610  70.680  1.00  0.00    -0.462 C  
HETATM   18  O   UNL     1     -13.215  12.290  72.110  1.00  0.00    -0.496 OA 
HETATM   19  C   UNL     1     -12.914   9.482  71.512  1.00  0.00    -0.386 C  
HETATM   20  C   UNL     1     -11.853  10.392  69.503  1.00  0.00    -0.147 C  
HETATM   21  O   UNL     1     -13.519   9.833  72.666  1.00  0.00    -0.261 OA 
HETATM   22  N   UNL     1     -11.403  11.348  68.598  1.00  0.00    -0.238 NA 
HETATM   23  O   UNL     1     -12.758   8.305  71.192  1.00  0.00    -0.237 OA 
HETATM   24  C   UNL     1     -11.429  12.747  68.970  1.00  0.00    -0.309 A  
HETATM   25 CL   UNL     1     -10.577  13.684  66.520  1.00  0.00    -0.280 Cl 
HETATM   26  C   UNL     1     -10.906  13.863  68.229  1.00  0.00    -0.249 A  
BRANCH  22  27
HETATM   27  C   UNL     1     -10.748  10.833  67.370  1.00  0.00    -0.268 C  
HETATM   28  C   UNL     1     -10.500   9.346  67.217  1.00  0.00    -0.332 C  
HETATM   29  C   UNL     1      -9.338  10.272  67.311  1.00  0.00    -0.169 C  
ENDBRANCH  22  27
ENDBRANCH   9  11
TORSDOF 2
ENDMDL
MODEL       21
REMARK 921   NORMALIZED FREE ENERGY PREDICTED BY IDOCK:   -6.75 KCAL/MOL
REMARK 922        TOTAL FREE ENERGY PREDICTED BY IDOCK:   -8.27 KCAL/MOL
REMARK 923 INTER-LIGAND FREE ENERGY PREDICTED BY IDOCK:   -7.55 KCAL/MOL
REMARK 924 INTRA-LIGAND FREE ENERGY PREDICTED BY IDOCK:   -0.72 KCAL/MOL
REMARK 927      BINDING AFFINITY PREDICTED BY RF-SCORE:    0.00 PKD
ROOT
HETATM    1  N   UNL     1      -7.472  10.763  66.051  1.00  0.00    -0.214 NA 
HETATM    2  C   UNL     1      -8.023   9.805  65.078  1.00  0.00    -0.131 C  
HETATM    3  H1  UNL     1      -7.623  10.443  67.008  1.00  0.00     0.000 HD 
HETATM    4  H2  UNL     1      -7.843  11.702  65.907  1.00  0.00     0.000 HD 
HETATM    5  C   UNL     1      -7.795  10.287  63.636  1.00  0.00    -0.125 C  
HETATM    6  C   UNL     1      -8.664  11.463  63.168  1.00  0.00     0.088 C  
HETATM    7  C   UNL     1     -10.140  11.091  62.968  1.00  0.00    -0.285 C  
HETATM    8  C   UNL     1     -11.033  11.107  64.224  1.00  0.00    -0.205 C  
HETATM    9  N   UNL     1     -10.288  10.774  65.453  1.00  0.00    -0.266 NA 
HETATM   10  C   UNL     1      -9.518   9.509  65.340  1.00  0.00    -0.269 C  
ENDROOT
BRANCH   9  11
HETATM   11  C   UNL     1     -10.691  11.303  66.701  1.00  0.00    -0.272 A  
HETATM   12  C   UNL     1     -11.170  10.480  67.743  1.00  0.00    -0.273 A  
HETATM   13  C   UNL     1     -11.601  10.970  68.963  1.00  0.00    -0.392 A  
HETATM   14  F   UNL     1     -11.278   9.150  67.631  1.00  0.00    -0.227 F  
HETATM   15  C   UNL     1     -11.628  12.338  69.193  1.00  0.00    -0.373 A  
HETATM   16  C   UNL     1     -12.204  12.771  70.484  1.00  0.00    -0.307 C  
HETATM   17  C   UNL     1     -12.372  14.204  70.729  1.00  0.00    -0.439 C  
HETATM   18  O   UNL     1     -12.578  11.960  71.328  1.00  0.00    -0.359 OA 
HETATM   19  C   UNL     1     -13.026  14.747  71.932  1.00  0.00    -0.327 C  
HETATM   20  C   UNL     1     -11.893  15.025  69.781  1.00  0.00    -0.321 C  
HETATM   21  O   UNL     1     -13.455  13.820  72.814  1.00  0.00    -0.616 OA 
HETATM   22  N   UNL     1     -11.225  14.664  68.616  1.00  0.00    -0.262 NA 
HETATM   23  O   UNL     1     -13.179  15.951  72.128  1.00  0.00    -0.451 OA 
HETATM   24  C   UNL     1     -11.131  13.266  68.252  1.00  0.00    -0.266 A  
HETATM   25 CL   UNL     1      -9.531  13.676  66.044  1.00  0.00    -0.177 Cl 
HETATM   26  C   UNL     1     -10.590  12.706  67.043  1.00  0.00    -0.240 A  
BRANCH  22  27
HETATM   27  C   UNL     1     -10.812  15.777  67.724  1.00  0.00    -0.316 C  
HETATM   28  C   UNL     1      -9.555  16.563  68.037  1.00  0.00    -0.227 C  
HETATM   29  C   UNL     1     -10.875  17.249  68.090  1.00  0.00    -0.294 C  
ENDBRANCH  22  27
ENDBRANCH   9  11
TORSDOF 2
ENDMDL
MODEL       22
REMARK 921   NORMALIZED FREE ENERGY PREDICTED BY IDOCK:   -6.72 KCAL/MOL
REMARK 922        TOTAL FREE ENERGY PREDICTED BY IDOCK:   -8.24 KCAL/MOL
REMARK 923 INTER-LIGAND FREE ENERGY PREDICTED BY IDOCK:   -7.48 KCAL/MOL
REMARK 924 INTRA-LIGAND FREE ENERGY PREDICTED BY IDOCK:   -0.76 KCAL/MOL
REMARK 927      BINDING AFFINITY PREDICTED BY RF-SCORE:    0.00 PKD
ROOT
HETATM    1  N   UNL     1     -12.487  12.553  65.546  1.00  0.00    -0.635 NA 
HETATM    2  C   UNL     1     -12.477  14.006  65.783  1.00  0.00    -0.494 C  
HETATM    3  H1  UNL     1     -13.164  12.086  66.151  1.00  0.00     0.000 HD 
HETATM    4  H2  UNL     1     -11.555  12.149  65.643  1.00  0.00     0.000 HD 
HETATM    5  C   UNL     1     -11.459  14.709  64.872  1.00  0.00    -0.401 C  
HETATM    6  C   UNL     1      -9.978  14.510  65.227  1.00  0.00    -0.322 C  
HETATM    7  C   UNL     1      -9.554  15.237  66.511  1.00  0.00    -0.294 C  
HETATM    8  C   UNL     1      -9.832  14.508  67.840  1.00  0.00    -0.222 C  
HETATM    9  N   UNL     1     -11.024  13.641  67.774  1.00  0.00    -0.254 NA 
HETATM   10  C   UNL     1     -12.229  14.349  67.270  1.00  0.00    -0.213 C  
ENDROOT
BRANCH   9  11
HETATM   11  C   UNL     1     -11.110  12.479  68.575  1.00  0.00    -0.262 A  
HETATM   12  C   UNL     1     -11.907  12.431  69.740  1.00  0.00    -0.317 A  
HETATM   13  C   UNL     1     -11.988  11.320  70.561  1.00  0.00    -0.467 A  
HETATM   14  F   UNL     1     -12.632  13.471  70.170  1.00  0.00    -0.347 F  
HETATM   15  C   UNL     1     -11.222  10.196  70.288  1.00  0.00    -0.387 A  
HETATM   16  C   UNL     1     -11.295   9.102  71.280  1.00  0.00    -0.336 C  
HETATM   17  C   UNL     1     -10.416   7.944  71.108  1.00  0.00    -0.230 C  
HETATM   18  O   UNL     1     -12.039   9.163  72.256  1.00  0.00    -0.330 OA 
HETATM   19  C   UNL     1     -10.328   6.845  72.086  1.00  0.00    -0.199 C  
HETATM   20  C   UNL     1      -9.670   7.929  69.993  1.00  0.00    -0.179 C  
HETATM   21  O   UNL     1     -11.135   6.972  73.160  1.00  0.00    -0.279 OA 
HETATM   22  N   UNL     1      -9.670   8.871  68.969  1.00  0.00    -0.168 NA 
HETATM   23  O   UNL     1      -9.577   5.881  71.947  1.00  0.00    -0.152 OA 
HETATM   24  C   UNL     1     -10.423  10.097  69.129  1.00  0.00    -0.222 A  
HETATM   25 CL   UNL     1      -9.917  11.049  66.591  1.00  0.00    -0.238 Cl 
HETATM   26  C   UNL     1     -10.454  11.232  68.245  1.00  0.00    -0.196 A  
BRANCH  22  27
HETATM   27  C   UNL     1      -8.731   8.621  67.847  1.00  0.00    -0.137 C  
HETATM   28  C   UNL     1      -7.734   7.484  67.941  1.00  0.00    -0.116 C  
HETATM   29  C   UNL     1      -7.236   8.886  67.894  1.00  0.00    -0.083 C  
ENDBRANCH  22  27
ENDBRANCH   9  11
TORSDOF 2
ENDMDL
MODEL       23
REMARK 921   NORMALIZED FREE ENERGY PREDICTED BY IDOCK:   -6.66 KCAL/MOL
REMARK 922        TOTAL FREE ENERGY PREDICTED BY IDOCK:   -8.18 KCAL/MOL
REMARK 923 INTER-LIGAND FREE ENERGY PREDICTED BY IDOCK:   -7.37 KCAL/MOL
REMARK 924 INTRA-LIGAND FREE ENERGY PREDICTED BY IDOCK:   -0.81 KCAL/MOL
REMARK 927      BINDING AFFINITY PREDICTED BY RF-SCORE:    0.00 PKD
ROOT
HETATM    1  N   UNL     1      -7.335   8.348  69.607  1.00  0.00    -0.070 NA 
HETATM    2  C   UNL     1      -7.737   6.996  69.183  1.00  0.00    -0.105 C  
HETATM    3  H1  UNL     1      -7.695   8.565  70.536  1.00  0.00     0.000 HD 
HETATM    4  H2  UNL     1      -7.610   9.054  68.923  1.00  0.00     0.000 HD 
HETATM    5  C   UNL     1      -7.193   6.670  67.783  1.00  0.00    -0.091 C  
HETATM    6  C   UNL     1      -7.875   7.383  66.606  1.00  0.00    -0.109 C  
HETATM    7  C   UNL     1      -9.301   6.883  66.332  1.00  0.00    -0.183 C  
HETATM    8  C   UNL     1     -10.425   7.503  67.184  1.00  0.00    -0.336 C  
HETATM    9  N   UNL     1      -9.966   7.897  68.529  1.00  0.00    -0.181 NA 
HETATM   10  C   UNL     1      -9.269   6.801  69.249  1.00  0.00    -0.141 C  
ENDROOT
BRANCH   9  11
HETATM   11  C   UNL     1     -10.579   8.976  69.208  1.00  0.00    -0.213 A  
HETATM   12  C   UNL     1     -11.404   8.778  70.336  1.00  0.00    -0.192 A  
HETATM   13  C   UNL     1     -12.042   9.809  71.002  1.00  0.00    -0.434 A  
HETATM   14  F   UNL     1     -11.666   7.567  70.844  1.00  0.00    -0.289 F  
HETATM   15  C   UNL     1     -11.933  11.111  70.537  1.00  0.00    -0.475 A  
HETATM   16  C   UNL     1     -12.735  12.128  71.250  1.00  0.00    -0.261 C  
HETATM   17  C   UNL     1     -12.755  13.495  70.726  1.00  0.00    -0.316 C  
HETATM   18  O   UNL     1     -13.410  11.842  72.236  1.00  0.00    -0.471 OA 
HETATM   19  C   UNL     1     -13.597  14.564  71.292  1.00  0.00    -0.357 C  
HETATM   20  C   UNL     1     -11.953  13.737  69.678  1.00  0.00    -0.342 C  
HETATM   21  O   UNL     1     -14.351  14.196  72.350  1.00  0.00    -0.586 OA 
HETATM   22  N   UNL     1     -11.082  12.845  69.062  1.00  0.00    -0.250 NA 
HETATM   23  O   UNL     1     -13.624  15.707  70.841  1.00  0.00    -0.568 OA 
HETATM   24  C   UNL     1     -11.100  11.450  69.449  1.00  0.00    -0.241 A  
HETATM   25 CL   UNL     1      -8.976  10.709  67.854  1.00  0.00    -0.136 Cl 
HETATM   26  C   UNL     1     -10.368  10.363  68.855  1.00  0.00    -0.209 A  
BRANCH  22  27
HETATM   27  C   UNL     1     -10.316  13.369  67.903  1.00  0.00    -0.238 C  
HETATM   28  C   UNL     1     -10.687  14.710  67.303  1.00  0.00    -0.290 C  
HETATM   29  C   UNL     1     -10.854  13.476  66.487  1.00  0.00    -0.283 C  
ENDBRANCH  22  27
ENDBRANCH   9  11
TORSDOF 2
ENDMDL
MODEL       24
REMARK 921   NORMALIZED FREE ENERGY PREDICTED BY IDOCK:   -6.65 KCAL/MOL
REMARK 922        TOTAL FREE ENERGY PREDICTED BY IDOCK:   -8.17 KCAL/MOL
REMARK 923 INTER-LIGAND FREE ENERGY PREDICTED BY IDOCK:   -7.35 KCAL/MOL
REMARK 924 INTRA-LIGAND FREE ENERGY PREDICTED BY IDOCK:   -0.82 KCAL/MOL
REMARK 927      BINDING AFFINITY PREDICTED BY RF-SCORE:    0.00 PKD
ROOT
HETATM    1  N   UNL     1      -6.670  11.778  66.385  1.00  0.00    -0.360 NA 
HETATM    2  C   UNL     1      -6.666  10.356  66.001  1.00  0.00    -0.124 C  
HETATM    3  H1  UNL     1      -6.844  11.888  67.384  1.00  0.00     0.000 HD 
HETATM    4  H2  UNL     1      -7.334  12.316  65.827  1.00  0.00     0.000 HD 
HETATM    5  C   UNL     1      -6.404  10.189  64.495  1.00  0.00    -0.129 C  
HETATM    6  C   UNL     1      -7.559  10.573  63.559  1.00  0.00     0.035 C  
HETATM    7  C   UNL     1      -8.740   9.594  63.613  1.00  0.00    -0.240 C  
HETATM    8  C   UNL     1      -9.765   9.810  64.744  1.00  0.00    -0.143 C  
HETATM    9  N   UNL     1      -9.157  10.391  65.956  1.00  0.00    -0.158 NA 
HETATM   10  C   UNL     1      -7.967   9.637  66.426  1.00  0.00    -0.108 C  
ENDROOT
BRANCH   9  11
HETATM   11  C   UNL     1      -9.921  11.210  66.819  1.00  0.00    -0.208 A  
HETATM   12  C   UNL     1     -10.057  12.599  66.605  1.00  0.00    -0.241 A  
HETATM   13  C   UNL     1     -10.771  13.432  67.448  1.00  0.00    -0.269 A  
HETATM   14  F   UNL     1      -9.479  13.239  65.581  1.00  0.00    -0.196 F  
HETATM   15  C   UNL     1     -11.352  12.924  68.600  1.00  0.00    -0.327 A  
HETATM   16  C   UNL     1     -12.002  13.908  69.492  1.00  0.00    -0.343 C  
HETATM   17  C   UNL     1     -12.524  13.447  70.779  1.00  0.00    -0.418 C  
HETATM   18  O   UNL     1     -12.075  15.098  69.195  1.00  0.00    -0.290 OA 
HETATM   19  C   UNL     1     -13.097  14.354  71.789  1.00  0.00    -0.354 C  
HETATM   20  C   UNL     1     -12.451  12.127  71.007  1.00  0.00    -0.269 C  
HETATM   21  O   UNL     1     -13.123  15.656  71.437  1.00  0.00    -0.479 OA 
HETATM   22  N   UNL     1     -11.971  11.149  70.142  1.00  0.00    -0.334 NA 
HETATM   23  O   UNL     1     -13.521  13.966  72.876  1.00  0.00    -0.653 OA 
HETATM   24  C   UNL     1     -11.331  11.546  68.905  1.00  0.00    -0.268 A  
HETATM   25 CL   UNL     1     -10.993   8.980  67.951  1.00  0.00    -0.107 Cl 
HETATM   26  C   UNL     1     -10.674  10.699  67.944  1.00  0.00    -0.248 A  
BRANCH  22  27
HETATM   27  C   UNL     1     -11.989   9.755  70.650  1.00  0.00    -0.259 C  
HETATM   28  C   UNL     1     -12.619   9.454  71.995  1.00  0.00    -0.462 C  
HETATM   29  C   UNL     1     -11.156   9.248  71.814  1.00  0.00    -0.398 C  
ENDBRANCH  22  27
ENDBRANCH   9  11
TORSDOF 2
ENDMDL
MODEL       25
REMARK 921   NORMALIZED FREE ENERGY PREDICTED BY IDOCK:   -6.65 KCAL/MOL
REMARK 922        TOTAL FREE ENERGY PREDICTED BY IDOCK:   -8.16 KCAL/MOL
REMARK 923 INTER-LIGAND FREE ENERGY PREDICTED BY IDOCK:   -7.44 KCAL/MOL
REMARK 924 INTRA-LIGAND FREE ENERGY PREDICTED BY IDOCK:   -0.72 KCAL/MOL
REMARK 927      BINDING AFFINITY PREDICTED BY RF-SCORE:    0.00 PKD
ROOT
HETATM    1  N   UNL     1     -11.128  15.512  66.126  1.00  0.00    -0.240 NA 
HETATM    2  C   UNL     1     -10.591  16.800  66.598  1.00  0.00    -0.198 C  
HETATM    3  H1  UNL     1     -12.063  15.344  66.498  1.00  0.00     0.000 HD 
HETATM    4  H2  UNL     1     -10.495  14.741  66.338  1.00  0.00     0.000 HD 
HETATM    5  C   UNL     1      -9.184  17.053  66.037  1.00  0.00    -0.177 C  
HETATM    6  C   UNL     1      -8.050  16.211  66.640  1.00  0.00    -0.323 C  
HETATM    7  C   UNL     1      -7.705  16.597  68.086  1.00  0.00    -0.173 C  
HETATM    8  C   UNL     1      -8.576  15.973  69.193  1.00  0.00    -0.247 C  
HETATM    9  N   UNL     1      -9.958  15.712  68.749  1.00  0.00    -0.206 NA 
HETATM   10  C   UNL     1     -10.606  16.902  68.141  1.00  0.00    -0.360 C  
ENDROOT
BRANCH   9  11
HETATM   11  C   UNL     1     -10.704  14.651  69.312  1.00  0.00    -0.243 A  
HETATM   12  C   UNL     1     -11.705  14.874  70.284  1.00  0.00    -0.303 A  
HETATM   13  C   UNL     1     -12.429  13.855  70.876  1.00  0.00    -0.447 A  
HETATM   14  F   UNL     1     -12.020  16.092  70.739  1.00  0.00    -0.379 F  
HETATM   15  C   UNL     1     -12.152  12.532  70.566  1.00  0.00    -0.361 A  
HETATM   16  C   UNL     1     -12.903  11.512  71.329  1.00  0.00    -0.360 C  
HETATM   17  C   UNL     1     -12.563  10.102  71.132  1.00  0.00    -0.486 C  
HETATM   18  O   UNL     1     -13.768  11.823  72.144  1.00  0.00    -0.251 OA 
HETATM   19  C   UNL     1     -13.172   9.008  71.910  1.00  0.00    -0.405 C  
HETATM   20  C   UNL     1     -11.645   9.842  70.188  1.00  0.00    -0.182 C  
HETATM   21  O   UNL     1     -14.089   9.399  72.820  1.00  0.00    -0.417 OA 
HETATM   22  N   UNL     1     -11.012  10.759  69.356  1.00  0.00    -0.237 NA 
HETATM   23  O   UNL     1     -12.874   7.826  71.753  1.00  0.00    -0.319 OA 
HETATM   24  C   UNL     1     -11.210  12.176  69.577  1.00  0.00    -0.131 A  
HETATM   25 CL   UNL     1      -9.762  12.989  67.375  1.00  0.00    -0.208 Cl 
HETATM   26  C   UNL     1     -10.559  13.270  68.906  1.00  0.00    -0.140 A  
BRANCH  22  27
HETATM   27  C   UNL     1     -10.018  10.204  68.404  1.00  0.00    -0.156 C  
HETATM   28  C   UNL     1     -10.491   9.438  67.185  1.00  0.00    -0.315 C  
HETATM   29  C   UNL     1      -9.712   8.727  68.234  1.00  0.00    -0.175 C  
ENDBRANCH  22  27
ENDBRANCH   9  11
TORSDOF 2
ENDMDL
MODEL       26
REMARK 921   NORMALIZED FREE ENERGY PREDICTED BY IDOCK:   -6.64 KCAL/MOL
REMARK 922        TOTAL FREE ENERGY PREDICTED BY IDOCK:   -8.15 KCAL/MOL
REMARK 923 INTER-LIGAND FREE ENERGY PREDICTED BY IDOCK:   -7.91 KCAL/MOL
REMARK 924 INTRA-LIGAND FREE ENERGY PREDICTED BY IDOCK:   -0.24 KCAL/MOL
REMARK 927      BINDING AFFINITY PREDICTED BY RF-SCORE:    0.00 PKD
ROOT
HETATM    1  N   UNL     1     -10.040  15.131  70.696  1.00  0.00    -0.346 NA 
HETATM    2  C   UNL     1     -11.203  16.012  70.493  1.00  0.00    -0.378 C  
HETATM    3  H1  UNL     1      -9.644  14.834  69.804  1.00  0.00     0.000 HD 
HETATM    4  H2  UNL     1     -10.270  14.334  71.289  1.00  0.00     0.000 HD 
HETATM    5  C   UNL     1     -11.798  16.461  71.837  1.00  0.00    -0.433 C  
HETATM    6  C   UNL     1     -12.577  15.396  72.624  1.00  0.00    -0.482 C  
HETATM    7  C   UNL     1     -13.922  15.024  71.983  1.00  0.00    -0.605 C  
HETATM    8  C   UNL     1     -13.882  13.970  70.859  1.00  0.00     0.243 C  
HETATM    9  N   UNL     1     -12.619  14.000  70.097  1.00  0.00    -0.308 NA 
HETATM   10  C   UNL     1     -12.277  15.356  69.595  1.00  0.00    -0.282 C  
ENDROOT
BRANCH   9  11
HETATM   11  C   UNL     1     -12.116  12.823  69.496  1.00  0.00    -0.205 A  
HETATM   12  C   UNL     1     -11.923  11.632  70.230  1.00  0.00    -0.358 A  
HETATM   13  C   UNL     1     -11.403  10.475  69.679  1.00  0.00    -0.345 A  
HETATM   14  F   UNL     1     -12.199  11.528  71.536  1.00  0.00    -0.333 F  
HETATM   15  C   UNL     1     -10.990  10.459  68.355  1.00  0.00    -0.312 A  
HETATM   16  C   UNL     1     -10.350   9.211  67.886  1.00  0.00    -0.232 C  
HETATM   17  C   UNL     1      -9.784   9.181  66.537  1.00  0.00    -0.306 C  
HETATM   18  O   UNL     1     -10.250   8.226  68.613  1.00  0.00    -0.197 OA 
HETATM   19  C   UNL     1      -9.035   8.030  66.001  1.00  0.00    -0.163 C  
HETATM   20  C   UNL     1      -9.980  10.278  65.789  1.00  0.00    -0.271 C  
HETATM   21  O   UNL     1      -8.916   6.985  66.847  1.00  0.00    -0.119 OA 
HETATM   22  N   UNL     1     -10.690  11.420  66.143  1.00  0.00    -0.270 NA 
HETATM   23  O   UNL     1      -8.547   8.013  64.873  1.00  0.00    -0.099 OA 
HETATM   24  C   UNL     1     -11.172  11.567  67.500  1.00  0.00    -0.298 A  
HETATM   25 CL   UNL     1     -12.525  13.927  67.043  1.00  0.00    -0.268 Cl 
HETATM   26  C   UNL     1     -11.818  12.713  68.084  1.00  0.00    -0.315 A  
BRANCH  22  27
HETATM   27  C   UNL     1     -10.740  12.503  65.128  1.00  0.00    -0.292 C  
HETATM   28  C   UNL     1     -11.672  12.376  63.940  1.00  0.00    -0.529 C  
HETATM   29  C   UNL     1     -10.201  12.389  63.714  1.00  0.00    -0.404 C  
ENDBRANCH  22  27
ENDBRANCH   9  11
TORSDOF 2
ENDMDL
MODEL       27
REMARK 921   NORMALIZED FREE ENERGY PREDICTED BY IDOCK:   -6.63 KCAL/MOL
REMARK 922        TOTAL FREE ENERGY PREDICTED BY IDOCK:   -8.14 KCAL/MOL
REMARK 923 INTER-LIGAND FREE ENERGY PREDICTED BY IDOCK:   -7.39 KCAL/MOL
REMARK 924 INTRA-LIGAND FREE ENERGY PREDICTED BY IDOCK:   -0.75 KCAL/MOL
REMARK 927      BINDING AFFINITY PREDICTED BY RF-SCORE:    0.00 PKD
ROOT
HETATM    1  N   UNL     1     -12.695  12.511  64.551  1.00  0.00    -0.688 NA 
HETATM    2  C   UNL     1     -11.501  12.785  63.734  1.00  0.00    -0.470 C  
HETATM    3  H1  UNL     1     -12.984  13.341  65.070  1.00  0.00     0.000 HD 
HETATM    4  H2  UNL     1     -12.553  11.713  65.170  1.00  0.00     0.000 HD 
HETATM    5  C   UNL     1     -11.066  11.535  62.953  1.00  0.00     0.234 C  
HETATM    6  C   UNL     1     -10.408  10.416  63.773  1.00  0.00     0.165 C  
HETATM    7  C   UNL     1      -9.002  10.773  64.277  1.00  0.00    -0.172 C  
HETATM    8  C   UNL     1      -8.923  11.591  65.581  1.00  0.00    -0.074 C  
HETATM    9  N   UNL     1     -10.083  12.484  65.761  1.00  0.00    -0.260 NA 
HETATM   10  C   UNL     1     -10.337  13.350  64.581  1.00  0.00    -0.381 C  
ENDROOT
BRANCH   9  11
HETATM   11  C   UNL     1     -10.530  12.826  67.059  1.00  0.00    -0.237 A  
HETATM   12  C   UNL     1     -11.306  11.942  67.840  1.00  0.00    -0.291 A  
HETATM   13  C   UNL     1     -11.784  12.259  69.099  1.00  0.00    -0.377 A  
HETATM   14  F   UNL     1     -11.672  10.726  67.416  1.00  0.00    -0.323 F  
HETATM   15  C   UNL     1     -11.555  13.518  69.633  1.00  0.00    -0.340 A  
HETATM   16  C   UNL     1     -12.196  13.800  70.936  1.00  0.00    -0.349 C  
HETATM   17  C   UNL     1     -12.092  15.151  71.487  1.00  0.00    -0.407 C  
HETATM   18  O   UNL     1     -12.840  12.943  71.536  1.00  0.00    -0.358 OA 
HETATM   19  C   UNL     1     -12.774  15.573  72.724  1.00  0.00    -0.429 C  
HETATM   20  C   UNL     1     -11.330  16.014  70.798  1.00  0.00    -0.398 C  
HETATM   21  O   UNL     1     -13.501  14.611  73.330  1.00  0.00    -0.570 OA 
HETATM   22  N   UNL     1     -10.602  15.754  69.641  1.00  0.00    -0.270 NA 
HETATM   23  O   UNL     1     -12.698  16.713  73.177  1.00  0.00    -0.171 OA 
HETATM   24  C   UNL     1     -10.755  14.477  68.976  1.00  0.00    -0.251 A  
HETATM   25 CL   UNL     1      -8.823  14.946  67.064  1.00  0.00    -0.238 Cl 
HETATM   26  C   UNL     1     -10.185  14.066  67.720  1.00  0.00    -0.240 A  
BRANCH  22  27
HETATM   27  C   UNL     1      -9.851  16.898  69.067  1.00  0.00    -0.247 C  
HETATM   28  C   UNL     1     -10.243  18.315  69.435  1.00  0.00     0.145 C  
HETATM   29  C   UNL     1     -10.399  17.859  68.027  1.00  0.00    -0.394 C  
ENDBRANCH  22  27
ENDBRANCH   9  11
TORSDOF 2
ENDMDL
MODEL       28
REMARK 921   NORMALIZED FREE ENERGY PREDICTED BY IDOCK:   -6.59 KCAL/MOL
REMARK 922        TOTAL FREE ENERGY PREDICTED BY IDOCK:   -8.10 KCAL/MOL
REMARK 923 INTER-LIGAND FREE ENERGY PREDICTED BY IDOCK:   -7.29 KCAL/MOL
REMARK 924 INTRA-LIGAND FREE ENERGY PREDICTED BY IDOCK:   -0.81 KCAL/MOL
REMARK 927      BINDING AFFINITY PREDICTED BY RF-SCORE:    0.00 PKD
ROOT
HETATM    1  N   UNL     1     -10.168  14.299  69.271  1.00  0.00    -0.428 NA 
HETATM    2  C   UNL     1      -9.795  14.357  67.847  1.00  0.00    -0.224 C  
HETATM    3  H1  UNL     1      -9.374  14.020  69.847  1.00  0.00     0.000 HD 
HETATM    4  H2  UNL     1     -10.975  13.694  69.424  1.00  0.00     0.000 HD 
HETATM    5  C   UNL     1     -10.990  14.778  66.978  1.00  0.00    -0.324 C  
HETATM    6  C   UNL     1     -12.091  13.726  66.781  1.00  0.00    -0.460 C  
HETATM    7  C   UNL     1     -11.663  12.553  65.886  1.00  0.00    -0.480 C  
HETATM    8  C   UNL     1     -10.883  11.413  66.569  1.00  0.00    -0.283 C  
HETATM    9  N   UNL     1     -10.069  11.885  67.706  1.00  0.00    -0.187 NA 
HETATM   10  C   UNL     1      -9.185  13.025  67.354  1.00  0.00    -0.208 C  
ENDROOT
BRANCH   9  11
HETATM   11  C   UNL     1      -9.796  11.026  68.796  1.00  0.00    -0.198 A  
HETATM   12  C   UNL     1      -8.517  10.466  69.005  1.00  0.00    -0.155 A  
HETATM   13  C   UNL     1      -8.226   9.599  70.044  1.00  0.00    -0.197 A  
HETATM   14  F   UNL     1      -7.476  10.703  68.197  1.00  0.00    -0.084 F  
HETATM   15  C   UNL     1      -9.229   9.194  70.913  1.00  0.00    -0.326 A  
HETATM   16  C   UNL     1      -8.847   8.185  71.923  1.00  0.00    -0.159 C  
HETATM   17  C   UNL     1      -9.891   7.630  72.786  1.00  0.00    -0.283 C  
HETATM   18  O   UNL     1      -7.692   7.778  72.024  1.00  0.00    -0.079 OA 
HETATM   19  C   UNL     1      -9.646   6.547  73.755  1.00  0.00    -0.188 C  
HETATM   20  C   UNL     1     -11.115   8.162  72.648  1.00  0.00    -0.380 C  
HETATM   21  O   UNL     1      -8.373   6.104  73.806  1.00  0.00    -0.114 OA 
HETATM   22  N   UNL     1     -11.489   9.204  71.806  1.00  0.00    -0.368 NA 
HETATM   23  O   UNL     1     -10.528   6.072  74.468  1.00  0.00    -0.258 OA 
HETATM   24  C   UNL     1     -10.538   9.717  70.842  1.00  0.00    -0.316 A  
HETATM   25 CL   UNL     1     -12.161  11.752  69.931  1.00  0.00    -0.372 Cl 
HETATM   26  C   UNL     1     -10.768  10.700  69.817  1.00  0.00    -0.230 A  
BRANCH  22  27
HETATM   27  C   UNL     1     -12.921   9.592  71.838  1.00  0.00    -0.425 C  
HETATM   28  C   UNL     1     -13.895   8.802  72.688  1.00  0.00    -0.352 C  
HETATM   29  C   UNL     1     -14.048   8.793  71.208  1.00  0.00    -0.215 C  
ENDBRANCH  22  27
ENDBRANCH   9  11
TORSDOF 2
ENDMDL
MODEL       29
REMARK 921   NORMALIZED FREE ENERGY PREDICTED BY IDOCK:   -6.45 KCAL/MOL
REMARK 922        TOTAL FREE ENERGY PREDICTED BY IDOCK:   -7.94 KCAL/MOL
REMARK 923 INTER-LIGAND FREE ENERGY PREDICTED BY IDOCK:   -7.14 KCAL/MOL
REMARK 924 INTRA-LIGAND FREE ENERGY PREDICTED BY IDOCK:   -0.80 KCAL/MOL
REMARK 927      BINDING AFFINITY PREDICTED BY RF-SCORE:    0.00 PKD
ROOT
HETATM    1  N   UNL     1     -12.030   6.531  70.667  1.00  0.00    -0.355 NA 
HETATM    2  C   UNL     1     -10.904   5.935  71.407  1.00  0.00    -0.271 C  
HETATM    3  H1  UNL     1     -12.029   6.228  69.692  1.00  0.00     0.000 HD 
HETATM    4  H2  UNL     1     -12.035   7.548  70.745  1.00  0.00     0.000 HD 
HETATM    5  C   UNL     1     -10.905   6.390  72.875  1.00  0.00    -0.286 C  
HETATM    6  C   UNL     1     -10.478   7.842  73.137  1.00  0.00    -0.413 C  
HETATM    7  C   UNL     1      -8.981   8.091  72.906  1.00  0.00    -0.304 C  
HETATM    8  C   UNL     1      -8.544   8.366  71.454  1.00  0.00    -0.164 C  
HETATM    9  N   UNL     1      -9.399   7.683  70.464  1.00  0.00    -0.163 NA 
HETATM   10  C   UNL     1      -9.545   6.229  70.730  1.00  0.00    -0.176 C  
ENDROOT
BRANCH   9  11
HETATM   11  C   UNL     1      -9.591   8.238  69.178  1.00  0.00    -0.160 A  
HETATM   12  C   UNL     1      -9.017   7.666  68.022  1.00  0.00    -0.126 A  
HETATM   13  C   UNL     1      -9.161   8.203  66.756  1.00  0.00    -0.191 A  
HETATM   14  F   UNL     1      -8.255   6.566  68.056  1.00  0.00    -0.112 F  
HETATM   15  C   UNL     1      -9.853   9.392  66.579  1.00  0.00    -0.325 A  
HETATM   16  C   UNL     1      -9.862   9.943  65.207  1.00  0.00    -0.303 C  
HETATM   17  C   UNL     1     -10.470  11.256  64.985  1.00  0.00    -0.359 C  
HETATM   18  O   UNL     1      -9.339   9.347  64.268  1.00  0.00    -0.138 OA 
HETATM   19  C   UNL     1     -10.446  11.948  63.684  1.00  0.00    -0.447 C  
HETATM   20  C   UNL     1     -11.064  11.819  66.049  1.00  0.00    -0.312 C  
HETATM   21  O   UNL     1      -9.829  11.274  62.692  1.00  0.00    -0.242 OA 
HETATM   22  N   UNL     1     -11.196  11.277  67.323  1.00  0.00    -0.355 NA 
HETATM   23  O   UNL     1     -10.945  13.057  63.504  1.00  0.00    -0.296 OA 
HETATM   24  C   UNL     1     -10.515  10.039  67.644  1.00  0.00    -0.246 A  
HETATM   25 CL   UNL     1     -11.579   9.806  70.178  1.00  0.00    -0.266 Cl 
HETATM   26  C   UNL     1     -10.434   9.387  68.924  1.00  0.00    -0.216 A  
BRANCH  22  27
HETATM   27  C   UNL     1     -11.888  12.121  68.328  1.00  0.00    -0.301 C  
HETATM   28  C   UNL     1     -12.107  13.594  68.049  1.00  0.00    -0.309 C  
HETATM   29  C   UNL     1     -11.215  13.191  69.170  1.00  0.00    -0.303 C  
ENDBRANCH  22  27
ENDBRANCH   9  11
TORSDOF 2
ENDMDL
MODEL       30
REMARK 921   NORMALIZED FREE ENERGY PREDICTED BY IDOCK:   -6.43 KCAL/MOL
REMARK 922        TOTAL FREE ENERGY PREDICTED BY IDOCK:   -7.92 KCAL/MOL
REMARK 923 INTER-LIGAND FREE ENERGY PREDICTED BY IDOCK:   -7.24 KCAL/MOL
REMARK 924 INTRA-LIGAND FREE ENERGY PREDICTED BY IDOCK:   -0.68 KCAL/MOL
REMARK 927      BINDING AFFINITY PREDICTED BY RF-SCORE:    0.00 PKD
ROOT
HETATM    1  N   UNL     1     -10.010  14.792  67.466  1.00  0.00    -0.219 NA 
HETATM    2  C   UNL     1      -9.661  14.606  66.048  1.00  0.00    -0.290 C  
HETATM    3  H1  UNL     1      -9.404  14.237  68.071  1.00  0.00     0.000 HD 
HETATM    4  H2  UNL     1     -10.996  14.594  67.640  1.00  0.00     0.000 HD 
HETATM    5  C   UNL     1     -10.574  15.442  65.138  1.00  0.00    -0.458 C  
HETATM    6  C   UNL     1     -12.018  14.943  64.981  1.00  0.00    -0.258 C  
HETATM    7  C   UNL     1     -12.133  13.651  64.160  1.00  0.00    -0.484 C  
HETATM    8  C   UNL     1     -11.901  12.329  64.917  1.00  0.00    -0.358 C  
HETATM    9  N   UNL     1     -10.954  12.476  66.039  1.00  0.00    -0.274 NA 
HETATM   10  C   UNL     1      -9.675  13.115  65.639  1.00  0.00    -0.091 C  
ENDROOT
BRANCH   9  11
HETATM   11  C   UNL     1     -11.060  11.647  67.180  1.00  0.00    -0.299 A  
HETATM   12  C   UNL     1     -11.777  12.044  68.330  1.00  0.00    -0.334 A  
HETATM   13  C   UNL     1     -11.872  11.269  69.472  1.00  0.00    -0.427 A  
HETATM   14  F   UNL     1     -12.405  13.222  68.427  1.00  0.00    -0.342 F  
HETATM   15  C   UNL     1     -11.200  10.058  69.549  1.00  0.00    -0.254 A  
HETATM   16  C   UNL     1     -11.274   9.353  70.847  1.00  0.00    -0.325 C  
HETATM   17  C   UNL     1     -10.484   8.134  71.026  1.00  0.00    -0.233 C  
HETATM   18  O   UNL     1     -11.945   9.787  71.780  1.00  0.00    -0.392 OA 
HETATM   19  C   UNL     1     -10.399   7.407  72.305  1.00  0.00    -0.214 C  
HETATM   20  C   UNL     1      -9.818   7.698  69.945  1.00  0.00    -0.184 C  
HETATM   21  O   UNL     1     -11.122   7.940  73.312  1.00  0.00    -0.328 OA 
HETATM   22  N   UNL     1      -9.827   8.255  68.671  1.00  0.00    -0.171 NA 
HETATM   23  O   UNL     1      -9.723   6.391  72.457  1.00  0.00    -0.163 OA 
HETATM   24  C   UNL     1     -10.488   9.524  68.453  1.00  0.00    -0.224 A  
HETATM   25 CL   UNL     1     -10.096   9.560  65.724  1.00  0.00    -0.318 Cl 
HETATM   26  C   UNL     1     -10.508  10.311  67.248  1.00  0.00    -0.253 A  
BRANCH  22  27
HETATM   27  C   UNL     1      -8.984   7.580  67.653  1.00  0.00    -0.127 C  
HETATM   28  C   UNL     1      -8.268   6.292  68.005  1.00  0.00    -0.115 C  
HETATM   29  C   UNL     1      -7.468   7.508  67.695  1.00  0.00    -0.104 C  
ENDBRANCH  22  27
ENDBRANCH   9  11
TORSDOF 2
ENDMDL
MODEL       31
REMARK 921   NORMALIZED FREE ENERGY PREDICTED BY IDOCK:   -6.41 KCAL/MOL
REMARK 922        TOTAL FREE ENERGY PREDICTED BY IDOCK:   -7.90 KCAL/MOL
REMARK 923 INTER-LIGAND FREE ENERGY PREDICTED BY IDOCK:   -7.11 KCAL/MOL
REMARK 924 INTRA-LIGAND FREE ENERGY PREDICTED BY IDOCK:   -0.79 KCAL/MOL
REMARK 927      BINDING AFFINITY PREDICTED BY RF-SCORE:    0.00 PKD
ROOT
HETATM    1  N   UNL     1      -9.843   9.256  65.234  1.00  0.00    -0.424 NA 
HETATM    2  C   UNL     1      -8.433   9.492  64.878  1.00  0.00    -0.158 C  
HETATM    3  H1  UNL     1     -10.407  10.092  65.077  1.00  0.00     0.000 HD 
HETATM    4  H2  UNL     1      -9.937   8.914  66.191  1.00  0.00     0.000 HD 
HETATM    5  C   UNL     1      -7.584   8.233  65.115  1.00  0.00    -0.093 C  
HETATM    6  C   UNL     1      -7.290   7.877  66.580  1.00  0.00    -0.088 C  
HETATM    7  C   UNL     1      -6.312   8.846  67.260  1.00  0.00    -0.060 C  
HETATM    8  C   UNL     1      -6.913  10.143  67.836  1.00  0.00    -0.083 C  
HETATM    9  N   UNL     1      -8.094  10.604  67.082  1.00  0.00    -0.120 NA 
HETATM   10  C   UNL     1      -7.845  10.713  65.622  1.00  0.00    -0.123 C  
ENDROOT
BRANCH   9  11
HETATM   11  C   UNL     1      -9.117  11.335  67.729  1.00  0.00    -0.152 A  
HETATM   12  C   UNL     1      -9.292  12.721  67.522  1.00  0.00    -0.189 A  
HETATM   13  C   UNL     1     -10.263  13.470  68.164  1.00  0.00    -0.249 A  
HETATM   14  F   UNL     1      -8.512  13.440  66.706  1.00  0.00    -0.189 F  
HETATM   15  C   UNL     1     -11.090  12.875  69.106  1.00  0.00    -0.245 A  
HETATM   16  C   UNL     1     -12.023  13.777  69.816  1.00  0.00    -0.344 C  
HETATM   17  C   UNL     1     -12.832  13.228  70.905  1.00  0.00    -0.257 C  
HETATM   18  O   UNL     1     -12.100  14.972  69.540  1.00  0.00    -0.302 OA 
HETATM   19  C   UNL     1     -13.717  14.052  71.748  1.00  0.00    -0.395 C  
HETATM   20  C   UNL     1     -12.727  11.906  71.110  1.00  0.00    -0.284 C  
HETATM   21  O   UNL     1     -13.742  15.364  71.434  1.00  0.00    -0.487 OA 
HETATM   22  N   UNL     1     -11.965  11.000  70.380  1.00  0.00    -0.340 NA 
HETATM   23  O   UNL     1     -14.384  13.591  72.672  1.00  0.00    -0.716 OA 
HETATM   24  C   UNL     1     -11.051  11.490  69.370  1.00  0.00    -0.226 A  
HETATM   25 CL   UNL     1     -10.287   8.995  68.477  1.00  0.00    -0.225 Cl 
HETATM   26  C   UNL     1     -10.103  10.729  68.599  1.00  0.00    -0.183 A  
BRANCH  22  27
HETATM   27  C   UNL     1     -12.015   9.586  70.831  1.00  0.00    -0.295 C  
HETATM   28  C   UNL     1     -12.609   9.250  72.184  1.00  0.00    -0.443 C  
HETATM   29  C   UNL     1     -11.161   9.001  71.941  1.00  0.00    -0.438 C  
ENDBRANCH  22  27
ENDBRANCH   9  11
TORSDOF 2
ENDMDL
MODEL       32
REMARK 921   NORMALIZED FREE ENERGY PREDICTED BY IDOCK:   -6.38 KCAL/MOL
REMARK 922        TOTAL FREE ENERGY PREDICTED BY IDOCK:   -7.86 KCAL/MOL
REMARK 923 INTER-LIGAND FREE ENERGY PREDICTED BY IDOCK:   -7.07 KCAL/MOL
REMARK 924 INTRA-LIGAND FREE ENERGY PREDICTED BY IDOCK:   -0.79 KCAL/MOL
REMARK 927      BINDING AFFINITY PREDICTED BY RF-SCORE:    0.00 PKD
ROOT
HETATM    1  N   UNL     1     -11.182   5.054  65.741  1.00  0.00    -0.867 NA 
HETATM    2  C   UNL     1      -9.870   4.533  65.320  1.00  0.00    -0.169 C  
HETATM    3  H1  UNL     1     -11.489   5.814  65.133  1.00  0.00     0.000 HD 
HETATM    4  H2  UNL     1     -11.177   5.336  66.722  1.00  0.00     0.000 HD 
HETATM    5  C   UNL     1      -9.409   3.388  66.235  1.00  0.00    -0.157 C  
HETATM    6  C   UNL     1      -8.943   3.789  67.642  1.00  0.00    -0.158 C  
HETATM    7  C   UNL     1      -7.602   4.537  67.652  1.00  0.00    -0.078 C  
HETATM    8  C   UNL     1      -7.655   6.054  67.385  1.00  0.00    -0.093 C  
HETATM    9  N   UNL     1      -8.771   6.434  66.498  1.00  0.00    -0.128 NA 
HETATM   10  C   UNL     1      -8.804   5.650  65.237  1.00  0.00    -0.076 C  
ENDROOT
BRANCH   9  11
HETATM   11  C   UNL     1      -9.373   7.709  66.609  1.00  0.00    -0.190 A  
HETATM   12  C   UNL     1      -9.260   8.681  65.592  1.00  0.00    -0.139 A  
HETATM   13  C   UNL     1      -9.810   9.947  65.685  1.00  0.00    -0.368 A  
HETATM   14  F   UNL     1      -8.583   8.472  64.456  1.00  0.00    -0.174 F  
HETATM   15  C   UNL     1     -10.468  10.337  66.842  1.00  0.00    -0.291 A  
HETATM   16  C   UNL     1     -10.927  11.741  66.890  1.00  0.00    -0.285 C  
HETATM   17  C   UNL     1     -11.517  12.242  68.132  1.00  0.00    -0.371 C  
HETATM   18  O   UNL     1     -10.788  12.499  65.932  1.00  0.00    -0.259 OA 
HETATM   19  C   UNL     1     -11.915  13.647  68.329  1.00  0.00    -0.350 C  
HETATM   20  C   UNL     1     -11.680  11.341  69.113  1.00  0.00    -0.341 C  
HETATM   21  O   UNL     1     -11.709  14.451  67.264  1.00  0.00    -0.370 OA 
HETATM   22  N   UNL     1     -11.386   9.982  69.064  1.00  0.00    -0.141 NA 
HETATM   23  O   UNL     1     -12.396  14.069  69.378  1.00  0.00    -0.333 OA 
HETATM   24  C   UNL     1     -10.691   9.445  67.913  1.00  0.00    -0.210 A  
HETATM   25 CL   UNL     1     -10.821   6.815  68.733  1.00  0.00    -0.273 Cl 
HETATM   26  C   UNL     1     -10.200   8.105  67.729  1.00  0.00    -0.228 A  
BRANCH  22  27
HETATM   27  C   UNL     1     -11.649   9.208  70.303  1.00  0.00    -0.086 C  
HETATM   28  C   UNL     1     -12.058   9.933  71.569  1.00  0.00    -0.496 C  
HETATM   29  C   UNL     1     -10.757   9.210  71.531  1.00  0.00    -0.437 C  
ENDBRANCH  22  27
ENDBRANCH   9  11
TORSDOF 2
ENDMDL
MODEL       33
REMARK 921   NORMALIZED FREE ENERGY PREDICTED BY IDOCK:   -6.37 KCAL/MOL
REMARK 922        TOTAL FREE ENERGY PREDICTED BY IDOCK:   -7.85 KCAL/MOL
REMARK 923 INTER-LIGAND FREE ENERGY PREDICTED BY IDOCK:   -7.06 KCAL/MOL
REMARK 924 INTRA-LIGAND FREE ENERGY PREDICTED BY IDOCK:   -0.79 KCAL/MOL
REMARK 927      BINDING AFFINITY PREDICTED BY RF-SCORE:    0.00 PKD
ROOT
HETATM    1  N   UNL     1      -9.133   9.835  70.896  1.00  0.00    -0.341 NA 
HETATM    2  C   UNL     1      -8.665   8.488  70.528  1.00  0.00    -0.152 C  
HETATM    3  H1  UNL     1     -10.098   9.983  70.599  1.00  0.00     0.000 HD 
HETATM    4  H2  UNL     1      -8.513  10.560  70.533  1.00  0.00     0.000 HD 
HETATM    5  C   UNL     1      -7.211   8.265  70.975  1.00  0.00    -0.061 C  
HETATM    6  C   UNL     1      -6.132   9.002  70.168  1.00  0.00    -0.037 C  
HETATM    7  C   UNL     1      -5.939   8.442  68.751  1.00  0.00    -0.044 C  
HETATM    8  C   UNL     1      -6.908   8.955  67.668  1.00  0.00    -0.070 C  
HETATM    9  N   UNL     1      -8.235   9.302  68.213  1.00  0.00    -0.114 NA 
HETATM   10  C   UNL     1      -8.836   8.208  69.017  1.00  0.00    -0.144 C  
ENDROOT
BRANCH   9  11
HETATM   11  C   UNL     1      -9.019  10.309  67.604  1.00  0.00    -0.134 A  
HETATM   12  C   UNL     1     -10.217  10.013  66.918  1.00  0.00    -0.238 A  
HETATM   13  C   UNL     1     -10.989  10.972  66.286  1.00  0.00    -0.184 A  
HETATM   14  F   UNL     1     -10.698   8.770  66.796  1.00  0.00    -0.335 F  
HETATM   15  C   UNL     1     -10.570  12.293  66.256  1.00  0.00    -0.282 A  
HETATM   16  C   UNL     1     -11.404  13.224  65.466  1.00  0.00    -0.294 C  
HETATM   17  C   UNL     1     -10.944  14.603  65.298  1.00  0.00    -0.374 C  
HETATM   18  O   UNL     1     -12.442  12.857  64.922  1.00  0.00    -0.457 OA 
HETATM   19  C   UNL     1     -11.638  15.588  64.449  1.00  0.00    -0.258 C  
HETATM   20  C   UNL     1      -9.829  14.940  65.965  1.00  0.00    -0.318 C  
HETATM   21  O   UNL     1     -12.753  15.131  63.840  1.00  0.00    -0.759 OA 
HETATM   22  N   UNL     1      -9.088  14.135  66.824  1.00  0.00    -0.260 NA 
HETATM   23  O   UNL     1     -11.242  16.742  64.297  1.00  0.00    -1.163 OA 
HETATM   24  C   UNL     1      -9.416  12.730  66.943  1.00  0.00    -0.235 A  
HETATM   25 CL   UNL     1      -7.580  12.200  68.931  1.00  0.00    -0.051 Cl 
HETATM   26  C   UNL     1      -8.704  11.720  67.680  1.00  0.00    -0.159 A  
BRANCH  22  27
HETATM   27  C   UNL     1      -7.880  14.753  67.424  1.00  0.00    -0.200 C  
HETATM   28  C   UNL     1      -8.030  15.899  68.403  1.00  0.00    -0.147 C  
HETATM   29  C   UNL     1      -7.363  16.142  67.094  1.00  0.00    -0.250 C  
ENDBRANCH  22  27
ENDBRANCH   9  11
TORSDOF 2
ENDMDL
MODEL       34
REMARK 921   NORMALIZED FREE ENERGY PREDICTED BY IDOCK:   -6.35 KCAL/MOL
REMARK 922        TOTAL FREE ENERGY PREDICTED BY IDOCK:   -7.83 KCAL/MOL
REMARK 923 INTER-LIGAND FREE ENERGY PREDICTED BY IDOCK:   -7.03 KCAL/MOL
REMARK 924 INTRA-LIGAND FREE ENERGY PREDICTED BY IDOCK:   -0.80 KCAL/MOL
REMARK 927      BINDING AFFINITY PREDICTED BY RF-SCORE:    0.00 PKD
ROOT
HETATM    1  N   UNL     1      -7.809   8.116  65.855  1.00  0.00    -0.090 NA 
HETATM    2  C   UNL     1      -6.853   8.050  66.973  1.00  0.00    -0.073 C  
HETATM    3  H1  UNL     1      -7.676   8.966  65.306  1.00  0.00     0.000 HD 
HETATM    4  H2  UNL     1      -8.773   8.025  66.178  1.00  0.00     0.000 HD 
HETATM    5  C   UNL     1      -7.053   6.769  67.798  1.00  0.00    -0.085 C  
HETATM    6  C   UNL     1      -8.301   6.726  68.692  1.00  0.00    -0.120 C  
HETATM    7  C   UNL     1      -8.222   7.670  69.900  1.00  0.00    -0.130 C  
HETATM    8  C   UNL     1      -8.615   9.140  69.655  1.00  0.00    -0.143 C  
HETATM    9  N   UNL     1      -8.321   9.583  68.279  1.00  0.00    -0.117 NA 
HETATM   10  C   UNL     1      -6.920   9.310  67.867  1.00  0.00    -0.077 C  
ENDROOT
BRANCH   9  11
HETATM   11  C   UNL     1      -9.106  10.588  67.667  1.00  0.00    -0.142 A  
HETATM   12  C   UNL     1     -10.350  10.302  67.064  1.00  0.00    -0.243 A  
HETATM   13  C   UNL     1     -11.126  11.257  66.431  1.00  0.00    -0.257 A  
HETATM   14  F   UNL     1     -10.877   9.072  67.027  1.00  0.00    -0.325 F  
HETATM   15  C   UNL     1     -10.667  12.561  66.315  1.00  0.00    -0.288 A  
HETATM   16  C   UNL     1     -11.515  13.483  65.530  1.00  0.00    -0.304 C  
HETATM   17  C   UNL     1     -11.021  14.836  65.271  1.00  0.00    -0.382 C  
HETATM   18  O   UNL     1     -12.594  13.127  65.062  1.00  0.00    -0.530 OA 
HETATM   19  C   UNL     1     -11.731  15.805  64.417  1.00  0.00    -0.201 C  
HETATM   20  C   UNL     1      -9.860  15.164  65.858  1.00  0.00    -0.341 C  
HETATM   21  O   UNL     1     -12.892  15.359  63.893  1.00  0.00    -0.604 OA 
HETATM   22  N   UNL     1      -9.098  14.374  66.712  1.00  0.00    -0.259 NA 
HETATM   23  O   UNL     1     -11.307  16.936  64.188  1.00  0.00    -1.208 OA 
HETATM   24  C   UNL     1      -9.463  12.988  66.915  1.00  0.00    -0.242 A  
HETATM   25 CL   UNL     1      -7.534  12.486  68.822  1.00  0.00    -0.087 Cl 
HETATM   26  C   UNL     1      -8.743  11.989  67.659  1.00  0.00    -0.166 A  
BRANCH  22  27
HETATM   27  C   UNL     1      -7.838  14.977  67.215  1.00  0.00    -0.211 C  
HETATM   28  C   UNL     1      -7.896  16.149  68.173  1.00  0.00    -0.147 C  
HETATM   29  C   UNL     1      -7.314  16.345  66.818  1.00  0.00    -0.261 C  
ENDBRANCH  22  27
ENDBRANCH   9  11
TORSDOF 2
ENDMDL
MODEL       35
REMARK 921   NORMALIZED FREE ENERGY PREDICTED BY IDOCK:   -6.35 KCAL/MOL
REMARK 922        TOTAL FREE ENERGY PREDICTED BY IDOCK:   -7.83 KCAL/MOL
REMARK 923 INTER-LIGAND FREE ENERGY PREDICTED BY IDOCK:   -7.06 KCAL/MOL
REMARK 924 INTRA-LIGAND FREE ENERGY PREDICTED BY IDOCK:   -0.77 KCAL/MOL
REMARK 927      BINDING AFFINITY PREDICTED BY RF-SCORE:    0.00 PKD
ROOT
HETATM    1  N   UNL     1      -8.944  13.826  66.771  1.00  0.00    -0.380 NA 
HETATM    2  C   UNL     1      -9.557  14.199  65.485  1.00  0.00    -0.018 C  
HETATM    3  H1  UNL     1      -8.263  13.076  66.650  1.00  0.00     0.000 HD 
HETATM    4  H2  UNL     1      -9.649  13.584  67.467  1.00  0.00     0.000 HD 
HETATM    5  C   UNL     1     -10.582  15.329  65.666  1.00  0.00    -0.377 C  
HETATM    6  C   UNL     1     -11.909  14.942  66.335  1.00  0.00    -0.137 C  
HETATM    7  C   UNL     1     -12.808  14.068  65.448  1.00  0.00    -0.442 C  
HETATM    8  C   UNL     1     -12.519  12.554  65.452  1.00  0.00    -0.240 C  
HETATM    9  N   UNL     1     -11.095  12.249  65.686  1.00  0.00    -0.305 NA 
HETATM   10  C   UNL     1     -10.186  12.982  64.768  1.00  0.00    -0.291 C  
ENDROOT
BRANCH   9  11
HETATM   11  C   UNL     1     -10.715  11.044  66.322  1.00  0.00    -0.212 A  
HETATM   12  C   UNL     1     -10.129   9.975  65.610  1.00  0.00    -0.251 A  
HETATM   13  C   UNL     1      -9.776   8.773  66.197  1.00  0.00    -0.320 A  
HETATM   14  F   UNL     1      -9.890  10.020  64.293  1.00  0.00    -0.369 F  
HETATM   15  C   UNL     1     -10.043   8.549  67.539  1.00  0.00    -0.282 A  
HETATM   16  C   UNL     1      -9.728   7.198  68.051  1.00  0.00    -0.138 C  
HETATM   17  C   UNL     1     -10.104   6.866  69.426  1.00  0.00    -0.176 C  
HETATM   18  O   UNL     1      -9.202   6.346  67.340  1.00  0.00    -0.118 OA 
HETATM   19  C   UNL     1      -9.933   5.523  70.008  1.00  0.00    -0.218 C  
HETATM   20  C   UNL     1     -10.628   7.866  70.152  1.00  0.00    -0.237 C  
HETATM   21  O   UNL     1      -9.386   4.609  69.180  1.00  0.00    -0.118 OA 
HETATM   22  N   UNL     1     -10.818   9.185  69.754  1.00  0.00    -0.227 NA 
HETATM   23  O   UNL     1     -10.263   5.243  71.158  1.00  0.00    -0.205 OA 
HETATM   24  C   UNL     1     -10.582   9.553  68.374  1.00  0.00    -0.219 A  
HETATM   25 CL   UNL     1     -11.026  12.249  68.742  1.00  0.00    -0.262 Cl 
HETATM   26  C   UNL     1     -10.831  10.824  67.748  1.00  0.00    -0.269 A  
BRANCH  22  27
HETATM   27  C   UNL     1     -11.437  10.090  70.754  1.00  0.00    -0.356 C  
HETATM   28  C   UNL     1     -12.186   9.506  71.935  1.00  0.00    -0.432 C  
HETATM   29  C   UNL     1     -12.931  10.303  70.922  1.00  0.00    -0.456 C  
ENDBRANCH  22  27
ENDBRANCH   9  11
TORSDOF 2
ENDMDL
MODEL       36
REMARK 921   NORMALIZED FREE ENERGY PREDICTED BY IDOCK:   -6.34 KCAL/MOL
REMARK 922        TOTAL FREE ENERGY PREDICTED BY IDOCK:   -7.82 KCAL/MOL
REMARK 923 INTER-LIGAND FREE ENERGY PREDICTED BY IDOCK:   -7.02 KCAL/MOL
REMARK 924 INTRA-LIGAND FREE ENERGY PREDICTED BY IDOCK:   -0.80 KCAL/MOL
REMARK 927      BINDING AFFINITY PREDICTED BY RF-SCORE:    0.00 PKD
ROOT
HETATM    1  N   UNL     1      -7.772   6.864  69.780  1.00  0.00    -0.110 NA 
HETATM    2  C   UNL     1      -8.323   5.548  69.412  1.00  0.00    -0.101 C  
HETATM    3  H1  UNL     1      -8.082   7.145  70.711  1.00  0.00     0.000 HD 
HETATM    4  H2  UNL     1      -7.994   7.573  69.081  1.00  0.00     0.000 HD 
HETATM    5  C   UNL     1      -7.856   5.125  68.011  1.00  0.00    -0.087 C  
HETATM    6  C   UNL     1      -8.496   5.868  66.829  1.00  0.00    -0.109 C  
HETATM    7  C   UNL     1      -9.973   5.509  66.608  1.00  0.00    -0.213 C  
HETATM    8  C   UNL     1     -11.003   6.267  67.468  1.00  0.00    -0.350 C  
HETATM    9  N   UNL     1     -10.467   6.653  68.787  1.00  0.00    -0.197 NA 
HETATM   10  C   UNL     1      -9.864   5.513  69.525  1.00  0.00    -0.189 C  
ENDROOT
BRANCH   9  11
HETATM   11  C   UNL     1     -10.946   7.810  69.445  1.00  0.00    -0.035 A  
HETATM   12  C   UNL     1     -11.750   7.732  70.604  1.00  0.00    -0.175 A  
HETATM   13  C   UNL     1     -12.259   8.843  71.252  1.00  0.00    -0.351 A  
HETATM   14  F   UNL     1     -12.115   6.571  71.162  1.00  0.00    -0.378 F  
HETATM   15  C   UNL     1     -12.035  10.112  70.738  1.00  0.00    -0.442 A  
HETATM   16  C   UNL     1     -12.709  11.227  71.437  1.00  0.00    -0.396 C  
HETATM   17  C   UNL     1     -12.609  12.571  70.867  1.00  0.00    -0.331 C  
HETATM   18  O   UNL     1     -13.376  11.043  72.452  1.00  0.00    -0.257 OA 
HETATM   19  C   UNL     1     -13.321  13.737  71.419  1.00  0.00    -0.270 C  
HETATM   20  C   UNL     1     -11.822  12.698  69.788  1.00  0.00    -0.309 C  
HETATM   21  O   UNL     1     -14.072  13.482  72.511  1.00  0.00    -0.731 OA 
HETATM   22  N   UNL     1     -11.065  11.703  69.178  1.00  0.00    -0.241 NA 
HETATM   23  O   UNL     1     -13.248  14.863  70.929  1.00  0.00    -0.375 OA 
HETATM   24  C   UNL     1     -11.209  10.330  69.614  1.00  0.00    -0.269 A  
HETATM   25 CL   UNL     1      -9.223   9.328  67.985  1.00  0.00    -0.135 Cl 
HETATM   26  C   UNL     1     -10.609   9.157  69.038  1.00  0.00    -0.199 A  
BRANCH  22  27
HETATM   27  C   UNL     1     -10.289  12.110  67.980  1.00  0.00    -0.205 C  
HETATM   28  C   UNL     1     -10.597  13.427  67.297  1.00  0.00    -0.256 C  
HETATM   29  C   UNL     1     -10.840  12.154  66.565  1.00  0.00    -0.307 C  
ENDBRANCH  22  27
ENDBRANCH   9  11
TORSDOF 2
ENDMDL
MODEL       37
REMARK 921   NORMALIZED FREE ENERGY PREDICTED BY IDOCK:   -6.34 KCAL/MOL
REMARK 922        TOTAL FREE ENERGY PREDICTED BY IDOCK:   -7.82 KCAL/MOL
REMARK 923 INTER-LIGAND FREE ENERGY PREDICTED BY IDOCK:   -7.21 KCAL/MOL
REMARK 924 INTRA-LIGAND FREE ENERGY PREDICTED BY IDOCK:   -0.61 KCAL/MOL
REMARK 927      BINDING AFFINITY PREDICTED BY RF-SCORE:    0.00 PKD
ROOT
HETATM    1  N   UNL     1     -10.153   8.621  71.728  1.00  0.00    -0.281 NA 
HETATM    2  C   UNL     1     -11.244   8.194  72.620  1.00  0.00    -0.378 C  
HETATM    3  H1  UNL     1      -9.801   9.542  71.993  1.00  0.00     0.000 HD 
HETATM    4  H2  UNL     1     -10.436   8.595  70.748  1.00  0.00     0.000 HD 
HETATM    5  C   UNL     1     -11.773   6.807  72.222  1.00  0.00    -0.300 C  
HETATM    6  C   UNL     1     -12.621   6.745  70.943  1.00  0.00    -0.199 C  
HETATM    7  C   UNL     1     -14.004   7.394  71.093  1.00  0.00    -0.260 C  
HETATM    8  C   UNL     1     -14.073   8.922  70.904  1.00  0.00     0.232 C  
HETATM    9  N   UNL     1     -12.827   9.601  71.309  1.00  0.00    -0.342 NA 
HETATM   10  C   UNL     1     -12.386   9.234  72.679  1.00  0.00     0.111 C  
ENDROOT
BRANCH   9  11
HETATM   11  C   UNL     1     -12.434  10.809  70.687  1.00  0.00    -0.370 A  
HETATM   12  C   UNL     1     -12.676  12.068  71.279  1.00  0.00    -0.279 A  
HETATM   13  C   UNL     1     -12.332  13.268  70.682  1.00  0.00    -0.416 A  
HETATM   14  F   UNL     1     -13.288  12.213  72.461  1.00  0.00    -0.585 F  
HETATM   15  C   UNL     1     -11.768  13.278  69.414  1.00  0.00    -0.383 A  
HETATM   16  C   UNL     1     -11.535  14.609  68.815  1.00  0.00    -0.296 C  
HETATM   17  C   UNL     1     -11.058  14.679  67.433  1.00  0.00    -0.331 C  
HETATM   18  O   UNL     1     -11.770  15.645  69.433  1.00  0.00    -0.341 OA 
HETATM   19  C   UNL     1     -10.888  15.947  66.701  1.00  0.00    -0.213 C  
HETATM   20  C   UNL     1     -10.777  13.506  66.845  1.00  0.00    -0.274 C  
HETATM   21  O   UNL     1     -11.194  17.057  67.405  1.00  0.00    -0.038 OA 
HETATM   22  N   UNL     1     -10.854  12.240  67.416  1.00  0.00    -0.232 NA 
HETATM   23  O   UNL     1     -10.502  16.002  65.535  1.00  0.00    -0.371 OA 
HETATM   24  C   UNL     1     -11.431  12.087  68.735  1.00  0.00    -0.300 A  
HETATM   25 CL   UNL     1     -10.911   9.387  68.937  1.00  0.00    -0.196 Cl 
HETATM   26  C   UNL     1     -11.704  10.863  69.439  1.00  0.00    -0.325 A  
BRANCH  22  27
HETATM   27  C   UNL     1     -10.500  11.100  66.534  1.00  0.00    -0.255 C  
HETATM   28  C   UNL     1      -9.184  11.112  65.782  1.00  0.00    -0.234 C  
HETATM   29  C   UNL     1     -10.460  11.158  65.018  1.00  0.00    -0.357 C  
ENDBRANCH  22  27
ENDBRANCH   9  11
TORSDOF 2
ENDMDL
MODEL       38
REMARK 921   NORMALIZED FREE ENERGY PREDICTED BY IDOCK:   -6.32 KCAL/MOL
REMARK 922        TOTAL FREE ENERGY PREDICTED BY IDOCK:   -7.79 KCAL/MOL
REMARK 923 INTER-LIGAND FREE ENERGY PREDICTED BY IDOCK:   -7.00 KCAL/MOL
REMARK 924 INTRA-LIGAND FREE ENERGY PREDICTED BY IDOCK:   -0.79 KCAL/MOL
REMARK 927      BINDING AFFINITY PREDICTED BY RF-SCORE:    0.00 PKD
ROOT
HETATM    1  N   UNL     1      -8.601  13.485  68.766  1.00  0.00    -0.366 NA 
HETATM    2  C   UNL     1      -8.671  13.618  67.300  1.00  0.00    -0.218 C  
HETATM    3  H1  UNL     1      -8.150  12.610  69.034  1.00  0.00     0.000 HD 
HETATM    4  H2  UNL     1      -9.521  13.580  69.196  1.00  0.00     0.000 HD 
HETATM    5  C   UNL     1      -9.350  14.936  66.896  1.00  0.00    -0.258 C  
HETATM    6  C   UNL     1     -10.870  15.009  67.105  1.00  0.00    -0.314 C  
HETATM    7  C   UNL     1     -11.664  14.127  66.130  1.00  0.00    -0.402 C  
HETATM    8  C   UNL     1     -11.818  12.642  66.512  1.00  0.00    -0.396 C  
HETATM    9  N   UNL     1     -10.672  12.134  67.291  1.00  0.00    -0.223 NA 
HETATM   10  C   UNL     1      -9.364  12.404  66.641  1.00  0.00    -0.227 C  
ENDROOT
BRANCH   9  11
HETATM   11  C   UNL     1     -10.849  11.090  68.228  1.00  0.00    -0.215 A  
HETATM   12  C   UNL     1     -11.351  11.327  69.526  1.00  0.00    -0.294 A  
HETATM   13  C   UNL     1     -11.505  10.333  70.475  1.00  0.00    -0.427 A  
HETATM   14  F   UNL     1     -11.695  12.545  69.964  1.00  0.00    -0.361 F  
HETATM   15  C   UNL     1     -11.109   9.034  70.193  1.00  0.00    -0.228 A  
HETATM   16  C   UNL     1     -11.213   8.064  71.305  1.00  0.00    -0.256 C  
HETATM   17  C   UNL     1     -10.694   6.711  71.102  1.00  0.00    -0.274 C  
HETATM   18  O   UNL     1     -11.683   8.380  72.395  1.00  0.00    -0.370 OA 
HETATM   19  C   UNL     1     -10.651   5.694  72.168  1.00  0.00    -0.223 C  
HETATM   20  C   UNL     1     -10.244   6.429  69.869  1.00  0.00    -0.183 C  
HETATM   21  O   UNL     1     -11.142   6.096  73.359  1.00  0.00    -0.212 OA 
HETATM   22  N   UNL     1     -10.251   7.268  68.760  1.00  0.00    -0.177 NA 
HETATM   23  O   UNL     1     -10.201   4.563  71.999  1.00  0.00    -0.192 OA 
HETATM   24  C   UNL     1     -10.637   8.655  68.918  1.00  0.00    -0.144 A  
HETATM   25 CL   UNL     1     -10.504   9.271  66.233  1.00  0.00    -0.193 Cl 
HETATM   26  C   UNL     1     -10.597   9.697  67.927  1.00  0.00    -0.255 A  
BRANCH  22  27
HETATM   27  C   UNL     1      -9.674   6.711  67.511  1.00  0.00    -0.127 C  
HETATM   28  C   UNL     1     -10.462   5.696  66.707  1.00  0.00    -0.353 C  
HETATM   29  C   UNL     1      -9.183   5.283  67.346  1.00  0.00    -0.116 C  
ENDBRANCH  22  27
ENDBRANCH   9  11
TORSDOF 2
ENDMDL
MODEL       39
REMARK 921   NORMALIZED FREE ENERGY PREDICTED BY IDOCK:   -6.30 KCAL/MOL
REMARK 922        TOTAL FREE ENERGY PREDICTED BY IDOCK:   -7.78 KCAL/MOL
REMARK 923 INTER-LIGAND FREE ENERGY PREDICTED BY IDOCK:   -7.06 KCAL/MOL
REMARK 924 INTRA-LIGAND FREE ENERGY PREDICTED BY IDOCK:   -0.71 KCAL/MOL
REMARK 927      BINDING AFFINITY PREDICTED BY RF-SCORE:    0.00 PKD
ROOT
HETATM    1  N   UNL     1     -11.105   5.711  66.428  1.00  0.00    -0.758 NA 
HETATM    2  C   UNL     1      -9.716   5.261  66.234  1.00  0.00    -0.169 C  
HETATM    3  H1  UNL     1     -11.254   6.633  66.017  1.00  0.00     0.000 HD 
HETATM    4  H2  UNL     1     -11.372   5.692  67.413  1.00  0.00     0.000 HD 
HETATM    5  C   UNL     1      -9.492   3.872  66.853  1.00  0.00    -0.225 C  
HETATM    6  C   UNL     1      -9.433   3.814  68.386  1.00  0.00    -0.211 C  
HETATM    7  C   UNL     1      -8.163   4.445  68.974  1.00  0.00    -0.083 C  
HETATM    8  C   UNL     1      -8.178   5.974  69.167  1.00  0.00    -0.111 C  
HETATM    9  N   UNL     1      -9.021   6.663  68.172  1.00  0.00    -0.122 NA 
HETATM   10  C   UNL     1      -8.693   6.287  66.773  1.00  0.00    -0.117 C  
ENDROOT
BRANCH   9  11
HETATM   11  C   UNL     1      -9.661   7.882  68.496  1.00  0.00    -0.150 A  
HETATM   12  C   UNL     1      -9.293   9.104  67.891  1.00  0.00    -0.137 A  
HETATM   13  C   UNL     1      -9.878  10.317  68.209  1.00  0.00    -0.161 A  
HETATM   14  F   UNL     1      -8.322   9.200  66.974  1.00  0.00    -0.114 F  
HETATM   15  C   UNL     1     -10.840  10.385  69.206  1.00  0.00    -0.280 A  
HETATM   16  C   UNL     1     -11.328  11.738  69.549  1.00  0.00    -0.248 C  
HETATM   17  C   UNL     1     -12.251  11.883  70.675  1.00  0.00    -0.424 C  
HETATM   18  O   UNL     1     -10.947  12.735  68.940  1.00  0.00    -0.245 OA 
HETATM   19  C   UNL     1     -12.721  13.188  71.172  1.00  0.00    -0.300 C  
HETATM   20  C   UNL     1     -12.658  10.743  71.255  1.00  0.00    -0.426 C  
HETATM   21  O   UNL     1     -12.248  14.258  70.498  1.00  0.00    -0.310 OA 
HETATM   22  N   UNL     1     -12.330   9.445  70.880  1.00  0.00    -0.241 NA 
HETATM   23  O   UNL     1     -13.485  13.308  72.128  1.00  0.00    -0.485 OA 
HETATM   24  C   UNL     1     -11.330   9.232  69.854  1.00  0.00    -0.061 A  
HETATM   25 CL   UNL     1     -11.619   6.490  69.774  1.00  0.00    -0.444 Cl 
HETATM   26  C   UNL     1     -10.775   7.979  69.414  1.00  0.00    -0.159 A  
BRANCH  22  27
HETATM   27  C   UNL     1     -12.908   8.356  71.706  1.00  0.00    -0.345 C  
HETATM   28  C   UNL     1     -14.293   7.828  71.391  1.00  0.00    -0.513 C  
HETATM   29  C   UNL     1     -14.058   8.528  72.683  1.00  0.00    -0.222 C  
ENDBRANCH  22  27
ENDBRANCH   9  11
TORSDOF 2
ENDMDL
MODEL       40
REMARK 921   NORMALIZED FREE ENERGY PREDICTED BY IDOCK:   -6.30 KCAL/MOL
REMARK 922        TOTAL FREE ENERGY PREDICTED BY IDOCK:   -7.77 KCAL/MOL
REMARK 923 INTER-LIGAND FREE ENERGY PREDICTED BY IDOCK:   -7.91 KCAL/MOL
REMARK 924 INTRA-LIGAND FREE ENERGY PREDICTED BY IDOCK:    0.14 KCAL/MOL
REMARK 927      BINDING AFFINITY PREDICTED BY RF-SCORE:    0.00 PKD
ROOT
HETATM    1  N   UNL     1     -11.156   7.578  67.822  1.00  0.00    -0.495 NA 
HETATM    2  C   UNL     1     -10.403   6.960  68.927  1.00  0.00    -0.189 C  
HETATM    3  H1  UNL     1     -10.533   8.080  67.188  1.00  0.00     0.000 HD 
HETATM    4  H2  UNL     1     -11.905   8.180  68.167  1.00  0.00     0.000 HD 
HETATM    5  C   UNL     1     -11.341   6.204  69.881  1.00  0.00    -0.454 C  
HETATM    6  C   UNL     1     -12.223   7.069  70.794  1.00  0.00    -0.343 C  
HETATM    7  C   UNL     1     -11.438   7.791  71.898  1.00  0.00    -0.320 C  
HETATM    8  C   UNL     1     -10.766   9.123  71.510  1.00  0.00    -0.367 C  
HETATM    9  N   UNL     1     -10.363   9.162  70.091  1.00  0.00    -0.200 NA 
HETATM   10  C   UNL     1      -9.541   7.993  69.689  1.00  0.00    -0.168 C  
ENDROOT
BRANCH   9  11
HETATM   11  C   UNL     1     -10.321  10.391  69.392  1.00  0.00    -0.237 A  
HETATM   12  C   UNL     1      -9.450  10.601  68.301  1.00  0.00    -0.159 A  
HETATM   13  C   UNL     1      -9.364  11.801  67.617  1.00  0.00    -0.180 A  
HETATM   14  F   UNL     1      -8.608   9.663  67.849  1.00  0.00    -0.119 F  
HETATM   15  C   UNL     1     -10.115  12.892  68.028  1.00  0.00    -0.235 A  
HETATM   16  C   UNL     1      -9.875  14.159  67.304  1.00  0.00    -0.238 C  
HETATM   17  C   UNL     1     -10.547  15.370  67.774  1.00  0.00    -0.274 C  
HETATM   18  O   UNL     1      -9.100  14.221  66.352  1.00  0.00    -0.235 OA 
HETATM   19  C   UNL     1     -10.306  16.704  67.196  1.00  0.00    -0.300 C  
HETATM   20  C   UNL     1     -11.415  15.209  68.785  1.00  0.00    -0.319 C  
HETATM   21  O   UNL     1      -9.419  16.732  66.179  1.00  0.00    -0.306 OA 
HETATM   22  N   UNL     1     -11.771  14.017  69.406  1.00  0.00    -0.293 NA 
HETATM   23  O   UNL     1     -10.860  17.723  67.603  1.00  0.00    -0.363 OA 
HETATM   24  C   UNL     1     -11.058  12.801  69.074  1.00  0.00    -0.233 A  
HETATM   25 CL   UNL     1     -12.627  11.146  70.624  1.00  0.00    -0.418 Cl 
HETATM   26  C   UNL     1     -11.197  11.506  69.685  1.00  0.00    -0.204 A  
BRANCH  22  27
HETATM   27  C   UNL     1     -12.749  14.121  70.518  1.00  0.00    -0.309 C  
HETATM   28  C   UNL     1     -13.218  15.486  70.980  1.00  0.00    -0.539 C  
HETATM   29  C   UNL     1     -12.426  14.635  71.909  1.00  0.00    -0.412 C  
ENDBRANCH  22  27
ENDBRANCH   9  11
TORSDOF 2
ENDMDL
MODEL       41
REMARK 921   NORMALIZED FREE ENERGY PREDICTED BY IDOCK:   -6.29 KCAL/MOL
REMARK 922        TOTAL FREE ENERGY PREDICTED BY IDOCK:   -7.76 KCAL/MOL
REMARK 923 INTER-LIGAND FREE ENERGY PREDICTED BY IDOCK:   -6.94 KCAL/MOL
REMARK 924 INTRA-LIGAND FREE ENERGY PREDICTED BY IDOCK:   -0.82 KCAL/MOL
REMARK 927      BINDING AFFINITY PREDICTED BY RF-SCORE:    0.00 PKD
ROOT
HETATM    1  N   UNL     1     -10.023   9.896  70.800  1.00  0.00    -0.333 NA 
HETATM    2  C   UNL     1     -10.124   8.550  70.212  1.00  0.00    -0.186 C  
HETATM    3  H1  UNL     1     -10.720  10.525  70.399  1.00  0.00     0.000 HD 
HETATM    4  H2  UNL     1      -9.080  10.275  70.712  1.00  0.00     0.000 HD 
HETATM    5  C   UNL     1      -9.076   7.602  70.816  1.00  0.00    -0.153 C  
HETATM    6  C   UNL     1      -7.622   7.827  70.374  1.00  0.00    -0.087 C  
HETATM    7  C   UNL     1      -7.358   7.431  68.915  1.00  0.00    -0.091 C  
HETATM    8  C   UNL     1      -7.705   8.480  67.841  1.00  0.00    -0.103 C  
HETATM    9  N   UNL     1      -8.831   9.347  68.238  1.00  0.00    -0.128 NA 
HETATM   10  C   UNL     1     -10.028   8.582  68.669  1.00  0.00    -0.184 C  
ENDROOT
BRANCH   9  11
HETATM   11  C   UNL     1      -8.915  10.676  67.760  1.00  0.00    -0.140 A  
HETATM   12  C   UNL     1      -8.261  11.746  68.408  1.00  0.00    -0.154 A  
HETATM   13  C   UNL     1      -8.349  13.060  67.984  1.00  0.00    -0.169 A  
HETATM   14  F   UNL     1      -7.519  11.587  69.512  1.00  0.00    -0.079 F  
HETATM   15  C   UNL     1      -9.153  13.390  66.903  1.00  0.00    -0.237 A  
HETATM   16  C   UNL     1      -9.268  14.831  66.592  1.00  0.00    -0.275 C  
HETATM   17  C   UNL     1     -10.199  15.246  65.542  1.00  0.00    -0.417 C  
HETATM   18  O   UNL     1      -8.637  15.679  67.218  1.00  0.00    -0.171 OA 
HETATM   19  C   UNL     1     -10.472  16.657  65.216  1.00  0.00    -0.173 C  
HETATM   20  C   UNL     1     -10.812  14.258  64.872  1.00  0.00    -0.416 C  
HETATM   21  O   UNL     1      -9.785  17.555  65.954  1.00  0.00    -0.513 OA 
HETATM   22  N   UNL     1     -10.633  12.890  65.041  1.00  0.00    -0.303 NA 
HETATM   23  O   UNL     1     -11.265  17.004  64.344  1.00  0.00    -1.167 OA 
HETATM   24  C   UNL     1      -9.821  12.409  66.140  1.00  0.00    -0.252 A  
HETATM   25 CL   UNL     1      -9.971   9.748  65.430  1.00  0.00    -0.374 Cl 
HETATM   26  C   UNL     1      -9.613  11.045  66.547  1.00  0.00    -0.195 A  
BRANCH  22  27
HETATM   27  C   UNL     1     -11.454  12.007  64.175  1.00  0.00    -0.383 C  
HETATM   28  C   UNL     1     -12.311  12.613  63.082  1.00  0.00    -0.291 C  
HETATM   29  C   UNL     1     -12.968  11.915  64.221  1.00  0.00     0.031 C  
ENDBRANCH  22  27
ENDBRANCH   9  11
TORSDOF 2
ENDMDL
MODEL       42
REMARK 921   NORMALIZED FREE ENERGY PREDICTED BY IDOCK:   -6.26 KCAL/MOL
REMARK 922        TOTAL FREE ENERGY PREDICTED BY IDOCK:   -7.73 KCAL/MOL
REMARK 923 INTER-LIGAND FREE ENERGY PREDICTED BY IDOCK:   -6.93 KCAL/MOL
REMARK 924 INTRA-LIGAND FREE ENERGY PREDICTED BY IDOCK:   -0.80 KCAL/MOL
REMARK 927      BINDING AFFINITY PREDICTED BY RF-SCORE:    0.00 PKD
ROOT
HETATM    1  N   UNL     1     -11.617  12.273  64.920  1.00  0.00    -0.340 NA 
HETATM    2  C   UNL     1     -12.242  13.495  65.454  1.00  0.00    -0.447 C  
HETATM    3  H1  UNL     1     -12.076  11.437  65.282  1.00  0.00     0.000 HD 
HETATM    4  H2  UNL     1     -10.612  12.256  65.098  1.00  0.00     0.000 HD 
HETATM    5  C   UNL     1     -11.551  14.755  64.909  1.00  0.00    -0.401 C  
HETATM    6  C   UNL     1     -10.157  15.064  65.476  1.00  0.00    -0.400 C  
HETATM    7  C   UNL     1     -10.182  15.530  66.939  1.00  0.00    -0.279 C  
HETATM    8  C   UNL     1     -10.227  14.426  68.014  1.00  0.00    -0.228 C  
HETATM    9  N   UNL     1     -10.930  13.214  67.553  1.00  0.00    -0.257 NA 
HETATM   10  C   UNL     1     -12.278  13.500  67.000  1.00  0.00    -0.303 C  
ENDROOT
BRANCH   9  11
HETATM   11  C   UNL     1     -10.577  11.943  68.065  1.00  0.00    -0.207 A  
HETATM   12  C   UNL     1      -9.484  11.209  67.556  1.00  0.00    -0.168 A  
HETATM   13  C   UNL     1      -9.133   9.952  68.013  1.00  0.00    -0.123 A  
HETATM   14  F   UNL     1      -8.705  11.656  66.562  1.00  0.00    -0.171 F  
HETATM   15  C   UNL     1      -9.901   9.324  68.983  1.00  0.00    -0.168 A  
HETATM   16  C   UNL     1      -9.511   7.941  69.330  1.00  0.00    -0.152 C  
HETATM   17  C   UNL     1     -10.359   7.187  70.254  1.00  0.00    -0.214 C  
HETATM   18  O   UNL     1      -8.525   7.405  68.831  1.00  0.00    -0.128 OA 
HETATM   19  C   UNL     1     -10.127   5.772  70.592  1.00  0.00    -0.203 C  
HETATM   20  C   UNL     1     -11.388   7.859  70.793  1.00  0.00    -0.274 C  
HETATM   21  O   UNL     1      -9.055   5.212  69.993  1.00  0.00    -0.117 OA 
HETATM   22  N   UNL     1     -11.713   9.198  70.599  1.00  0.00    -0.249 NA 
HETATM   23  O   UNL     1     -10.849   5.136  71.357  1.00  0.00    -0.144 OA 
HETATM   24  C   UNL     1     -10.991   9.968  69.607  1.00  0.00    -0.264 A  
HETATM   25 CL   UNL     1     -12.228  12.364  70.187  1.00  0.00    -0.342 Cl 
HETATM   26  C   UNL     1     -11.253  11.317  69.181  1.00  0.00    -0.273 A  
BRANCH  22  27
HETATM   27  C   UNL     1     -12.920   9.691  71.307  1.00  0.00    -0.360 C  
HETATM   28  C   UNL     1     -13.380   9.003  72.576  1.00  0.00    -0.480 C  
HETATM   29  C   UNL     1     -14.248   8.957  71.368  1.00  0.00    -0.241 C  
ENDBRANCH  22  27
ENDBRANCH   9  11
TORSDOF 2
ENDMDL
MODEL       43
REMARK 921   NORMALIZED FREE ENERGY PREDICTED BY IDOCK:   -6.22 KCAL/MOL
REMARK 922        TOTAL FREE ENERGY PREDICTED BY IDOCK:   -7.68 KCAL/MOL
REMARK 923 INTER-LIGAND FREE ENERGY PREDICTED BY IDOCK:   -7.03 KCAL/MOL
REMARK 924 INTRA-LIGAND FREE ENERGY PREDICTED BY IDOCK:   -0.65 KCAL/MOL
REMARK 927      BINDING AFFINITY PREDICTED BY RF-SCORE:    0.00 PKD
ROOT
HETATM    1  N   UNL     1     -10.484  17.527  65.882  1.00  0.00    -0.504 NA 
HETATM    2  C   UNL     1      -9.832  18.712  66.464  1.00  0.00    -0.364 C  
HETATM    3  H1  UNL     1     -11.406  17.376  66.292  1.00  0.00     0.000 HD 
HETATM    4  H2  UNL     1      -9.896  16.697  65.963  1.00  0.00     0.000 HD 
HETATM    5  C   UNL     1      -8.444  18.940  65.845  1.00  0.00     0.090 C  
HETATM    6  C   UNL     1      -7.340  17.963  66.274  1.00  0.00    -0.327 C  
HETATM    7  C   UNL     1      -6.887  18.151  67.728  1.00  0.00    -0.202 C  
HETATM    8  C   UNL     1      -7.736  17.457  68.811  1.00  0.00    -0.258 C  
HETATM    9  N   UNL     1      -9.156  17.339  68.430  1.00  0.00    -0.258 NA 
HETATM   10  C   UNL     1      -9.752  18.632  68.005  1.00  0.00    -0.321 C  
ENDROOT
BRANCH   9  11
HETATM   11  C   UNL     1      -9.942  16.268  68.915  1.00  0.00    -0.248 A  
HETATM   12  C   UNL     1     -10.824  16.423  70.006  1.00  0.00    -0.305 A  
HETATM   13  C   UNL     1     -11.582  15.387  70.524  1.00  0.00    -0.355 A  
HETATM   14  F   UNL     1     -10.983  17.582  70.657  1.00  0.00     0.192 F  
HETATM   15  C   UNL     1     -11.457  14.107  70.006  1.00  0.00    -0.258 A  
HETATM   16  C   UNL     1     -12.226  13.047  70.693  1.00  0.00    -0.307 C  
HETATM   17  C   UNL     1     -12.038  11.660  70.268  1.00  0.00    -0.443 C  
HETATM   18  O   UNL     1     -12.980  13.302  71.629  1.00  0.00    -0.369 OA 
HETATM   19  C   UNL     1     -12.671  10.514  70.945  1.00  0.00    -0.402 C  
HETATM   20  C   UNL     1     -11.238  11.471  69.207  1.00  0.00    -0.272 C  
HETATM   21  O   UNL     1     -13.460  10.837  71.991  1.00  0.00    -0.373 OA 
HETATM   22  N   UNL     1     -10.602  12.448  68.449  1.00  0.00    -0.231 NA 
HETATM   23  O   UNL     1     -12.499   9.348  70.596  1.00  0.00    -0.146 OA 
HETATM   24  C   UNL     1     -10.647  13.828  68.884  1.00  0.00    -0.205 A  
HETATM   25 CL   UNL     1      -9.339  14.841  66.678  1.00  0.00    -0.273 Cl 
HETATM   26  C   UNL     1      -9.962  14.955  68.308  1.00  0.00    -0.222 A  
BRANCH  22  27
HETATM   27  C   UNL     1      -9.754  11.964  67.330  1.00  0.00    -0.184 C  
HETATM   28  C   UNL     1     -10.402  11.312  66.125  1.00  0.00    -0.300 C  
HETATM   29  C   UNL     1      -9.510  10.502  66.999  1.00  0.00    -0.188 C  
ENDBRANCH  22  27
ENDBRANCH   9  11
TORSDOF 2
ENDMDL
MODEL       44
REMARK 921   NORMALIZED FREE ENERGY PREDICTED BY IDOCK:   -6.22 KCAL/MOL
REMARK 922        TOTAL FREE ENERGY PREDICTED BY IDOCK:   -7.68 KCAL/MOL
REMARK 923 INTER-LIGAND FREE ENERGY PREDICTED BY IDOCK:   -6.92 KCAL/MOL
REMARK 924 INTRA-LIGAND FREE ENERGY PREDICTED BY IDOCK:   -0.76 KCAL/MOL
REMARK 927      BINDING AFFINITY PREDICTED BY RF-SCORE:    0.00 PKD
ROOT
HETATM    1  N   UNL     1     -12.142   6.225  72.105  1.00  0.00    -0.451 NA 
HETATM    2  C   UNL     1     -10.965   5.377  72.363  1.00  0.00    -0.240 C  
HETATM    3  H1  UNL     1     -12.354   6.266  71.108  1.00  0.00     0.000 HD 
HETATM    4  H2  UNL     1     -12.028   7.157  72.504  1.00  0.00     0.000 HD 
HETATM    5  C   UNL     1     -10.646   5.314  73.865  1.00  0.00    -0.335 C  
HETATM    6  C   UNL     1     -10.031   6.579  74.482  1.00  0.00    -0.358 C  
HETATM    7  C   UNL     1      -8.586   6.838  74.034  1.00  0.00    -0.165 C  
HETATM    8  C   UNL     1      -8.401   7.568  72.689  1.00  0.00    -0.117 C  
HETATM    9  N   UNL     1      -9.491   7.285  71.735  1.00  0.00    -0.150 NA 
HETATM   10  C   UNL     1      -9.734   5.832  71.546  1.00  0.00    -0.159 C  
ENDROOT
BRANCH   9  11
HETATM   11  C   UNL     1      -9.861   8.245  70.765  1.00  0.00    -0.179 A  
HETATM   12  C   UNL     1     -10.840   9.229  71.024  1.00  0.00    -0.314 A  
HETATM   13  C   UNL     1     -11.247  10.162  70.086  1.00  0.00    -0.377 A  
HETATM   14  F   UNL     1     -11.484   9.328  72.193  1.00  0.00    -0.424 F  
HETATM   15  C   UNL     1     -10.729  10.127  68.800  1.00  0.00    -0.247 A  
HETATM   16  C   UNL     1     -11.302  11.094  67.839  1.00  0.00    -0.309 C  
HETATM   17  C   UNL     1     -10.883  11.020  66.439  1.00  0.00    -0.253 C  
HETATM   18  O   UNL     1     -12.144  11.921  68.181  1.00  0.00    -0.516 OA 
HETATM   19  C   UNL     1     -11.462  11.862  65.377  1.00  0.00    -0.251 C  
HETATM   20  C   UNL     1      -9.924  10.125  66.156  1.00  0.00    -0.246 C  
HETATM   21  O   UNL     1     -12.409  12.730  65.791  1.00  0.00    -0.547 OA 
HETATM   22  N   UNL     1      -9.263   9.290  67.051  1.00  0.00    -0.136 NA 
HETATM   23  O   UNL     1     -11.118  11.788  64.199  1.00  0.00    -0.332 OA 
HETATM   24  C   UNL     1      -9.710   9.224  68.427  1.00  0.00    -0.154 A  
HETATM   25 CL   UNL     1      -7.693   7.547  69.277  1.00  0.00    -0.110 Cl 
HETATM   26  C   UNL     1      -9.237   8.346  69.464  1.00  0.00    -0.154 A  
BRANCH  22  27
HETATM   27  C   UNL     1      -8.248   8.376  66.470  1.00  0.00    -0.105 C  
HETATM   28  C   UNL     1      -8.261   8.087  64.982  1.00  0.00    -0.144 C  
HETATM   29  C   UNL     1      -8.540   6.983  65.941  1.00  0.00    -0.152 C  
ENDBRANCH  22  27
ENDBRANCH   9  11
TORSDOF 2
ENDMDL
MODEL       45
REMARK 921   NORMALIZED FREE ENERGY PREDICTED BY IDOCK:   -6.18 KCAL/MOL
REMARK 922        TOTAL FREE ENERGY PREDICTED BY IDOCK:   -7.64 KCAL/MOL
REMARK 923 INTER-LIGAND FREE ENERGY PREDICTED BY IDOCK:   -6.95 KCAL/MOL
REMARK 924 INTRA-LIGAND FREE ENERGY PREDICTED BY IDOCK:   -0.68 KCAL/MOL
REMARK 927      BINDING AFFINITY PREDICTED BY RF-SCORE:    0.00 PKD
ROOT
HETATM    1  N   UNL     1     -10.830  14.718  68.057  1.00  0.00    -0.254 NA 
HETATM    2  C   UNL     1     -10.424  14.767  66.642  1.00  0.00    -0.286 C  
HETATM    3  H1  UNL     1     -10.019  14.620  68.669  1.00  0.00     0.000 HD 
HETATM    4  H2  UNL     1     -11.518  13.985  68.226  1.00  0.00     0.000 HD 
HETATM    5  C   UNL     1     -11.645  14.915  65.720  1.00  0.00    -0.234 C  
HETATM    6  C   UNL     1     -12.528  13.670  65.558  1.00  0.00    -0.544 C  
HETATM    7  C   UNL     1     -11.864  12.550  64.745  1.00  0.00    -0.440 C  
HETATM    8  C   UNL     1     -10.914  11.610  65.513  1.00  0.00    -0.270 C  
HETATM    9  N   UNL     1     -10.239  12.283  66.640  1.00  0.00    -0.214 NA 
HETATM   10  C   UNL     1      -9.565  13.545  66.243  1.00  0.00    -0.232 C  
ENDROOT
BRANCH   9  11
HETATM   11  C   UNL     1      -9.854  11.548  67.786  1.00  0.00    -0.177 A  
HETATM   12  C   UNL     1      -8.517  11.148  68.003  1.00  0.00    -0.135 A  
HETATM   13  C   UNL     1      -8.114  10.403  69.096  1.00  0.00    -0.151 A  
HETATM   14  F   UNL     1      -7.524  11.431  67.150  1.00  0.00    -0.107 F  
HETATM   15  C   UNL     1      -9.050   9.962  70.021  1.00  0.00    -0.217 A  
HETATM   16  C   UNL     1      -8.540   9.083  71.095  1.00  0.00    -0.190 C  
HETATM   17  C   UNL     1      -9.501   8.489  72.025  1.00  0.00    -0.364 C  
HETATM   18  O   UNL     1      -7.346   8.813  71.196  1.00  0.00    -0.079 OA 
HETATM   19  C   UNL     1      -9.121   7.519  73.069  1.00  0.00    -0.172 C  
HETATM   20  C   UNL     1     -10.779   8.873  71.881  1.00  0.00    -0.356 C  
HETATM   21  O   UNL     1      -7.806   7.223  73.119  1.00  0.00    -0.094 OA 
HETATM   22  N   UNL     1     -11.281   9.798  70.972  1.00  0.00    -0.358 NA 
HETATM   23  O   UNL     1      -9.932   7.010  73.839  1.00  0.00    -0.279 OA 
HETATM   24  C   UNL     1     -10.409  10.333  69.946  1.00  0.00    -0.233 A  
HETATM   25 CL   UNL     1     -12.263  12.101  68.924  1.00  0.00    -0.157 Cl 
HETATM   26  C   UNL     1     -10.765  11.200  68.855  1.00  0.00    -0.207 A  
BRANCH  22  27
HETATM   27  C   UNL     1     -12.746  10.030  71.011  1.00  0.00    -0.362 C  
HETATM   28  C   UNL     1     -13.332  10.951  72.063  1.00  0.00    -0.394 C  
HETATM   29  C   UNL     1     -13.677   9.503  72.088  1.00  0.00    -0.447 C  
ENDBRANCH  22  27
ENDBRANCH   9  11
TORSDOF 2
ENDMDL
MODEL       46
REMARK 921   NORMALIZED FREE ENERGY PREDICTED BY IDOCK:   -6.15 KCAL/MOL
REMARK 922        TOTAL FREE ENERGY PREDICTED BY IDOCK:   -7.60 KCAL/MOL
REMARK 923 INTER-LIGAND FREE ENERGY PREDICTED BY IDOCK:   -6.80 KCAL/MOL
REMARK 924 INTRA-LIGAND FREE ENERGY PREDICTED BY IDOCK:   -0.80 KCAL/MOL
REMARK 927      BINDING AFFINITY PREDICTED BY RF-SCORE:    0.00 PKD
ROOT
HETATM    1  N   UNL     1      -7.945   8.440  72.860  1.00  0.00    -0.327 NA 
HETATM    2  C   UNL     1      -8.849   7.703  73.758  1.00  0.00    -0.253 C  
HETATM    3  H1  UNL     1      -8.231   9.416  72.769  1.00  0.00     0.000 HD 
HETATM    4  H2  UNL     1      -7.866   7.986  71.950  1.00  0.00     0.000 HD 
HETATM    5  C   UNL     1      -8.418   6.235  73.896  1.00  0.00    -0.121 C  
HETATM    6  C   UNL     1      -8.681   5.333  72.680  1.00  0.00    -0.120 C  
HETATM    7  C   UNL     1     -10.168   5.030  72.454  1.00  0.00    -0.254 C  
HETATM    8  C   UNL     1     -10.977   6.087  71.676  1.00  0.00    -0.272 C  
HETATM    9  N   UNL     1     -10.466   7.456  71.879  1.00  0.00    -0.200 NA 
HETATM   10  C   UNL     1     -10.326   7.815  73.314  1.00  0.00    -0.300 C  
ENDROOT
BRANCH   9  11
HETATM   11  C   UNL     1     -10.610   8.432  70.867  1.00  0.00    -0.204 A  
HETATM   12  C   UNL     1     -11.469   9.544  71.016  1.00  0.00    -0.349 A  
HETATM   13  C   UNL     1     -11.655  10.498  70.032  1.00  0.00    -0.392 A  
HETATM   14  F   UNL     1     -12.203   9.755  72.116  1.00  0.00    -0.424 F  
HETATM   15  C   UNL     1     -11.025  10.364  68.804  1.00  0.00    -0.287 A  
HETATM   16  C   UNL     1     -11.368  11.374  67.781  1.00  0.00    -0.287 C  
HETATM   17  C   UNL     1     -10.830  11.211  66.430  1.00  0.00    -0.284 C  
HETATM   18  O   UNL     1     -12.121  12.314  68.029  1.00  0.00    -0.439 OA 
HETATM   19  C   UNL     1     -11.186  12.096  65.306  1.00  0.00    -0.332 C  
HETATM   20  C   UNL     1      -9.977  10.190  66.253  1.00  0.00    -0.242 C  
HETATM   21  O   UNL     1     -12.044  13.091  65.615  1.00  0.00    -0.406 OA 
HETATM   22  N   UNL     1      -9.523   9.298  67.217  1.00  0.00    -0.140 NA 
HETATM   23  O   UNL     1     -10.745  11.949  64.168  1.00  0.00    -0.294 OA 
HETATM   24  C   UNL     1     -10.105   9.326  68.543  1.00  0.00    -0.190 A  
HETATM   25 CL   UNL     1      -8.422   7.417  69.607  1.00  0.00    -0.132 Cl 
HETATM   26  C   UNL     1      -9.856   8.418  69.632  1.00  0.00    -0.184 A  
BRANCH  22  27
HETATM   27  C   UNL     1      -8.589   8.244  66.750  1.00  0.00    -0.127 C  
HETATM   28  C   UNL     1      -8.263   8.130  65.274  1.00  0.00    -0.150 C  
HETATM   29  C   UNL     1      -8.995   7.021  65.946  1.00  0.00    -0.092 C  
ENDBRANCH  22  27
ENDBRANCH   9  11
TORSDOF 2
ENDMDL
MODEL       47
REMARK 921   NORMALIZED FREE ENERGY PREDICTED BY IDOCK:   -6.04 KCAL/MOL
REMARK 922        TOTAL FREE ENERGY PREDICTED BY IDOCK:   -7.49 KCAL/MOL
REMARK 923 INTER-LIGAND FREE ENERGY PREDICTED BY IDOCK:   -7.92 KCAL/MOL
REMARK 924 INTRA-LIGAND FREE ENERGY PREDICTED BY IDOCK:    0.44 KCAL/MOL
REMARK 927      BINDING AFFINITY PREDICTED BY RF-SCORE:    0.00 PKD
ROOT
HETATM    1  N   UNL     1     -10.182  15.027  70.790  1.00  0.00    -0.277 NA 
HETATM    2  C   UNL     1     -11.349  15.899  70.570  1.00  0.00    -0.390 C  
HETATM    3  H1  UNL     1      -9.947  14.508  69.944  1.00  0.00     0.000 HD 
HETATM    4  H2  UNL     1     -10.321  14.405  71.586  1.00  0.00     0.000 HD 
HETATM    5  C   UNL     1     -11.703  16.682  71.844  1.00  0.00    -0.094 C  
HETATM    6  C   UNL     1     -12.354  15.877  72.978  1.00  0.00    -0.605 C  
HETATM    7  C   UNL     1     -13.792  15.439  72.669  1.00  0.00    -0.625 C  
HETATM    8  C   UNL     1     -13.958  14.150  71.841  1.00  0.00    -0.470 C  
HETATM    9  N   UNL     1     -12.842  13.931  70.902  1.00  0.00    -0.321 NA 
HETATM   10  C   UNL     1     -12.569  15.110  70.040  1.00  0.00    -0.225 C  
ENDROOT
BRANCH   9  11
HETATM   11  C   UNL     1     -12.465  12.620  70.529  1.00  0.00    -0.193 A  
HETATM   12  C   UNL     1     -12.707  11.507  71.363  1.00  0.00    -0.364 A  
HETATM   13  C   UNL     1     -12.323  10.217  71.041  1.00  0.00    -0.483 A  
HETATM   14  F   UNL     1     -13.306  11.606  72.556  1.00  0.00    -0.529 F  
HETATM   15  C   UNL     1     -11.615   9.973  69.873  1.00  0.00    -0.237 A  
HETATM   16  C   UNL     1     -11.155   8.583  69.668  1.00  0.00    -0.009 C  
HETATM   17  C   UNL     1     -10.300   8.293  68.517  1.00  0.00    -0.230 C  
HETATM   18  O   UNL     1     -11.440   7.686  70.458  1.00  0.00    -0.274 OA 
HETATM   19  C   UNL     1      -9.700   6.970  68.270  1.00  0.00    -0.135 C  
HETATM   20  C   UNL     1     -10.076   9.314  67.675  1.00  0.00    -0.214 C  
HETATM   21  O   UNL     1     -10.008   6.025  69.182  1.00  0.00    -0.147 OA 
HETATM   22  N   UNL     1     -10.597  10.601  67.757  1.00  0.00    -0.217 NA 
HETATM   23  O   UNL     1      -8.969   6.732  67.310  1.00  0.00    -0.116 OA 
HETATM   24  C   UNL     1     -11.351  10.990  68.931  1.00  0.00    -0.280 A  
HETATM   25 CL   UNL     1     -12.031  13.491  67.988  1.00  0.00    -0.391 Cl 
HETATM   26  C   UNL     1     -11.865  12.295  69.253  1.00  0.00    -0.306 A  
BRANCH  22  27
HETATM   27  C   UNL     1     -10.174  11.550  66.697  1.00  0.00    -0.219 C  
HETATM   28  C   UNL     1     -10.766  11.435  65.307  1.00  0.00    -0.326 C  
HETATM   29  C   UNL     1      -9.312  11.184  65.502  1.00  0.00    -0.247 C  
ENDBRANCH  22  27
ENDBRANCH   9  11
TORSDOF 2
ENDMDL
MODEL       48
REMARK 921   NORMALIZED FREE ENERGY PREDICTED BY IDOCK:   -6.00 KCAL/MOL
REMARK 922        TOTAL FREE ENERGY PREDICTED BY IDOCK:   -7.43 KCAL/MOL
REMARK 923 INTER-LIGAND FREE ENERGY PREDICTED BY IDOCK:   -6.85 KCAL/MOL
REMARK 924 INTRA-LIGAND FREE ENERGY PREDICTED BY IDOCK:   -0.58 KCAL/MOL
REMARK 927      BINDING AFFINITY PREDICTED BY RF-SCORE:    0.00 PKD
ROOT
HETATM    1  N   UNL     1      -9.096  15.832  69.015  1.00  0.00    -0.227 NA 
HETATM    2  C   UNL     1      -8.323  15.788  67.762  1.00  0.00    -0.154 C  
HETATM    3  H1  UNL     1      -8.765  15.129  69.677  1.00  0.00     0.000 HD 
HETATM    4  H2  UNL     1     -10.098  15.742  68.842  1.00  0.00     0.000 HD 
HETATM    5  C   UNL     1      -8.822  16.846  66.766  1.00  0.00    -0.262 C  
HETATM    6  C   UNL     1     -10.173  16.563  66.094  1.00  0.00    -0.360 C  
HETATM    7  C   UNL     1     -10.121  15.414  65.076  1.00  0.00    -0.210 C  
HETATM    8  C   UNL     1     -10.255  13.986  65.640  1.00  0.00    -0.334 C  
HETATM    9  N   UNL     1      -9.713  13.863  67.007  1.00  0.00    -0.243 NA 
HETATM   10  C   UNL     1      -8.325  14.377  67.130  1.00  0.00    -0.191 C  
ENDROOT
BRANCH   9  11
HETATM   11  C   UNL     1     -10.249  12.913  67.907  1.00  0.00    -0.233 A  
HETATM   12  C   UNL     1     -11.561  13.022  68.416  1.00  0.00    -0.335 A  
HETATM   13  C   UNL     1     -12.103  12.126  69.321  1.00  0.00    -0.234 A  
HETATM   14  F   UNL     1     -12.390  14.021  68.089  1.00  0.00    -0.385 F  
HETATM   15  C   UNL     1     -11.331  11.086  69.818  1.00  0.00    -0.366 A  
HETATM   16  C   UNL     1     -11.961  10.247  70.860  1.00  0.00    -0.375 C  
HETATM   17  C   UNL     1     -11.152   9.214  71.508  1.00  0.00    -0.436 C  
HETATM   18  O   UNL     1     -13.123  10.425  71.217  1.00  0.00    -0.378 OA 
HETATM   19  C   UNL     1     -11.641   8.389  72.627  1.00  0.00    -0.297 C  
HETATM   20  C   UNL     1      -9.910   9.048  71.027  1.00  0.00    -0.282 C  
HETATM   21  O   UNL     1     -12.909   8.644  73.011  1.00  0.00    -0.249 OA 
HETATM   22  N   UNL     1      -9.324   9.723  69.962  1.00  0.00    -0.238 NA 
HETATM   23  O   UNL     1     -10.954   7.531  73.179  1.00  0.00    -0.376 OA 
HETATM   24  C   UNL     1     -10.021  10.838  69.355  1.00  0.00    -0.110 A  
HETATM   25 CL   UNL     1      -8.168  11.248  67.354  1.00  0.00    -0.130 Cl 
HETATM   26  C   UNL     1      -9.537  11.726  68.332  1.00  0.00    -0.191 A  
BRANCH  22  27
HETATM   27  C   UNL     1      -7.921   9.358  69.644  1.00  0.00    -0.109 C  
HETATM   28  C   UNL     1      -7.562   7.908  69.389  1.00  0.00    -0.103 C  
HETATM   29  C   UNL     1      -6.991   8.601  70.576  1.00  0.00    -0.043 C  
ENDBRANCH  22  27
ENDBRANCH   9  11
TORSDOF 2
ENDMDL
MODEL       49
REMARK 921   NORMALIZED FREE ENERGY PREDICTED BY IDOCK:   -5.94 KCAL/MOL
REMARK 922        TOTAL FREE ENERGY PREDICTED BY IDOCK:   -7.37 KCAL/MOL
REMARK 923 INTER-LIGAND FREE ENERGY PREDICTED BY IDOCK:   -6.60 KCAL/MOL
REMARK 924 INTRA-LIGAND FREE ENERGY PREDICTED BY IDOCK:   -0.77 KCAL/MOL
REMARK 927      BINDING AFFINITY PREDICTED BY RF-SCORE:    0.00 PKD
ROOT
HETATM    1  N   UNL     1      -9.129   8.441  73.014  1.00  0.00    -0.273 NA 
HETATM    2  C   UNL     1     -10.172   7.432  73.265  1.00  0.00    -0.335 C  
HETATM    3  H1  UNL     1      -9.486   9.385  73.168  1.00  0.00     0.000 HD 
HETATM    4  H2  UNL     1      -8.724   8.340  72.083  1.00  0.00     0.000 HD 
HETATM    5  C   UNL     1      -9.635   6.011  73.034  1.00  0.00    -0.155 C  
HETATM    6  C   UNL     1      -9.407   5.601  71.571  1.00  0.00    -0.166 C  
HETATM    7  C   UNL     1     -10.708   5.397  70.783  1.00  0.00    -0.252 C  
HETATM    8  C   UNL     1     -11.359   6.661  70.186  1.00  0.00    -0.382 C  
HETATM    9  N   UNL     1     -11.098   7.868  70.993  1.00  0.00    -0.246 NA 
HETATM   10  C   UNL     1     -11.445   7.694  72.427  1.00  0.00    -0.340 C  
ENDROOT
BRANCH   9  11
HETATM   11  C   UNL     1     -11.039   9.141  70.380  1.00  0.00    -0.253 A  
HETATM   12  C   UNL     1     -12.087  10.079  70.501  1.00  0.00    -0.251 A  
HETATM   13  C   UNL     1     -12.073  11.319  69.888  1.00  0.00    -0.414 A  
HETATM   14  F   UNL     1     -13.204   9.838  71.200  1.00  0.00    -0.388 F  
HETATM   15  C   UNL     1     -11.018  11.674  69.061  1.00  0.00    -0.283 A  
HETATM   16  C   UNL     1     -11.143  12.974  68.366  1.00  0.00    -0.262 C  
HETATM   17  C   UNL     1     -10.120  13.343  67.387  1.00  0.00    -0.237 C  
HETATM   18  O   UNL     1     -12.099  13.720  68.562  1.00  0.00    -0.363 OA 
HETATM   19  C   UNL     1     -10.195  14.562  66.562  1.00  0.00    -0.279 C  
HETATM   20  C   UNL     1      -9.084  12.499  67.268  1.00  0.00    -0.189 C  
HETATM   21  O   UNL     1     -11.280  15.334  66.783  1.00  0.00    -0.317 OA 
HETATM   22  N   UNL     1      -8.859  11.336  67.997  1.00  0.00    -0.143 NA 
HETATM   23  O   UNL     1      -9.342  14.863  65.730  1.00  0.00    -0.272 OA 
HETATM   24  C   UNL     1      -9.886  10.848  68.893  1.00  0.00    -0.192 A  
HETATM   25 CL   UNL     1      -8.388   8.761  69.896  1.00  0.00    -0.119 Cl 
HETATM   26  C   UNL     1      -9.891   9.616  69.637  1.00  0.00    -0.215 A  
BRANCH  22  27
HETATM   27  C   UNL     1      -7.634  10.571  67.653  1.00  0.00    -0.093 C  
HETATM   28  C   UNL     1      -6.274  11.126  68.024  1.00  0.00    -0.049 C  
HETATM   29  C   UNL     1      -6.632  10.976  66.587  1.00  0.00    -0.128 C  
ENDBRANCH  22  27
ENDBRANCH   9  11
TORSDOF 2
ENDMDL
MODEL       50
REMARK 921   NORMALIZED FREE ENERGY PREDICTED BY IDOCK:   -5.86 KCAL/MOL
REMARK 922        TOTAL FREE ENERGY PREDICTED BY IDOCK:   -7.29 KCAL/MOL
REMARK 923 INTER-LIGAND FREE ENERGY PREDICTED BY IDOCK:   -6.52 KCAL/MOL
REMARK 924 INTRA-LIGAND FREE ENERGY PREDICTED BY IDOCK:   -0.76 KCAL/MOL
REMARK 927      BINDING AFFINITY PREDICTED BY RF-SCORE:    0.00 PKD
ROOT
HETATM    1  N   UNL     1     -12.781  12.618  64.749  1.00  0.00    -0.748 NA 
HETATM    2  C   UNL     1     -12.696  13.742  65.697  1.00  0.00    -0.478 C  
HETATM    3  H1  UNL     1     -13.243  11.813  65.173  1.00  0.00     0.000 HD 
HETATM    4  H2  UNL     1     -11.863  12.370  64.377  1.00  0.00     0.000 HD 
HETATM    5  C   UNL     1     -11.999  14.954  65.059  1.00  0.00    -0.258 C  
HETATM    6  C   UNL     1     -10.481  14.838  64.860  1.00  0.00    -0.398 C  
HETATM    7  C   UNL     1      -9.687  14.886  66.173  1.00  0.00    -0.333 C  
HETATM    8  C   UNL     1      -9.552  13.559  66.946  1.00  0.00    -0.258 C  
HETATM    9  N   UNL     1     -10.710  12.667  66.749  1.00  0.00    -0.237 NA 
HETATM   10  C   UNL     1     -12.009  13.333  67.021  1.00  0.00    -0.365 C  
ENDROOT
BRANCH   9  11
HETATM   11  C   UNL     1     -10.552  11.263  66.817  1.00  0.00    -0.260 A  
HETATM   12  C   UNL     1     -11.122  10.496  67.858  1.00  0.00    -0.304 A  
HETATM   13  C   UNL     1     -10.960   9.127  67.969  1.00  0.00    -0.032 A  
HETATM   14  F   UNL     1     -11.847  11.034  68.847  1.00  0.00    -0.320 F  
HETATM   15  C   UNL     1     -10.162   8.444  67.064  1.00  0.00    -0.377 A  
HETATM   16  C   UNL     1      -9.962   7.003  67.327  1.00  0.00    -0.181 C  
HETATM   17  C   UNL     1      -9.032   6.260  66.476  1.00  0.00    -0.150 C  
HETATM   18  O   UNL     1     -10.524   6.434  68.259  1.00  0.00    -0.176 OA 
HETATM   19  C   UNL     1      -8.677   4.848  66.708  1.00  0.00    -0.107 C  
HETATM   20  C   UNL     1      -8.498   6.940  65.450  1.00  0.00    -0.084 C  
HETATM   21  O   UNL     1      -9.288   4.274  67.765  1.00  0.00    -0.139 OA 
HETATM   22  N   UNL     1      -8.760   8.257  65.087  1.00  0.00    -0.110 NA 
HETATM   23  O   UNL     1      -7.883   4.230  66.002  1.00  0.00    -0.093 OA 
HETATM   24  C   UNL     1      -9.575   9.085  65.951  1.00  0.00    -0.247 A  
HETATM   25 CL   UNL     1      -9.611  11.266  64.264  1.00  0.00    -0.261 Cl 
HETATM   26  C   UNL     1      -9.860  10.488  65.810  1.00  0.00    -0.237 A  
BRANCH  22  27
HETATM   27  C   UNL     1      -8.017   8.774  63.911  1.00  0.00    -0.157 C  
HETATM   28  C   UNL     1      -8.482   8.420  62.513  1.00  0.00    -0.125 C  
HETATM   29  C   UNL     1      -7.160   7.927  62.987  1.00  0.00    -0.087 C  
ENDBRANCH  22  27
ENDBRANCH   9  11
TORSDOF 2
ENDMDL
MODEL       51
REMARK 921   NORMALIZED FREE ENERGY PREDICTED BY IDOCK:   -5.85 KCAL/MOL
REMARK 922        TOTAL FREE ENERGY PREDICTED BY IDOCK:   -7.26 KCAL/MOL
REMARK 923 INTER-LIGAND FREE ENERGY PREDICTED BY IDOCK:   -7.01 KCAL/MOL
REMARK 924 INTRA-LIGAND FREE ENERGY PREDICTED BY IDOCK:   -0.25 KCAL/MOL
REMARK 927      BINDING AFFINITY PREDICTED BY RF-SCORE:    0.00 PKD
ROOT
HETATM    1  N   UNL     1     -10.954   6.175  68.729  1.00  0.00    -0.340 NA 
HETATM    2  C   UNL     1      -9.595   5.609  68.779  1.00  0.00    -0.131 C  
HETATM    3  H1  UNL     1     -11.183   6.498  67.789  1.00  0.00     0.000 HD 
HETATM    4  H2  UNL     1     -11.079   6.915  69.421  1.00  0.00     0.000 HD 
HETATM    5  C   UNL     1      -9.250   5.122  70.195  1.00  0.00    -0.188 C  
HETATM    6  C   UNL     1      -8.974   6.213  71.241  1.00  0.00    -0.140 C  
HETATM    7  C   UNL     1      -7.651   6.958  71.013  1.00  0.00    -0.087 C  
HETATM    8  C   UNL     1      -7.678   8.121  70.003  1.00  0.00    -0.086 C  
HETATM    9  N   UNL     1      -8.671   7.918  68.931  1.00  0.00    -0.135 NA 
HETATM   10  C   UNL     1      -8.533   6.603  68.254  1.00  0.00    -0.120 C  
ENDROOT
BRANCH   9  11
HETATM   11  C   UNL     1      -9.290   9.027  68.308  1.00  0.00    -0.139 A  
HETATM   12  C   UNL     1     -10.052   9.966  69.038  1.00  0.00    -0.189 A  
HETATM   13  C   UNL     1     -10.695  11.042  68.454  1.00  0.00    -0.240 A  
HETATM   14  F   UNL     1     -10.243   9.879  70.360  1.00  0.00    -0.289 F  
HETATM   15  C   UNL     1     -10.657  11.212  67.078  1.00  0.00    -0.295 A  
HETATM   16  C   UNL     1     -11.462  12.328  66.536  1.00  0.00    -0.381 C  
HETATM   17  C   UNL     1     -11.559  12.479  65.084  1.00  0.00    -0.395 C  
HETATM   18  O   UNL     1     -12.077  13.096  67.272  1.00  0.00    -0.354 OA 
HETATM   19  C   UNL     1     -12.413  13.488  64.432  1.00  0.00    -0.267 C  
HETATM   20  C   UNL     1     -10.819  11.632  64.351  1.00  0.00    -0.339 C  
HETATM   21  O   UNL     1     -13.099  14.285  65.277  1.00  0.00    -0.707 OA 
HETATM   22  N   UNL     1      -9.946  10.657  64.821  1.00  0.00    -0.303 NA 
HETATM   23  O   UNL     1     -12.504  13.603  63.211  1.00  0.00    -0.801 OA 
HETATM   24  C   UNL     1      -9.892  10.373  66.240  1.00  0.00    -0.218 A  
HETATM   25 CL   UNL     1      -7.822   8.560  66.065  1.00  0.00    -0.096 Cl 
HETATM   26  C   UNL     1      -9.149   9.333  66.900  1.00  0.00    -0.131 A  
BRANCH  22  27
HETATM   27  C   UNL     1      -9.258   9.840  63.790  1.00  0.00    -0.189 C  
HETATM   28  C   UNL     1      -7.899  10.269  63.275  1.00  0.00    -0.139 C  
HETATM   29  C   UNL     1      -9.060  10.258  62.344  1.00  0.00    -0.311 C  
ENDBRANCH  22  27
ENDBRANCH   9  11
TORSDOF 2
ENDMDL
MODEL       52
REMARK 921   NORMALIZED FREE ENERGY PREDICTED BY IDOCK:   -5.80 KCAL/MOL
REMARK 922        TOTAL FREE ENERGY PREDICTED BY IDOCK:   -7.22 KCAL/MOL
REMARK 923 INTER-LIGAND FREE ENERGY PREDICTED BY IDOCK:   -6.62 KCAL/MOL
REMARK 924 INTRA-LIGAND FREE ENERGY PREDICTED BY IDOCK:   -0.60 KCAL/MOL
REMARK 927      BINDING AFFINITY PREDICTED BY RF-SCORE:    0.00 PKD
ROOT
HETATM    1  N   UNL     1     -10.570  10.615  65.780  1.00  0.00    -0.152 NA 
HETATM    2  C   UNL     1      -9.587   9.575  66.128  1.00  0.00    -0.239 C  
HETATM    3  H1  UNL     1     -10.138  11.362  65.235  1.00  0.00     0.000 HD 
HETATM    4  H2  UNL     1     -11.040  10.979  66.609  1.00  0.00     0.000 HD 
HETATM    5  C   UNL     1     -10.238   8.450  66.948  1.00  0.00    -0.383 C  
HETATM    6  C   UNL     1     -10.589   8.787  68.404  1.00  0.00    -0.185 C  
HETATM    7  C   UNL     1      -9.359   8.939  69.311  1.00  0.00    -0.149 C  
HETATM    8  C   UNL     1      -8.661  10.314  69.302  1.00  0.00    -0.174 C  
HETATM    9  N   UNL     1      -8.782  11.003  68.003  1.00  0.00    -0.133 NA 
HETATM   10  C   UNL     1      -8.356  10.161  66.857  1.00  0.00    -0.122 C  
ENDROOT
BRANCH   9  11
HETATM   11  C   UNL     1      -8.791  12.416  67.941  1.00  0.00    -0.180 A  
HETATM   12  C   UNL     1      -7.709  13.147  67.402  1.00  0.00    -0.145 A  
HETATM   13  C   UNL     1      -7.674  14.529  67.355  1.00  0.00    -0.215 A  
HETATM   14  F   UNL     1      -6.606  12.565  66.915  1.00  0.00    -0.140 F  
HETATM   15  C   UNL     1      -8.710  15.271  67.902  1.00  0.00    -0.164 A  
HETATM   16  C   UNL     1      -8.533  16.739  67.901  1.00  0.00    -0.200 C  
HETATM   17  C   UNL     1      -9.536  17.564  68.576  1.00  0.00    -0.305 C  
HETATM   18  O   UNL     1      -7.552  17.270  67.387  1.00  0.00    -0.175 OA 
HETATM   19  C   UNL     1      -9.412  19.025  68.726  1.00  0.00    -0.382 C  
HETATM   20  C   UNL     1     -10.602  16.914  69.067  1.00  0.00    -0.338 C  
HETATM   21  O   UNL     1      -8.300  19.561  68.180  1.00  0.00    -0.308 OA 
HETATM   22  N   UNL     1     -10.874  15.553  68.973  1.00  0.00    -0.236 NA 
HETATM   23  O   UNL     1     -10.248  19.714  69.306  1.00  0.00    -0.365 OA 
HETATM   24  C   UNL     1      -9.871  14.663  68.427  1.00  0.00    -0.220 A  
HETATM   25 CL   UNL     1     -11.451  12.404  68.514  1.00  0.00    -0.321 Cl 
HETATM   26  C   UNL     1      -9.916  13.227  68.355  1.00  0.00    -0.226 A  
BRANCH  22  27
HETATM   27  C   UNL     1     -12.124  15.086  69.623  1.00  0.00    -0.300 C  
HETATM   28  C   UNL     1     -12.636  15.792  70.862  1.00  0.00    -0.437 C  
HETATM   29  C   UNL     1     -12.190  14.376  70.963  1.00  0.00    -0.422 C  
ENDBRANCH  22  27
ENDBRANCH   9  11
TORSDOF 2
ENDMDL
MODEL       53
REMARK 921   NORMALIZED FREE ENERGY PREDICTED BY IDOCK:   -5.71 KCAL/MOL
REMARK 922        TOTAL FREE ENERGY PREDICTED BY IDOCK:   -7.12 KCAL/MOL
REMARK 923 INTER-LIGAND FREE ENERGY PREDICTED BY IDOCK:   -6.32 KCAL/MOL
REMARK 924 INTRA-LIGAND FREE ENERGY PREDICTED BY IDOCK:   -0.80 KCAL/MOL
REMARK 927      BINDING AFFINITY PREDICTED BY RF-SCORE:    0.00 PKD
ROOT
HETATM    1  N   UNL     1     -10.954  17.915  68.345  1.00  0.00    -0.198 NA 
HETATM    2  C   UNL     1      -9.797  18.769  68.663  1.00  0.00    -0.392 C  
HETATM    3  H1  UNL     1     -10.930  17.048  68.882  1.00  0.00     0.000 HD 
HETATM    4  H2  UNL     1     -11.023  17.734  67.343  1.00  0.00     0.000 HD 
HETATM    5  C   UNL     1      -9.834  20.075  67.854  1.00  0.00    -0.538 C  
HETATM    6  C   UNL     1      -9.500  19.958  66.360  1.00  0.00    -0.513 C  
HETATM    7  C   UNL     1      -8.021  19.655  66.085  1.00  0.00    -0.352 C  
HETATM    8  C   UNL     1      -7.594  18.176  66.158  1.00  0.00    -0.243 C  
HETATM    9  N   UNL     1      -8.399  17.400  67.121  1.00  0.00    -0.209 NA 
HETATM   10  C   UNL     1      -8.456  18.025  68.467  1.00  0.00    -0.305 C  
ENDROOT
BRANCH   9  11
HETATM   11  C   UNL     1      -8.620  16.018  66.920  1.00  0.00    -0.231 A  
HETATM   12  C   UNL     1      -9.659  15.538  66.092  1.00  0.00    -0.330 A  
HETATM   13  C   UNL     1      -9.919  14.193  65.900  1.00  0.00    -0.331 A  
HETATM   14  F   UNL     1     -10.503  16.347  65.440  1.00  0.00    -0.357 F  
HETATM   15  C   UNL     1      -9.179  13.237  66.581  1.00  0.00    -0.222 A  
HETATM   16  C   UNL     1      -9.601  11.832  66.395  1.00  0.00    -0.218 C  
HETATM   17  C   UNL     1      -8.937  10.793  67.183  1.00  0.00    -0.145 C  
HETATM   18  O   UNL     1     -10.515  11.529  65.632  1.00  0.00    -0.251 OA 
HETATM   19  C   UNL     1      -9.342   9.377  67.156  1.00  0.00    -0.139 C  
HETATM   20  C   UNL     1      -7.916  11.199  67.954  1.00  0.00    -0.114 C  
HETATM   21  O   UNL     1     -10.374   9.095  66.334  1.00  0.00    -0.258 OA 
HETATM   22  N   UNL     1      -7.400  12.487  68.057  1.00  0.00    -0.099 NA 
HETATM   23  O   UNL     1      -8.792   8.508  67.831  1.00  0.00    -0.136 OA 
HETATM   24  C   UNL     1      -8.083  13.582  67.400  1.00  0.00    -0.176 A  
HETATM   25 CL   UNL     1      -6.201  15.490  68.048  1.00  0.00    -0.137 Cl 
HETATM   26  C   UNL     1      -7.777  14.985  67.483  1.00  0.00    -0.185 A  
BRANCH  22  27
HETATM   27  C   UNL     1      -6.271  12.668  69.003  1.00  0.00    -0.091 C  
HETATM   28  C   UNL     1      -5.236  11.572  69.156  1.00  0.00    -0.043 C  
HETATM   29  C   UNL     1      -6.108  11.916  70.311  1.00  0.00    -0.103 C  
ENDBRANCH  22  27
ENDBRANCH   9  11
TORSDOF 2
ENDMDL
MODEL       54
REMARK 921   NORMALIZED FREE ENERGY PREDICTED BY IDOCK:   -5.60 KCAL/MOL
REMARK 922        TOTAL FREE ENERGY PREDICTED BY IDOCK:   -6.99 KCAL/MOL
REMARK 923 INTER-LIGAND FREE ENERGY PREDICTED BY IDOCK:   -6.22 KCAL/MOL
REMARK 924 INTRA-LIGAND FREE ENERGY PREDICTED BY IDOCK:   -0.77 KCAL/MOL
REMARK 927      BINDING AFFINITY PREDICTED BY RF-SCORE:    0.00 PKD
ROOT
HETATM    1  N   UNL     1      -9.003  13.773  66.697  1.00  0.00    -0.425 NA 
HETATM    2  C   UNL     1      -9.755  14.545  65.693  1.00  0.00    -0.247 C  
HETATM    3  H1  UNL     1      -8.191  13.318  66.279  1.00  0.00     0.000 HD 
HETATM    4  H2  UNL     1      -9.601  13.103  67.181  1.00  0.00     0.000 HD 
HETATM    5  C   UNL     1     -10.977  15.232  66.324  1.00  0.00    -0.300 C  
HETATM    6  C   UNL     1     -12.155  14.317  66.691  1.00  0.00    -0.448 C  
HETATM    7  C   UNL     1     -12.906  13.768  65.471  1.00  0.00    -0.464 C  
HETATM    8  C   UNL     1     -12.314  12.511  64.804  1.00  0.00    -0.474 C  
HETATM    9  N   UNL     1     -10.846  12.439  64.933  1.00  0.00    -0.286 NA 
HETATM   10  C   UNL     1     -10.162  13.677  64.481  1.00  0.00    -0.224 C  
ENDROOT
BRANCH   9  11
HETATM   11  C   UNL     1     -10.191  11.186  64.972  1.00  0.00    -0.296 A  
HETATM   12  C   UNL     1      -9.462  10.688  63.870  1.00  0.00    -0.282 A  
HETATM   13  C   UNL     1      -8.837   9.453  63.867  1.00  0.00    -0.205 A  
HETATM   14  F   UNL     1      -9.338  11.356  62.716  1.00  0.00    -0.323 F  
HETATM   15  C   UNL     1      -8.953   8.612  64.963  1.00  0.00    -0.060 A  
HETATM   16  C   UNL     1      -8.342   7.273  64.825  1.00  0.00     0.018 C  
HETATM   17  C   UNL     1      -8.539   6.300  65.901  1.00  0.00    -0.150 C  
HETATM   18  O   UNL     1      -7.714   6.951  63.819  1.00  0.00    -0.109 OA 
HETATM   19  C   UNL     1      -8.065   4.907  65.826  1.00  0.00    -0.112 C  
HETATM   20  C   UNL     1      -9.192   6.744  66.986  1.00  0.00    -0.137 C  
HETATM   21  O   UNL     1      -7.415   4.586  64.688  1.00  0.00    -0.070 OA 
HETATM   22  N   UNL     1      -9.666   8.032  67.214  1.00  0.00    -0.163 NA 
HETATM   23  O   UNL     1      -8.245   4.087  66.725  1.00  0.00    -0.100 OA 
HETATM   24  C   UNL     1      -9.612   9.009  66.147  1.00  0.00    -0.272 A  
HETATM   25 CL   UNL     1     -10.546  11.110  67.669  1.00  0.00    -0.232 Cl 
HETATM   26  C   UNL     1     -10.152  10.343  66.148  1.00  0.00    -0.237 A  
BRANCH  22  27
HETATM   27  C   UNL     1     -10.372   8.254  68.500  1.00  0.00    -0.199 C  
HETATM   28  C   UNL     1      -9.585   8.274  69.795  1.00  0.00    -0.171 C  
HETATM   29  C   UNL     1     -10.583   7.194  69.566  1.00  0.00    -0.247 C  
ENDBRANCH  22  27
ENDBRANCH   9  11
TORSDOF 2
ENDMDL
MODEL       55
REMARK 921   NORMALIZED FREE ENERGY PREDICTED BY IDOCK:   -5.58 KCAL/MOL
REMARK 922        TOTAL FREE ENERGY PREDICTED BY IDOCK:   -6.97 KCAL/MOL
REMARK 923 INTER-LIGAND FREE ENERGY PREDICTED BY IDOCK:   -6.48 KCAL/MOL
REMARK 924 INTRA-LIGAND FREE ENERGY PREDICTED BY IDOCK:   -0.49 KCAL/MOL
REMARK 927      BINDING AFFINITY PREDICTED BY RF-SCORE:    0.00 PKD
ROOT
HETATM    1  N   UNL     1     -11.272   4.372  65.447  1.00  0.00    -0.886 NA 
HETATM    2  C   UNL     1      -9.979   4.397  64.742  1.00  0.00    -0.091 C  
HETATM    3  H1  UNL     1     -11.643   5.315  65.566  1.00  0.00     0.000 HD 
HETATM    4  H2  UNL     1     -11.205   3.879  66.337  1.00  0.00     0.000 HD 
HETATM    5  C   UNL     1      -9.419   2.977  64.561  1.00  0.00    -0.147 C  
HETATM    6  C   UNL     1      -8.865   2.299  65.823  1.00  0.00    -0.124 C  
HETATM    7  C   UNL     1      -7.550   2.915  66.321  1.00  0.00    -0.076 C  
HETATM    8  C   UNL     1      -7.667   4.169  67.209  1.00  0.00    -0.088 C  
HETATM    9  N   UNL     1      -8.854   4.983  66.887  1.00  0.00    -0.107 NA 
HETATM   10  C   UNL     1      -8.954   5.318  65.443  1.00  0.00    -0.144 C  
ENDROOT
BRANCH   9  11
HETATM   11  C   UNL     1      -9.484   5.760  67.887  1.00  0.00    -0.110 A  
HETATM   12  C   UNL     1     -10.086   5.172  69.022  1.00  0.00    -0.187 A  
HETATM   13  C   UNL     1     -10.736   5.901  70.001  1.00  0.00    -0.396 A  
HETATM   14  F   UNL     1     -10.105   3.851  69.235  1.00  0.00    -0.204 F  
HETATM   15  C   UNL     1     -10.871   7.276  69.871  1.00  0.00    -0.264 A  
HETATM   16  C   UNL     1     -11.673   7.954  70.912  1.00  0.00    -0.257 C  
HETATM   17  C   UNL     1     -11.952   9.382  70.759  1.00  0.00    -0.298 C  
HETATM   18  O   UNL     1     -12.139   7.340  71.869  1.00  0.00    -0.296 OA 
HETATM   19  C   UNL     1     -12.824  10.137  71.677  1.00  0.00    -0.454 C  
HETATM   20  C   UNL     1     -11.367   9.990  69.715  1.00  0.00    -0.228 C  
HETATM   21  O   UNL     1     -13.344   9.416  72.692  1.00  0.00    -0.395 OA 
HETATM   22  N   UNL     1     -10.499   9.421  68.790  1.00  0.00    -0.210 NA 
HETATM   23  O   UNL     1     -13.069  11.334  71.537  1.00  0.00    -0.417 OA 
HETATM   24  C   UNL     1     -10.275   7.990  68.810  1.00  0.00    -0.206 A  
HETATM   25 CL   UNL     1      -8.356   7.999  66.829  1.00  0.00    -0.114 Cl 
HETATM   26  C   UNL     1      -9.513   7.207  67.874  1.00  0.00    -0.130 A  
BRANCH  22  27
HETATM   27  C   UNL     1     -10.003  10.318  67.716  1.00  0.00    -0.173 C  
HETATM   28  C   UNL     1      -9.613  11.744  68.049  1.00  0.00    -0.187 C  
HETATM   29  C   UNL     1     -10.773  11.497  67.149  1.00  0.00    -0.294 C  
ENDBRANCH  22  27
ENDBRANCH   9  11
TORSDOF 2
ENDMDL
MODEL       56
REMARK 921   NORMALIZED FREE ENERGY PREDICTED BY IDOCK:   -5.58 KCAL/MOL
REMARK 922        TOTAL FREE ENERGY PREDICTED BY IDOCK:   -6.96 KCAL/MOL
REMARK 923 INTER-LIGAND FREE ENERGY PREDICTED BY IDOCK:   -6.24 KCAL/MOL
REMARK 924 INTRA-LIGAND FREE ENERGY PREDICTED BY IDOCK:   -0.72 KCAL/MOL
REMARK 927      BINDING AFFINITY PREDICTED BY RF-SCORE:    0.00 PKD
ROOT
HETATM    1  N   UNL     1     -12.608   6.732  70.369  1.00  0.00    -0.459 NA 
HETATM    2  C   UNL     1     -11.494   6.058  71.058  1.00  0.00    -0.166 C  
HETATM    3  H1  UNL     1     -12.499   6.679  69.356  1.00  0.00     0.000 HD 
HETATM    4  H2  UNL     1     -12.718   7.695  70.686  1.00  0.00     0.000 HD 
HETATM    5  C   UNL     1     -11.658   6.136  72.584  1.00  0.00    -0.239 C  
HETATM    6  C   UNL     1     -11.397   7.507  73.226  1.00  0.00    -0.083 C  
HETATM    7  C   UNL     1      -9.917   7.915  73.215  1.00  0.00    -0.331 C  
HETATM    8  C   UNL     1      -9.392   8.570  71.922  1.00  0.00    -0.267 C  
HETATM    9  N   UNL     1     -10.093   8.090  70.717  1.00  0.00    -0.192 NA 
HETATM   10  C   UNL     1     -10.120   6.608  70.613  1.00  0.00    -0.184 C  
ENDROOT
BRANCH   9  11
HETATM   11  C   UNL     1     -10.233   8.929  69.587  1.00  0.00    -0.206 A  
HETATM   12  C   UNL     1     -11.328   9.809  69.441  1.00  0.00    -0.045 A  
HETATM   13  C   UNL     1     -11.509  10.619  68.334  1.00  0.00    -0.330 A  
HETATM   14  F   UNL     1     -12.304   9.916  70.350  1.00  0.00    -0.299 F  
HETATM   15  C   UNL     1     -10.622  10.553  67.270  1.00  0.00    -0.317 A  
HETATM   16  C   UNL     1     -10.958  11.376  66.088  1.00  0.00    -0.236 C  
HETATM   17  C   UNL     1     -10.126  11.251  64.891  1.00  0.00    -0.333 C  
HETATM   18  O   UNL     1     -11.934  12.122  66.078  1.00  0.00    -0.578 OA 
HETATM   19  C   UNL     1     -10.425  11.942  63.624  1.00  0.00    -0.447 C  
HETATM   20  C   UNL     1      -9.051  10.455  64.999  1.00  0.00    -0.203 C  
HETATM   21  O   UNL     1     -11.527  12.722  63.647  1.00  0.00    -0.435 OA 
HETATM   22  N   UNL     1      -8.624   9.768  66.130  1.00  0.00    -0.126 NA 
HETATM   23  O   UNL     1      -9.733  11.824  62.615  1.00  0.00    -0.164 OA 
HETATM   24  C   UNL     1      -9.462   9.750  67.311  1.00  0.00    -0.153 A  
HETATM   25 CL   UNL     1      -7.661   8.382  68.889  1.00  0.00    -0.095 Cl 
HETATM   26  C   UNL     1      -9.253   9.009  68.526  1.00  0.00    -0.136 A  
BRANCH  22  27
HETATM   27  C   UNL     1      -7.403   8.939  65.973  1.00  0.00    -0.090 C  
HETATM   28  C   UNL     1      -6.037   9.578  66.119  1.00  0.00    -0.063 C  
HETATM   29  C   UNL     1      -6.444   9.023  64.799  1.00  0.00    -0.066 C  
ENDBRANCH  22  27
ENDBRANCH   9  11
TORSDOF 2
ENDMDL
MODEL       57
REMARK 921   NORMALIZED FREE ENERGY PREDICTED BY IDOCK:   -5.56 KCAL/MOL
REMARK 922        TOTAL FREE ENERGY PREDICTED BY IDOCK:   -6.95 KCAL/MOL
REMARK 923 INTER-LIGAND FREE ENERGY PREDICTED BY IDOCK:   -6.19 KCAL/MOL
REMARK 924 INTRA-LIGAND FREE ENERGY PREDICTED BY IDOCK:   -0.76 KCAL/MOL
REMARK 927      BINDING AFFINITY PREDICTED BY RF-SCORE:    0.00 PKD
ROOT
HETATM    1  N   UNL     1      -9.467  11.605  64.982  1.00  0.00    -0.391 NA 
HETATM    2  C   UNL     1     -10.799  12.232  65.006  1.00  0.00    -0.298 C  
HETATM    3  H1  UNL     1      -9.509  10.640  65.311  1.00  0.00     0.000 HD 
HETATM    4  H2  UNL     1      -8.784  12.151  65.508  1.00  0.00     0.000 HD 
HETATM    5  C   UNL     1     -10.736  13.686  64.511  1.00  0.00    -0.420 C  
HETATM    6  C   UNL     1     -10.097  14.703  65.468  1.00  0.00    -0.405 C  
HETATM    7  C   UNL     1     -10.957  15.004  66.703  1.00  0.00    -0.325 C  
HETATM    8  C   UNL     1     -10.839  14.021  67.884  1.00  0.00    -0.244 C  
HETATM    9  N   UNL     1     -10.527  12.646  67.448  1.00  0.00    -0.223 NA 
HETATM   10  C   UNL     1     -11.456  12.144  66.404  1.00  0.00    -0.370 C  
ENDROOT
BRANCH   9  11
HETATM   11  C   UNL     1      -9.796  11.776  68.290  1.00  0.00    -0.198 A  
HETATM   12  C   UNL     1      -8.386  11.712  68.254  1.00  0.00    -0.159 A  
HETATM   13  C   UNL     1      -7.644  10.849  69.042  1.00  0.00    -0.135 A  
HETATM   14  F   UNL     1      -7.642  12.461  67.431  1.00  0.00    -0.123 F  
HETATM   15  C   UNL     1      -8.283   9.951  69.883  1.00  0.00    -0.199 A  
HETATM   16  C   UNL     1      -7.412   8.998  70.603  1.00  0.00    -0.110 C  
HETATM   17  C   UNL     1      -8.039   7.949  71.408  1.00  0.00    -0.108 C  
HETATM   18  O   UNL     1      -6.188   9.045  70.508  1.00  0.00    -0.038 OA 
HETATM   19  C   UNL     1      -7.275   6.885  72.085  1.00  0.00    -0.082 C  
HETATM   20  C   UNL     1      -9.377   7.997  71.502  1.00  0.00    -0.153 C  
HETATM   21  O   UNL     1      -5.937   6.953  71.922  1.00  0.00    -0.037 OA 
HETATM   22  N   UNL     1     -10.224   8.952  70.952  1.00  0.00    -0.221 NA 
HETATM   23  O   UNL     1      -7.805   5.996  72.748  1.00  0.00    -0.105 OA 
HETATM   24  C   UNL     1      -9.685   9.946  70.047  1.00  0.00    -0.227 A  
HETATM   25 CL   UNL     1     -12.044  11.347  69.763  1.00  0.00    -0.385 Cl 
HETATM   26  C   UNL     1     -10.410  10.934  69.293  1.00  0.00    -0.187 A  
BRANCH  22  27
HETATM   27  C   UNL     1     -11.676   8.761  71.196  1.00  0.00    -0.291 C  
HETATM   28  C   UNL     1     -12.147   8.187  72.517  1.00  0.00    -0.377 C  
HETATM   29  C   UNL     1     -12.372   7.413  71.266  1.00  0.00    -0.380 C  
ENDBRANCH  22  27
ENDBRANCH   9  11
TORSDOF 2
ENDMDL
MODEL       58
REMARK 921   NORMALIZED FREE ENERGY PREDICTED BY IDOCK:   -5.51 KCAL/MOL
REMARK 922        TOTAL FREE ENERGY PREDICTED BY IDOCK:   -6.89 KCAL/MOL
REMARK 923 INTER-LIGAND FREE ENERGY PREDICTED BY IDOCK:   -6.25 KCAL/MOL
REMARK 924 INTRA-LIGAND FREE ENERGY PREDICTED BY IDOCK:   -0.64 KCAL/MOL
REMARK 927      BINDING AFFINITY PREDICTED BY RF-SCORE:    0.00 PKD
ROOT
HETATM    1  N   UNL     1     -10.668  18.325  68.554  1.00  0.00    -0.290 NA 
HETATM    2  C   UNL     1      -9.746  19.473  68.601  1.00  0.00    -0.433 C  
HETATM    3  H1  UNL     1     -10.507  17.692  69.338  1.00  0.00     0.000 HD 
HETATM    4  H2  UNL     1     -10.614  17.837  67.660  1.00  0.00     0.000 HD 
HETATM    5  C   UNL     1      -9.987  20.427  67.421  1.00  0.00    -0.556 C  
HETATM    6  C   UNL     1      -9.514  19.937  66.044  1.00  0.00    -0.403 C  
HETATM    7  C   UNL     1      -7.986  19.905  65.899  1.00  0.00    -0.288 C  
HETATM    8  C   UNL     1      -7.267  18.655  66.442  1.00  0.00    -0.241 C  
HETATM    9  N   UNL     1      -7.969  18.049  67.589  1.00  0.00    -0.219 NA 
HETATM   10  C   UNL     1      -8.267  19.026  68.668  1.00  0.00    -0.364 C  
ENDROOT
BRANCH   9  11
HETATM   11  C   UNL     1      -7.878  16.659  67.833  1.00  0.00    -0.166 A  
HETATM   12  C   UNL     1      -7.003  16.126  68.805  1.00  0.00    -0.148 A  
HETATM   13  C   UNL     1      -6.869  14.770  69.045  1.00  0.00    -0.113 A  
HETATM   14  F   UNL     1      -6.203  16.887  69.562  1.00  0.00    -0.181 F  
HETATM   15  C   UNL     1      -7.572  13.854  68.276  1.00  0.00    -0.130 A  
HETATM   16  C   UNL     1      -7.282  12.428  68.534  1.00  0.00    -0.103 C  
HETATM   17  C   UNL     1      -7.901  11.422  67.671  1.00  0.00    -0.122 C  
HETATM   18  O   UNL     1      -6.509  12.077  69.422  1.00  0.00    -0.103 OA 
HETATM   19  C   UNL     1      -7.606   9.981  67.768  1.00  0.00    -0.090 C  
HETATM   20  C   UNL     1      -8.771  11.881  66.758  1.00  0.00    -0.193 C  
HETATM   21  O   UNL     1      -6.723   9.645  68.732  1.00  0.00    -0.051 OA 
HETATM   22  N   UNL     1      -9.174  13.199  66.570  1.00  0.00    -0.218 NA 
HETATM   23  O   UNL     1      -8.116   9.139  67.032  1.00  0.00    -0.108 OA 
HETATM   24  C   UNL     1      -8.514  14.257  67.306  1.00  0.00    -0.210 A  
HETATM   25 CL   UNL     1     -10.146  16.278  66.378  1.00  0.00    -0.298 Cl 
HETATM   26  C   UNL     1      -8.705  15.677  67.166  1.00  0.00    -0.210 A  
BRANCH  22  27
HETATM   27  C   UNL     1     -10.143  13.440  65.472  1.00  0.00    -0.266 C  
HETATM   28  C   UNL     1     -11.461  12.692  65.456  1.00  0.00    -0.375 C  
HETATM   29  C   UNL     1     -10.471  12.444  64.373  1.00  0.00    -0.371 C  
ENDBRANCH  22  27
ENDBRANCH   9  11
TORSDOF 2
ENDMDL
MODEL       59
REMARK 921   NORMALIZED FREE ENERGY PREDICTED BY IDOCK:   -5.49 KCAL/MOL
REMARK 922        TOTAL FREE ENERGY PREDICTED BY IDOCK:   -6.87 KCAL/MOL
REMARK 923 INTER-LIGAND FREE ENERGY PREDICTED BY IDOCK:   -6.07 KCAL/MOL
REMARK 924 INTRA-LIGAND FREE ENERGY PREDICTED BY IDOCK:   -0.80 KCAL/MOL
REMARK 927      BINDING AFFINITY PREDICTED BY RF-SCORE:    0.00 PKD
ROOT
HETATM    1  N   UNL     1      -8.182   8.095  71.466  1.00  0.00    -0.114 NA 
HETATM    2  C   UNL     1      -9.276   8.565  72.333  1.00  0.00    -0.258 C  
HETATM    3  H1  UNL     1      -7.840   8.847  70.867  1.00  0.00     0.000 HD 
HETATM    4  H2  UNL     1      -8.458   7.277  70.923  1.00  0.00     0.000 HD 
HETATM    5  C   UNL     1      -9.791   7.434  73.237  1.00  0.00    -0.322 C  
HETATM    6  C   UNL     1     -10.629   6.344  72.551  1.00  0.00    -0.240 C  
HETATM    7  C   UNL     1     -12.018   6.827  72.111  1.00  0.00    -0.309 C  
HETATM    8  C   UNL     1     -12.098   7.554  70.754  1.00  0.00    -0.161 C  
HETATM    9  N   UNL     1     -10.861   8.291  70.431  1.00  0.00    -0.234 NA 
HETATM   10  C   UNL     1     -10.427   9.202  71.521  1.00  0.00    -0.352 C  
ENDROOT
BRANCH   9  11
HETATM   11  C   UNL     1     -10.474   8.485  69.085  1.00  0.00    -0.205 A  
HETATM   12  C   UNL     1      -9.795   7.487  68.351  1.00  0.00    -0.164 A  
HETATM   13  C   UNL     1      -9.375   7.658  67.044  1.00  0.00    -0.195 A  
HETATM   14  F   UNL     1      -9.470   6.296  68.868  1.00  0.00    -0.128 F  
HETATM   15  C   UNL     1      -9.566   8.875  66.405  1.00  0.00    -0.304 A  
HETATM   16  C   UNL     1      -8.989   8.997  65.049  1.00  0.00    -0.147 C  
HETATM   17  C   UNL     1      -9.052  10.296  64.378  1.00  0.00    -0.275 C  
HETATM   18  O   UNL     1      -8.429   8.052  64.499  1.00  0.00    -0.090 OA 
HETATM   19  C   UNL     1      -8.422  10.561  63.072  1.00  0.00    -0.177 C  
HETATM   20  C   UNL     1      -9.724  11.262  65.022  1.00  0.00    -0.251 C  
HETATM   21  O   UNL     1      -7.785   9.506  62.522  1.00  0.00    -0.112 OA 
HETATM   22  N   UNL     1     -10.395  11.153  66.235  1.00  0.00    -0.242 NA 
HETATM   23  O   UNL     1      -8.463  11.657  62.517  1.00  0.00    -0.185 OA 
HETATM   24  C   UNL     1     -10.273   9.936  67.010  1.00  0.00    -0.233 A  
HETATM   25 CL   UNL     1     -12.060  10.693  68.969  1.00  0.00    -0.198 Cl 
HETATM   26  C   UNL     1     -10.790   9.677  68.328  1.00  0.00    -0.182 A  
BRANCH  22  27
HETATM   27  C   UNL     1     -11.048  12.388  66.738  1.00  0.00    -0.285 C  
HETATM   28  C   UNL     1     -11.789  13.292  65.773  1.00  0.00    -0.428 C  
HETATM   29  C   UNL     1     -10.566  13.799  66.454  1.00  0.00    -0.284 C  
ENDBRANCH  22  27
ENDBRANCH   9  11
TORSDOF 2
ENDMDL
MODEL       60
REMARK 921   NORMALIZED FREE ENERGY PREDICTED BY IDOCK:   -5.48 KCAL/MOL
REMARK 922        TOTAL FREE ENERGY PREDICTED BY IDOCK:   -6.85 KCAL/MOL
REMARK 923 INTER-LIGAND FREE ENERGY PREDICTED BY IDOCK:   -6.13 KCAL/MOL
REMARK 924 INTRA-LIGAND FREE ENERGY PREDICTED BY IDOCK:   -0.73 KCAL/MOL
REMARK 927      BINDING AFFINITY PREDICTED BY RF-SCORE:    0.00 PKD
ROOT
HETATM    1  N   UNL     1     -10.725   7.718  67.917  1.00  0.00    -0.442 NA 
HETATM    2  C   UNL     1     -10.327   6.841  69.032  1.00  0.00    -0.195 C  
HETATM    3  H1  UNL     1      -9.930   7.930  67.315  1.00  0.00     0.000 HD 
HETATM    4  H2  UNL     1     -11.181   8.567  68.251  1.00  0.00     0.000 HD 
HETATM    5  C   UNL     1     -11.526   6.520  69.939  1.00  0.00    -0.467 C  
HETATM    6  C   UNL     1     -12.019   7.661  70.842  1.00  0.00    -0.252 C  
HETATM    7  C   UNL     1     -11.052   7.997  71.986  1.00  0.00    -0.353 C  
HETATM    8  C   UNL     1      -9.887   8.948  71.648  1.00  0.00    -0.317 C  
HETATM    9  N   UNL     1      -9.448   8.832  70.245  1.00  0.00    -0.166 NA 
HETATM   10  C   UNL     1      -9.152   7.433  69.843  1.00  0.00    -0.141 C  
ENDROOT
BRANCH   9  11
HETATM   11  C   UNL     1      -8.889   9.944  69.574  1.00  0.00    -0.197 A  
HETATM   12  C   UNL     1      -7.499  10.064  69.356  1.00  0.00    -0.113 A  
HETATM   13  C   UNL     1      -6.919  11.154  68.731  1.00  0.00    -0.088 A  
HETATM   14  F   UNL     1      -6.615   9.144  69.761  1.00  0.00    -0.041 F  
HETATM   15  C   UNL     1      -7.702  12.227  68.334  1.00  0.00    -0.141 A  
HETATM   16  C   UNL     1      -6.981  13.390  67.774  1.00  0.00    -0.156 C  
HETATM   17  C   UNL     1      -7.743  14.597  67.452  1.00  0.00    -0.226 C  
HETATM   18  O   UNL     1      -5.762  13.377  67.614  1.00  0.00    -0.227 OA 
HETATM   19  C   UNL     1      -7.117  15.848  66.987  1.00  0.00    -0.172 C  
HETATM   20  C   UNL     1      -9.074  14.514  67.607  1.00  0.00    -0.195 C  
HETATM   21  O   UNL     1      -5.775  15.800  66.862  1.00  0.00    -0.256 OA 
HETATM   22  N   UNL     1      -9.806  13.399  68.003  1.00  0.00    -0.223 NA 
HETATM   23  O   UNL     1      -7.759  16.865  66.732  1.00  0.00    -0.195 OA 
HETATM   24  C   UNL     1      -9.109  12.212  68.451  1.00  0.00    -0.151 A  
HETATM   25 CL   UNL     1     -11.379  10.676  68.756  1.00  0.00    -0.326 Cl 
HETATM   26  C   UNL     1      -9.681  11.013  69.003  1.00  0.00    -0.134 A  
BRANCH  22  27
HETATM   27  C   UNL     1     -11.275  13.583  68.110  1.00  0.00    -0.272 C  
HETATM   28  C   UNL     1     -12.078  13.951  66.880  1.00  0.00    -0.467 C  
HETATM   29  C   UNL     1     -11.990  14.918  68.008  1.00  0.00    -0.216 C  
ENDBRANCH  22  27
ENDBRANCH   9  11
TORSDOF 2
ENDMDL
MODEL       61
REMARK 921   NORMALIZED FREE ENERGY PREDICTED BY IDOCK:   -5.46 KCAL/MOL
REMARK 922        TOTAL FREE ENERGY PREDICTED BY IDOCK:   -6.84 KCAL/MOL
REMARK 923 INTER-LIGAND FREE ENERGY PREDICTED BY IDOCK:   -6.08 KCAL/MOL
REMARK 924 INTRA-LIGAND FREE ENERGY PREDICTED BY IDOCK:   -0.75 KCAL/MOL
REMARK 927      BINDING AFFINITY PREDICTED BY RF-SCORE:    0.00 PKD
ROOT
HETATM    1  N   UNL     1     -11.898  13.828  67.898  1.00  0.00    -0.365 NA 
HETATM    2  C   UNL     1     -11.558  14.415  66.591  1.00  0.00    -0.384 C  
HETATM    3  H1  UNL     1     -11.204  14.075  68.604  1.00  0.00     0.000 HD 
HETATM    4  H2  UNL     1     -12.026  12.818  67.835  1.00  0.00     0.000 HD 
HETATM    5  C   UNL     1     -12.604  14.044  65.528  1.00  0.00    -0.543 C  
HETATM    6  C   UNL     1     -12.579  12.592  65.028  1.00  0.00    -0.504 C  
HETATM    7  C   UNL     1     -11.358  12.267  64.155  1.00  0.00    -0.442 C  
HETATM    8  C   UNL     1     -10.060  11.893  64.896  1.00  0.00    -0.263 C  
HETATM    9  N   UNL     1      -9.944  12.556  66.209  1.00  0.00    -0.247 NA 
HETATM   10  C   UNL     1     -10.133  14.027  66.135  1.00  0.00    -0.309 C  
ENDROOT
BRANCH   9  11
HETATM   11  C   UNL     1      -9.234  11.938  67.264  1.00  0.00    -0.179 A  
HETATM   12  C   UNL     1      -7.956  12.384  67.667  1.00  0.00    -0.164 A  
HETATM   13  C   UNL     1      -7.222  11.782  68.674  1.00  0.00    -0.112 A  
HETATM   14  F   UNL     1      -7.328  13.415  67.089  1.00  0.00    -0.159 F  
HETATM   15  C   UNL     1      -7.710  10.647  69.306  1.00  0.00    -0.142 A  
HETATM   16  C   UNL     1      -6.809  10.013  70.292  1.00  0.00    -0.147 C  
HETATM   17  C   UNL     1      -7.219   8.746  70.899  1.00  0.00    -0.083 C  
HETATM   18  O   UNL     1      -5.718  10.501  70.577  1.00  0.00    -0.075 OA 
HETATM   19  C   UNL     1      -6.360   7.973  71.813  1.00  0.00    -0.043 C  
HETATM   20  C   UNL     1      -8.444   8.304  70.574  1.00  0.00    -0.129 C  
HETATM   21  O   UNL     1      -5.156   8.527  72.069  1.00  0.00    -0.034 OA 
HETATM   22  N   UNL     1      -9.376   8.936  69.757  1.00  0.00    -0.161 NA 
HETATM   23  O   UNL     1      -6.700   6.901  72.310  1.00  0.00    -0.057 OA 
HETATM   24  C   UNL     1      -8.993  10.128  69.030  1.00  0.00    -0.167 A  
HETATM   25 CL   UNL     1     -11.499  10.613  67.985  1.00  0.00    -0.354 Cl 
HETATM   26  C   UNL     1      -9.767  10.851  68.057  1.00  0.00    -0.165 A  
BRANCH  22  27
HETATM   27  C   UNL     1     -10.658   8.219  69.548  1.00  0.00    -0.213 C  
HETATM   28  C   UNL     1     -11.290   7.458  70.696  1.00  0.00    -0.304 C  
HETATM   29  C   UNL     1     -10.809   6.709  69.503  1.00  0.00    -0.339 C  
ENDBRANCH  22  27
ENDBRANCH   9  11
TORSDOF 2
ENDMDL
MODEL       62
REMARK 921   NORMALIZED FREE ENERGY PREDICTED BY IDOCK:   -5.44 KCAL/MOL
REMARK 922        TOTAL FREE ENERGY PREDICTED BY IDOCK:   -6.81 KCAL/MOL
REMARK 923 INTER-LIGAND FREE ENERGY PREDICTED BY IDOCK:   -6.20 KCAL/MOL
REMARK 924 INTRA-LIGAND FREE ENERGY PREDICTED BY IDOCK:   -0.62 KCAL/MOL
REMARK 927      BINDING AFFINITY PREDICTED BY RF-SCORE:    0.00 PKD
ROOT
HETATM    1  N   UNL     1      -6.468   7.422  67.030  1.00  0.00    -0.057 NA 
HETATM    2  C   UNL     1      -6.770   6.273  67.901  1.00  0.00    -0.064 C  
HETATM    3  H1  UNL     1      -6.541   8.301  67.543  1.00  0.00     0.000 HD 
HETATM    4  H2  UNL     1      -7.055   7.425  66.195  1.00  0.00     0.000 HD 
HETATM    5  C   UNL     1      -6.661   4.949  67.129  1.00  0.00    -0.050 C  
HETATM    6  C   UNL     1      -7.787   4.651  66.128  1.00  0.00    -0.095 C  
HETATM    7  C   UNL     1      -9.129   4.323  66.797  1.00  0.00    -0.141 C  
HETATM    8  C   UNL     1     -10.002   5.521  67.217  1.00  0.00    -0.165 C  
HETATM    9  N   UNL     1      -9.203   6.707  67.579  1.00  0.00    -0.115 NA 
HETATM   10  C   UNL     1      -8.150   6.412  68.585  1.00  0.00    -0.113 C  
ENDROOT
BRANCH   9  11
HETATM   11  C   UNL     1      -9.725   8.007  67.392  1.00  0.00    -0.166 A  
HETATM   12  C   UNL     1      -9.589   8.699  66.168  1.00  0.00    -0.235 A  
HETATM   13  C   UNL     1     -10.061   9.983  65.963  1.00  0.00    -0.318 A  
HETATM   14  F   UNL     1      -8.963   8.181  65.104  1.00  0.00    -0.148 F  
HETATM   15  C   UNL     1     -10.655  10.680  67.005  1.00  0.00    -0.317 A  
HETATM   16  C   UNL     1     -11.030  12.082  66.721  1.00  0.00    -0.285 C  
HETATM   17  C   UNL     1     -11.547  12.902  67.817  1.00  0.00    -0.391 C  
HETATM   18  O   UNL     1     -10.879  12.577  65.607  1.00  0.00    -0.266 OA 
HETATM   19  C   UNL     1     -11.856  14.336  67.677  1.00  0.00    -0.385 C  
HETATM   20  C   UNL     1     -11.730  12.274  68.989  1.00  0.00    -0.324 C  
HETATM   21  O   UNL     1     -11.639  14.848  66.447  1.00  0.00    -0.330 OA 
HETATM   22  N   UNL     1     -11.518  10.927  69.264  1.00  0.00    -0.275 NA 
HETATM   23  O   UNL     1     -12.276  15.027  68.603  1.00  0.00    -0.190 OA 
HETATM   24  C   UNL     1     -10.895  10.087  68.263  1.00  0.00    -0.241 A  
HETATM   25 CL   UNL     1     -11.151   7.743  69.694  1.00  0.00    -0.119 Cl 
HETATM   26  C   UNL     1     -10.489   8.713  68.398  1.00  0.00    -0.176 A  
BRANCH  22  27
HETATM   27  C   UNL     1     -11.785  10.491  70.657  1.00  0.00    -0.357 C  
HETATM   28  C   UNL     1     -13.143   9.925  71.020  1.00  0.00    -0.406 C  
HETATM   29  C   UNL     1     -12.704  11.210  71.628  1.00  0.00    -0.466 C  
ENDBRANCH  22  27
ENDBRANCH   9  11
TORSDOF 2
ENDMDL
MODEL       63
REMARK 921   NORMALIZED FREE ENERGY PREDICTED BY IDOCK:   -5.39 KCAL/MOL
REMARK 922        TOTAL FREE ENERGY PREDICTED BY IDOCK:   -6.75 KCAL/MOL
REMARK 923 INTER-LIGAND FREE ENERGY PREDICTED BY IDOCK:   -6.07 KCAL/MOL
REMARK 924 INTRA-LIGAND FREE ENERGY PREDICTED BY IDOCK:   -0.68 KCAL/MOL
REMARK 927      BINDING AFFINITY PREDICTED BY RF-SCORE:    0.00 PKD
ROOT
HETATM    1  N   UNL     1      -6.306   6.153  71.486  1.00  0.00    -0.047 NA 
HETATM    2  C   UNL     1      -6.876   5.585  72.720  1.00  0.00    -0.078 C  
HETATM    3  H1  UNL     1      -6.488   7.155  71.423  1.00  0.00     0.000 HD 
HETATM    4  H2  UNL     1      -6.636   5.658  70.657  1.00  0.00     0.000 HD 
HETATM    5  C   UNL     1      -6.600   4.076  72.814  1.00  0.00    -0.040 C  
HETATM    6  C   UNL     1      -7.412   3.177  71.871  1.00  0.00    -0.052 C  
HETATM    7  C   UNL     1      -8.898   3.080  72.247  1.00  0.00    -0.112 C  
HETATM    8  C   UNL     1      -9.813   4.211  71.739  1.00  0.00    -0.182 C  
HETATM    9  N   UNL     1      -9.107   5.500  71.614  1.00  0.00    -0.142 NA 
HETATM   10  C   UNL     1      -8.386   5.889  72.853  1.00  0.00    -0.118 C  
ENDROOT
BRANCH   9  11
HETATM   11  C   UNL     1      -9.513   6.449  70.647  1.00  0.00    -0.165 A  
HETATM   12  C   UNL     1      -9.096   6.370  69.300  1.00  0.00    -0.136 A  
HETATM   13  C   UNL     1      -9.450   7.299  68.338  1.00  0.00    -0.142 A  
HETATM   14  F   UNL     1      -8.294   5.401  68.841  1.00  0.00    -0.097 F  
HETATM   15  C   UNL     1     -10.208   8.407  68.687  1.00  0.00    -0.220 A  
HETATM   16  C   UNL     1     -10.445   9.398  67.616  1.00  0.00    -0.268 C  
HETATM   17  C   UNL     1     -11.131  10.645  67.957  1.00  0.00    -0.361 C  
HETATM   18  O   UNL     1     -10.045   9.216  66.469  1.00  0.00    -0.273 OA 
HETATM   19  C   UNL     1     -11.331  11.746  66.998  1.00  0.00    -0.321 C  
HETATM   20  C   UNL     1     -11.581  10.746  69.218  1.00  0.00    -0.305 C  
HETATM   21  O   UNL     1     -10.843  11.518  65.760  1.00  0.00    -0.280 OA 
HETATM   22  N   UNL     1     -11.498   9.784  70.219  1.00  0.00    -0.260 NA 
HETATM   23  O   UNL     1     -11.895  12.798  67.291  1.00  0.00    -0.368 OA 
HETATM   24  C   UNL     1     -10.728   8.580  69.988  1.00  0.00    -0.232 A  
HETATM   25 CL   UNL     1     -11.389   7.383  72.383  1.00  0.00    -0.314 Cl 
HETATM   26  C   UNL     1     -10.429   7.533  70.929  1.00  0.00    -0.213 A  
BRANCH  22  27
HETATM   27  C   UNL     1     -12.065  10.159  71.539  1.00  0.00    -0.351 C  
HETATM   28  C   UNL     1     -13.520   9.865  71.842  1.00  0.00    -0.467 C  
HETATM   29  C   UNL     1     -13.064  11.280  71.765  1.00  0.00    -0.527 C  
ENDBRANCH  22  27
ENDBRANCH   9  11
TORSDOF 2
ENDMDL
MODEL       64
REMARK 921   NORMALIZED FREE ENERGY PREDICTED BY IDOCK:   -5.35 KCAL/MOL
REMARK 922        TOTAL FREE ENERGY PREDICTED BY IDOCK:   -6.71 KCAL/MOL
REMARK 923 INTER-LIGAND FREE ENERGY PREDICTED BY IDOCK:   -6.02 KCAL/MOL
REMARK 924 INTRA-LIGAND FREE ENERGY PREDICTED BY IDOCK:   -0.69 KCAL/MOL
REMARK 927      BINDING AFFINITY PREDICTED BY RF-SCORE:    0.00 PKD
ROOT
HETATM    1  N   UNL     1      -8.998   8.708  70.004  1.00  0.00    -0.143 NA 
HETATM    2  C   UNL     1      -8.008   7.714  69.559  1.00  0.00    -0.125 C  
HETATM    3  H1  UNL     1      -9.866   8.626  69.474  1.00  0.00     0.000 HD 
HETATM    4  H2  UNL     1      -8.623   9.656  69.965  1.00  0.00     0.000 HD 
HETATM    5  C   UNL     1      -6.701   7.838  70.358  1.00  0.00    -0.038 C  
HETATM    6  C   UNL     1      -5.819   9.053  70.034  1.00  0.00    -0.031 C  
HETATM    7  C   UNL     1      -5.144   8.968  68.658  1.00  0.00    -0.034 C  
HETATM    8  C   UNL     1      -5.983   9.425  67.448  1.00  0.00    -0.049 C  
HETATM    9  N   UNL     1      -7.428   9.194  67.641  1.00  0.00    -0.084 NA 
HETATM   10  C   UNL     1      -7.745   7.799  68.038  1.00  0.00    -0.126 C  
ENDROOT
BRANCH   9  11
HETATM   11  C   UNL     1      -8.377  10.036  67.016  1.00  0.00    -0.121 A  
HETATM   12  C   UNL     1      -9.297   9.548  66.062  1.00  0.00    -0.216 A  
HETATM   13  C   UNL     1     -10.216  10.351  65.412  1.00  0.00    -0.329 A  
HETATM   14  F   UNL     1      -9.340   8.265  65.681  1.00  0.00    -0.221 F  
HETATM   15  C   UNL     1     -10.231  11.719  65.642  1.00  0.00    -0.284 A  
HETATM   16  C   UNL     1     -11.175  12.508  64.821  1.00  0.00    -0.306 C  
HETATM   17  C   UNL     1     -11.146  13.967  64.933  1.00  0.00    -0.370 C  
HETATM   18  O   UNL     1     -11.944  11.972  64.028  1.00  0.00    -0.397 OA 
HETATM   19  C   UNL     1     -11.966  14.857  64.092  1.00  0.00    -0.235 C  
HETATM   20  C   UNL     1     -10.315  14.473  65.857  1.00  0.00    -0.319 C  
HETATM   21  O   UNL     1     -12.769  14.227  63.209  1.00  0.00    -0.665 OA 
HETATM   22  N   UNL     1      -9.509  13.763  66.741  1.00  0.00    -0.267 NA 
HETATM   23  O   UNL     1     -11.930  16.083  64.177  1.00  0.00    -0.671 OA 
HETATM   24  C   UNL     1      -9.397  12.326  66.605  1.00  0.00    -0.228 A  
HETATM   25 CL   UNL     1      -7.833  11.973  68.849  1.00  0.00    -0.024 Cl 
HETATM   26  C   UNL     1      -8.535  11.438  67.339  1.00  0.00    -0.143 A  
BRANCH  22  27
HETATM   27  C   UNL     1      -8.666  14.573  67.656  1.00  0.00    -0.183 C  
HETATM   28  C   UNL     1      -8.401  16.031  67.340  1.00  0.00    -0.188 C  
HETATM   29  C   UNL     1      -7.267  15.066  67.335  1.00  0.00    -0.224 C  
ENDBRANCH  22  27
ENDBRANCH   9  11
TORSDOF 2
ENDMDL
MODEL       65
REMARK 921   NORMALIZED FREE ENERGY PREDICTED BY IDOCK:   -5.31 KCAL/MOL
REMARK 922        TOTAL FREE ENERGY PREDICTED BY IDOCK:   -6.66 KCAL/MOL
REMARK 923 INTER-LIGAND FREE ENERGY PREDICTED BY IDOCK:   -5.86 KCAL/MOL
REMARK 924 INTRA-LIGAND FREE ENERGY PREDICTED BY IDOCK:   -0.80 KCAL/MOL
REMARK 927      BINDING AFFINITY PREDICTED BY RF-SCORE:    0.00 PKD
ROOT
HETATM    1  N   UNL     1     -12.418  12.150  63.667  1.00  0.00    -0.637 NA 
HETATM    2  C   UNL     1     -12.840  12.984  64.805  1.00  0.00    -0.265 C  
HETATM    3  H1  UNL     1     -12.628  11.166  63.834  1.00  0.00     0.000 HD 
HETATM    4  H2  UNL     1     -11.432  12.291  63.443  1.00  0.00     0.000 HD 
HETATM    5  C   UNL     1     -12.524  14.467  64.553  1.00  0.00    -0.362 C  
HETATM    6  C   UNL     1     -11.045  14.870  64.640  1.00  0.00    -0.335 C  
HETATM    7  C   UNL     1     -10.485  14.840  66.070  1.00  0.00    -0.312 C  
HETATM    8  C   UNL     1     -10.004  13.472  66.594  1.00  0.00    -0.282 C  
HETATM    9  N   UNL     1     -10.755  12.345  66.009  1.00  0.00    -0.255 NA 
HETATM   10  C   UNL     1     -12.227  12.498  66.138  1.00  0.00    -0.140 C  
ENDROOT
BRANCH   9  11
HETATM   11  C   UNL     1     -10.139  11.082  65.845  1.00  0.00    -0.249 A  
HETATM   12  C   UNL     1      -9.363  10.771  64.707  1.00  0.00    -0.226 A  
HETATM   13  C   UNL     1      -8.774   9.536  64.502  1.00  0.00    -0.232 A  
HETATM   14  F   UNL     1      -9.153  11.639  63.709  1.00  0.00    -0.103 F  
HETATM   15  C   UNL     1      -8.977   8.509  65.412  1.00  0.00    -0.150 A  
HETATM   16  C   UNL     1      -8.397   7.197  65.054  1.00  0.00    -0.046 C  
HETATM   17  C   UNL     1      -8.684   6.049  65.915  1.00  0.00    -0.157 C  
HETATM   18  O   UNL     1      -7.722   7.045  64.039  1.00  0.00    -0.106 OA 
HETATM   19  C   UNL     1      -8.246   4.676  65.603  1.00  0.00    -0.115 C  
HETATM   20  C   UNL     1      -9.385   6.306  67.030  1.00  0.00    -0.126 C  
HETATM   21  O   UNL     1      -7.540   4.550  64.459  1.00  0.00    -0.071 OA 
HETATM   22  N   UNL     1      -9.834   7.546  67.472  1.00  0.00    -0.151 NA 
HETATM   23  O   UNL     1      -8.501   3.711  66.319  1.00  0.00    -0.107 OA 
HETATM   24  C   UNL     1      -9.692   8.703  66.614  1.00  0.00    -0.247 A  
HETATM   25 CL   UNL     1     -10.652  10.516  68.457  1.00  0.00    -0.214 Cl 
HETATM   26  C   UNL     1     -10.192  10.033  66.840  1.00  0.00    -0.238 A  
BRANCH  22  27
HETATM   27  C   UNL     1     -10.607   7.550  68.740  1.00  0.00    -0.156 C  
HETATM   28  C   UNL     1      -9.881   7.410  70.062  1.00  0.00    -0.179 C  
HETATM   29  C   UNL     1     -10.818   6.338  69.629  1.00  0.00    -0.403 C  
ENDBRANCH  22  27
ENDBRANCH   9  11
TORSDOF 2
ENDMDL
MODEL       66
REMARK 921   NORMALIZED FREE ENERGY PREDICTED BY IDOCK:   -5.28 KCAL/MOL
REMARK 922        TOTAL FREE ENERGY PREDICTED BY IDOCK:   -6.64 KCAL/MOL
REMARK 923 INTER-LIGAND FREE ENERGY PREDICTED BY IDOCK:   -5.83 KCAL/MOL
REMARK 924 INTRA-LIGAND FREE ENERGY PREDICTED BY IDOCK:   -0.81 KCAL/MOL
REMARK 927      BINDING AFFINITY PREDICTED BY RF-SCORE:    0.00 PKD
ROOT
HETATM    1  N   UNL     1      -8.799   8.657  64.099  1.00  0.00    -0.411 NA 
HETATM    2  C   UNL     1      -7.472   9.243  63.844  1.00  0.00    -0.110 C  
HETATM    3  H1  UNL     1      -9.502   9.384  64.239  1.00  0.00     0.000 HD 
HETATM    4  H2  UNL     1      -8.777   8.002  64.881  1.00  0.00     0.000 HD 
HETATM    5  C   UNL     1      -6.415   8.149  63.633  1.00  0.00    -0.072 C  
HETATM    6  C   UNL     1      -5.976   7.377  64.886  1.00  0.00    -0.038 C  
HETATM    7  C   UNL     1      -5.131   8.214  65.856  1.00  0.00    -0.024 C  
HETATM    8  C   UNL     1      -5.901   9.113  66.843  1.00  0.00    -0.048 C  
HETATM    9  N   UNL     1      -7.186   9.587  66.296  1.00  0.00    -0.092 NA 
HETATM   10  C   UNL     1      -7.048  10.225  64.961  1.00  0.00    -0.111 C  
ENDROOT
BRANCH   9  11
HETATM   11  C   UNL     1      -8.273   9.864  67.156  1.00  0.00    -0.121 A  
HETATM   12  C   UNL     1      -8.741  11.179  67.371  1.00  0.00    -0.133 A  
HETATM   13  C   UNL     1      -9.782  11.485  68.230  1.00  0.00    -0.198 A  
HETATM   14  F   UNL     1      -8.198  12.251  66.782  1.00  0.00    -0.177 F  
HETATM   15  C   UNL     1     -10.386  10.484  68.976  1.00  0.00    -0.232 A  
HETATM   16  C   UNL     1     -11.413  10.923  69.944  1.00  0.00    -0.323 C  
HETATM   17  C   UNL     1     -11.995   9.926  70.845  1.00  0.00    -0.434 C  
HETATM   18  O   UNL     1     -11.754  12.100  70.035  1.00  0.00    -0.308 OA 
HETATM   19  C   UNL     1     -12.950  10.265  71.915  1.00  0.00    -0.449 C  
HETATM   20  C   UNL     1     -11.609   8.656  70.649  1.00  0.00    -0.200 C  
HETATM   21  O   UNL     1     -13.267  11.574  72.003  1.00  0.00    -0.509 OA 
HETATM   22  N   UNL     1     -10.748   8.181  69.665  1.00  0.00    -0.222 NA 
HETATM   23  O   UNL     1     -13.426   9.428  72.680  1.00  0.00    -0.413 OA 
HETATM   24  C   UNL     1     -10.044   9.123  68.820  1.00  0.00    -0.197 A  
HETATM   25 CL   UNL     1      -8.876   7.211  67.213  1.00  0.00    -0.119 Cl 
HETATM   26  C   UNL     1      -9.035   8.838  67.835  1.00  0.00    -0.140 A  
BRANCH  22  27
HETATM   27  C   UNL     1     -10.472   6.723  69.681  1.00  0.00    -0.214 C  
HETATM   28  C   UNL     1     -10.894   5.892  70.876  1.00  0.00    -0.347 C  
HETATM   29  C   UNL     1      -9.445   6.046  70.570  1.00  0.00    -0.191 C  
ENDBRANCH  22  27
ENDBRANCH   9  11
TORSDOF 2
ENDMDL
MODEL       67
REMARK 921   NORMALIZED FREE ENERGY PREDICTED BY IDOCK:   -5.25 KCAL/MOL
REMARK 922        TOTAL FREE ENERGY PREDICTED BY IDOCK:   -6.60 KCAL/MOL
REMARK 923 INTER-LIGAND FREE ENERGY PREDICTED BY IDOCK:   -5.91 KCAL/MOL
REMARK 924 INTRA-LIGAND FREE ENERGY PREDICTED BY IDOCK:   -0.69 KCAL/MOL
REMARK 927      BINDING AFFINITY PREDICTED BY RF-SCORE:    0.00 PKD
ROOT
HETATM    1  N   UNL     1      -8.562   8.148  65.104  1.00  0.00    -0.321 NA 
HETATM    2  C   UNL     1      -8.121   7.228  66.167  1.00  0.00    -0.121 C  
HETATM    3  H1  UNL     1      -7.822   8.805  64.857  1.00  0.00     0.000 HD 
HETATM    4  H2  UNL     1      -9.424   8.631  65.359  1.00  0.00     0.000 HD 
HETATM    5  C   UNL     1      -9.236   6.237  66.539  1.00  0.00    -0.169 C  
HETATM    6  C   UNL     1     -10.412   6.810  67.344  1.00  0.00    -0.330 C  
HETATM    7  C   UNL     1     -10.046   7.172  68.790  1.00  0.00    -0.175 C  
HETATM    8  C   UNL     1      -9.397   8.552  69.013  1.00  0.00    -0.146 C  
HETATM    9  N   UNL     1      -8.599   8.997  67.855  1.00  0.00    -0.125 NA 
HETATM   10  C   UNL     1      -7.605   7.986  67.412  1.00  0.00    -0.097 C  
ENDROOT
BRANCH   9  11
HETATM   11  C   UNL     1      -8.449  10.375  67.574  1.00  0.00    -0.115 A  
HETATM   12  C   UNL     1      -7.275  11.084  67.910  1.00  0.00    -0.086 A  
HETATM   13  C   UNL     1      -7.112  12.438  67.678  1.00  0.00    -0.133 A  
HETATM   14  F   UNL     1      -6.225  10.512  68.513  1.00  0.00    -0.047 F  
HETATM   15  C   UNL     1      -8.150  13.182  67.138  1.00  0.00    -0.107 A  
HETATM   16  C   UNL     1      -7.920  14.638  67.026  1.00  0.00    -0.072 C  
HETATM   17  C   UNL     1      -9.025  15.488  66.579  1.00  0.00    -0.348 C  
HETATM   18  O   UNL     1      -6.846  15.147  67.336  1.00  0.00    -0.185 OA 
HETATM   19  C   UNL     1      -8.943  16.958  66.528  1.00  0.00    -0.272 C  
HETATM   20  C   UNL     1     -10.147  14.852  66.211  1.00  0.00    -0.283 C  
HETATM   21  O   UNL     1      -7.758  17.477  66.913  1.00  0.00    -0.193 OA 
HETATM   22  N   UNL     1     -10.362  13.478  66.173  1.00  0.00    -0.290 NA 
HETATM   23  O   UNL     1      -9.877  17.671  66.166  1.00  0.00    -0.414 OA 
HETATM   24  C   UNL     1      -9.357  12.586  66.714  1.00  0.00    -0.230 A  
HETATM   25 CL   UNL     1     -10.642  10.263  65.967  1.00  0.00    -0.175 Cl 
HETATM   26  C   UNL     1      -9.443  11.158  66.871  1.00  0.00    -0.185 A  
BRANCH  22  27
HETATM   27  C   UNL     1     -11.710  13.035  65.739  1.00  0.00    -0.382 C  
HETATM   28  C   UNL     1     -12.220  13.416  64.364  1.00  0.00    -0.444 C  
HETATM   29  C   UNL     1     -12.909  13.951  65.570  1.00  0.00    -0.471 C  
ENDBRANCH  22  27
ENDBRANCH   9  11
TORSDOF 2
ENDMDL
MODEL       68
REMARK 921   NORMALIZED FREE ENERGY PREDICTED BY IDOCK:   -5.20 KCAL/MOL
REMARK 922        TOTAL FREE ENERGY PREDICTED BY IDOCK:   -6.54 KCAL/MOL
REMARK 923 INTER-LIGAND FREE ENERGY PREDICTED BY IDOCK:   -5.76 KCAL/MOL
REMARK 924 INTRA-LIGAND FREE ENERGY PREDICTED BY IDOCK:   -0.78 KCAL/MOL
REMARK 927      BINDING AFFINITY PREDICTED BY RF-SCORE:    0.00 PKD
ROOT
HETATM    1  N   UNL     1      -8.724   7.896  64.347  1.00  0.00    -0.341 NA 
HETATM    2  C   UNL     1      -8.140   8.998  63.562  1.00  0.00    -0.164 C  
HETATM    3  H1  UNL     1      -9.660   8.135  64.675  1.00  0.00     0.000 HD 
HETATM    4  H2  UNL     1      -8.115   7.619  65.117  1.00  0.00     0.000 HD 
HETATM    5  C   UNL     1      -6.730   8.638  63.067  1.00  0.00    -0.090 C  
HETATM    6  C   UNL     1      -5.619   8.630  64.127  1.00  0.00    -0.064 C  
HETATM    7  C   UNL     1      -5.246  10.031  64.632  1.00  0.00    -0.080 C  
HETATM    8  C   UNL     1      -6.125  10.618  65.753  1.00  0.00    -0.134 C  
HETATM    9  N   UNL     1      -7.520  10.142  65.687  1.00  0.00    -0.138 NA 
HETATM   10  C   UNL     1      -8.135  10.329  64.348  1.00  0.00    -0.149 C  
ENDROOT
BRANCH   9  11
HETATM   11  C   UNL     1      -8.295  10.030  66.865  1.00  0.00    -0.125 A  
HETATM   12  C   UNL     1      -8.295   8.856  67.651  1.00  0.00    -0.110 A  
HETATM   13  C   UNL     1      -9.065   8.704  68.790  1.00  0.00    -0.142 A  
HETATM   14  F   UNL     1      -7.569   7.774  67.345  1.00  0.00    -0.094 F  
HETATM   15  C   UNL     1      -9.934   9.712  69.183  1.00  0.00    -0.189 A  
HETATM   16  C   UNL     1     -10.793   9.415  70.349  1.00  0.00    -0.269 C  
HETATM   17  C   UNL     1     -11.813  10.392  70.732  1.00  0.00    -0.466 C  
HETATM   18  O   UNL     1     -10.695   8.360  70.970  1.00  0.00    -0.214 OA 
HETATM   19  C   UNL     1     -12.791  10.158  71.810  1.00  0.00    -0.452 C  
HETATM   20  C   UNL     1     -11.823  11.539  70.036  1.00  0.00    -0.355 C  
HETATM   21  O   UNL     1     -12.671   8.971  72.440  1.00  0.00    -0.392 OA 
HETATM   22  N   UNL     1     -10.949  11.915  69.022  1.00  0.00    -0.228 NA 
HETATM   23  O   UNL     1     -13.657  10.974  72.119  1.00  0.00    -0.283 OA 
HETATM   24  C   UNL     1      -9.994  10.953  68.512  1.00  0.00    -0.182 A  
HETATM   25 CL   UNL     1      -8.730  12.715  66.810  1.00  0.00    -0.176 Cl 
HETATM   26  C   UNL     1      -9.095  11.110  67.400  1.00  0.00    -0.142 A  
BRANCH  22  27
HETATM   27  C   UNL     1     -11.192  13.242  68.403  1.00  0.00    -0.280 C  
HETATM   28  C   UNL     1     -10.771  14.500  69.134  1.00  0.00    -0.263 C  
HETATM   29  C   UNL     1     -12.218  14.249  68.890  1.00  0.00    -0.240 C  
ENDBRANCH  22  27
ENDBRANCH   9  11
TORSDOF 2
ENDMDL
MODEL       69
REMARK 921   NORMALIZED FREE ENERGY PREDICTED BY IDOCK:   -5.20 KCAL/MOL
REMARK 922        TOTAL FREE ENERGY PREDICTED BY IDOCK:   -6.54 KCAL/MOL
REMARK 923 INTER-LIGAND FREE ENERGY PREDICTED BY IDOCK:   -5.79 KCAL/MOL
REMARK 924 INTRA-LIGAND FREE ENERGY PREDICTED BY IDOCK:   -0.75 KCAL/MOL
REMARK 927      BINDING AFFINITY PREDICTED BY RF-SCORE:    0.00 PKD
ROOT
HETATM    1  N   UNL     1      -8.518  16.111  67.261  1.00  0.00    -0.172 NA 
HETATM    2  C   UNL     1      -9.812  16.797  67.423  1.00  0.00    -0.252 C  
HETATM    3  H1  UNL     1      -8.326  15.917  66.278  1.00  0.00     0.000 HD 
HETATM    4  H2  UNL     1      -8.469  15.263  67.827  1.00  0.00     0.000 HD 
HETATM    5  C   UNL     1     -10.102  17.089  68.904  1.00  0.00    -0.307 C  
HETATM    6  C   UNL     1     -10.486  15.882  69.772  1.00  0.00    -0.311 C  
HETATM    7  C   UNL     1     -11.880  15.321  69.455  1.00  0.00    -0.368 C  
HETATM    8  C   UNL     1     -11.975  14.333  68.277  1.00  0.00    -0.311 C  
HETATM    9  N   UNL     1     -10.969  14.599  67.231  1.00  0.00    -0.308 NA 
HETATM   10  C   UNL     1     -10.971  16.010  66.769  1.00  0.00    -0.112 C  
ENDROOT
BRANCH   9  11
HETATM   11  C   UNL     1     -10.468  13.544  66.433  1.00  0.00    -0.287 A  
HETATM   12  C   UNL     1     -10.875  13.362  65.093  1.00  0.00    -0.313 A  
HETATM   13  C   UNL     1     -10.428  12.323  64.296  1.00  0.00    -0.375 A  
HETATM   14  F   UNL     1     -11.755  14.166  64.483  1.00  0.00    -0.357 F  
HETATM   15  C   UNL     1      -9.579  11.360  64.821  1.00  0.00    -0.239 A  
HETATM   16  C   UNL     1      -9.242  10.231  63.928  1.00  0.00    -0.274 C  
HETATM   17  C   UNL     1      -8.450   9.125  64.468  1.00  0.00    -0.195 C  
HETATM   18  O   UNL     1      -9.643  10.185  62.767  1.00  0.00    -0.302 OA 
HETATM   19  C   UNL     1      -8.142   7.903  63.703  1.00  0.00    -0.074 C  
HETATM   20  C   UNL     1      -8.009   9.274  65.726  1.00  0.00    -0.109 C  
HETATM   21  O   UNL     1      -8.634   7.879  62.446  1.00  0.00    -0.094 OA 
HETATM   22  N   UNL     1      -8.189  10.376  66.555  1.00  0.00    -0.127 NA 
HETATM   23  O   UNL     1      -7.490   6.969  64.164  1.00  0.00    -0.083 OA 
HETATM   24  C   UNL     1      -9.060  11.452  66.131  1.00  0.00    -0.207 A  
HETATM   25 CL   UNL     1      -8.537  13.081  68.293  1.00  0.00    -0.179 Cl 
HETATM   26  C   UNL     1      -9.462  12.608  66.887  1.00  0.00    -0.229 A  
BRANCH  22  27
HETATM   27  C   UNL     1      -7.606  10.276  67.917  1.00  0.00    -0.089 C  
HETATM   28  C   UNL     1      -6.109  10.116  68.083  1.00  0.00    -0.048 C  
HETATM   29  C   UNL     1      -7.011   9.013  68.513  1.00  0.00    -0.064 C  
ENDBRANCH  22  27
ENDBRANCH   9  11
TORSDOF 2
ENDMDL
MODEL       70
REMARK 921   NORMALIZED FREE ENERGY PREDICTED BY IDOCK:   -5.19 KCAL/MOL
REMARK 922        TOTAL FREE ENERGY PREDICTED BY IDOCK:   -6.54 KCAL/MOL
REMARK 923 INTER-LIGAND FREE ENERGY PREDICTED BY IDOCK:   -6.01 KCAL/MOL
REMARK 924 INTRA-LIGAND FREE ENERGY PREDICTED BY IDOCK:   -0.52 KCAL/MOL
REMARK 927      BINDING AFFINITY PREDICTED BY RF-SCORE:    0.00 PKD
ROOT
HETATM    1  N   UNL     1      -9.846   6.052  69.828  1.00  0.00    -0.160 NA 
HETATM    2  C   UNL     1      -8.436   5.626  69.827  1.00  0.00    -0.107 C  
HETATM    3  H1  UNL     1     -10.248   5.996  68.892  1.00  0.00     0.000 HD 
HETATM    4  H2  UNL     1      -9.957   6.983  70.230  1.00  0.00     0.000 HD 
HETATM    5  C   UNL     1      -7.831   5.709  71.237  1.00  0.00    -0.111 C  
HETATM    6  C   UNL     1      -7.539   7.120  71.769  1.00  0.00    -0.087 C  
HETATM    7  C   UNL     1      -6.363   7.809  71.062  1.00  0.00    -0.037 C  
HETATM    8  C   UNL     1      -6.679   8.521  69.732  1.00  0.00    -0.039 C  
HETATM    9  N   UNL     1      -7.786   7.883  68.995  1.00  0.00    -0.099 NA 
HETATM   10  C   UNL     1      -7.591   6.422  68.807  1.00  0.00    -0.093 C  
ENDROOT
BRANCH   9  11
HETATM   11  C   UNL     1      -8.619   8.649  68.148  1.00  0.00    -0.141 A  
HETATM   12  C   UNL     1      -8.663   8.438  66.752  1.00  0.00    -0.128 A  
HETATM   13  C   UNL     1      -9.444   9.191  65.893  1.00  0.00    -0.326 A  
HETATM   14  F   UNL     1      -7.929   7.505  66.133  1.00  0.00    -0.095 F  
HETATM   15  C   UNL     1     -10.193  10.251  66.383  1.00  0.00    -0.290 A  
HETATM   16  C   UNL     1     -10.909  11.063  65.376  1.00  0.00    -0.098 C  
HETATM   17  C   UNL     1     -11.614  12.265  65.821  1.00  0.00    -0.443 C  
HETATM   18  O   UNL     1     -10.889  10.774  64.182  1.00  0.00    -0.207 OA 
HETATM   19  C   UNL     1     -12.274  13.204  64.896  1.00  0.00    -0.428 C  
HETATM   20  C   UNL     1     -11.632  12.483  67.145  1.00  0.00    -0.368 C  
HETATM   21  O   UNL     1     -12.195  12.868  63.592  1.00  0.00    -0.519 OA 
HETATM   22  N   UNL     1     -11.087  11.675  68.138  1.00  0.00    -0.224 NA 
HETATM   23  O   UNL     1     -12.853  14.222  65.272  1.00  0.00    -0.630 OA 
HETATM   24  C   UNL     1     -10.274  10.537  67.762  1.00  0.00    -0.190 A  
HETATM   25 CL   UNL     1      -9.929   9.603  70.334  1.00  0.00    -0.323 Cl 
HETATM   26  C   UNL     1      -9.535   9.660  68.631  1.00  0.00    -0.146 A  
BRANCH  22  27
HETATM   27  C   UNL     1     -11.233  12.159  69.533  1.00  0.00    -0.131 C  
HETATM   28  C   UNL     1     -12.376  11.652  70.389  1.00  0.00    -0.373 C  
HETATM   29  C   UNL     1     -12.330  13.092  70.015  1.00  0.00    -0.222 C  
ENDBRANCH  22  27
ENDBRANCH   9  11
TORSDOF 2
ENDMDL
MODEL       71
REMARK 921   NORMALIZED FREE ENERGY PREDICTED BY IDOCK:   -5.19 KCAL/MOL
REMARK 922        TOTAL FREE ENERGY PREDICTED BY IDOCK:   -6.53 KCAL/MOL
REMARK 923 INTER-LIGAND FREE ENERGY PREDICTED BY IDOCK:   -6.77 KCAL/MOL
REMARK 924 INTRA-LIGAND FREE ENERGY PREDICTED BY IDOCK:    0.24 KCAL/MOL
REMARK 927      BINDING AFFINITY PREDICTED BY RF-SCORE:    0.00 PKD
ROOT
HETATM    1  N   UNL     1     -10.832  16.055  71.035  1.00  0.00    -0.034 NA 
HETATM    2  C   UNL     1     -12.231  16.172  71.480  1.00  0.00    -0.306 C  
HETATM    3  H1  UNL     1     -10.721  16.388  70.077  1.00  0.00     0.000 HD 
HETATM    4  H2  UNL     1     -10.481  15.104  71.145  1.00  0.00     0.000 HD 
HETATM    5  C   UNL     1     -12.398  15.671  72.923  1.00  0.00    -0.552 C  
HETATM    6  C   UNL     1     -12.324  14.150  73.127  1.00  0.00     0.051 C  
HETATM    7  C   UNL     1     -13.540  13.398  72.567  1.00  0.00    -0.659 C  
HETATM    8  C   UNL     1     -13.511  13.062  71.063  1.00  0.00     0.380 C  
HETATM    9  N   UNL     1     -12.759  14.056  70.274  1.00  0.00    -0.280 NA 
HETATM   10  C   UNL     1     -13.206  15.451  70.520  1.00  0.00    -0.208 C  
ENDROOT
BRANCH   9  11
HETATM   11  C   UNL     1     -12.096  13.673  69.085  1.00  0.00    -0.319 A  
HETATM   12  C   UNL     1     -11.816  14.598  68.055  1.00  0.00    -0.311 A  
HETATM   13  C   UNL     1     -11.197  14.248  66.867  1.00  0.00    -0.333 A  
HETATM   14  F   UNL     1     -12.151  15.892  68.125  1.00  0.00    -0.236 F  
HETATM   15  C   UNL     1     -10.870  12.924  66.617  1.00  0.00    -0.288 A  
HETATM   16  C   UNL     1     -10.312  12.632  65.279  1.00  0.00    -0.289 C  
HETATM   17  C   UNL     1     -10.063  11.237  64.915  1.00  0.00    -0.333 C  
HETATM   18  O   UNL     1     -10.094  13.524  64.462  1.00  0.00    -0.347 OA 
HETATM   19  C   UNL     1      -9.607  10.820  63.577  1.00  0.00    -0.320 C  
HETATM   20  C   UNL     1     -10.278  10.328  65.878  1.00  0.00    -0.223 C  
HETATM   21  O   UNL     1      -9.417  11.829  62.700  1.00  0.00    -0.283 OA 
HETATM   22  N   UNL     1     -10.674  10.570  67.189  1.00  0.00    -0.268 NA 
HETATM   23  O   UNL     1      -9.413   9.646  63.268  1.00  0.00    -0.122 OA 
HETATM   24  C   UNL     1     -11.053  11.911  67.582  1.00  0.00    -0.257 A  
HETATM   25 CL   UNL     1     -11.419  11.308  70.248  1.00  0.00    -0.342 Cl 
HETATM   26  C   UNL     1     -11.595  12.337  68.845  1.00  0.00    -0.316 A  
BRANCH  22  27
HETATM   27  C   UNL     1     -10.857   9.376  68.051  1.00  0.00    -0.139 C  
HETATM   28  C   UNL     1      -9.643   8.641  68.584  1.00  0.00    -0.159 C  
HETATM   29  C   UNL     1     -10.552   7.949  67.630  1.00  0.00    -0.276 C  
ENDBRANCH  22  27
ENDBRANCH   9  11
TORSDOF 2
ENDMDL
MODEL       72
REMARK 921   NORMALIZED FREE ENERGY PREDICTED BY IDOCK:   -5.18 KCAL/MOL
REMARK 922        TOTAL FREE ENERGY PREDICTED BY IDOCK:   -6.53 KCAL/MOL
REMARK 923 INTER-LIGAND FREE ENERGY PREDICTED BY IDOCK:   -6.15 KCAL/MOL
REMARK 924 INTRA-LIGAND FREE ENERGY PREDICTED BY IDOCK:   -0.38 KCAL/MOL
REMARK 927      BINDING AFFINITY PREDICTED BY RF-SCORE:    0.00 PKD
ROOT
HETATM    1  N   UNL     1      -6.248   8.773  66.089  1.00  0.00    -0.058 NA 
HETATM    2  C   UNL     1      -6.624   8.170  64.799  1.00  0.00    -0.059 C  
HETATM    3  H1  UNL     1      -6.576   8.204  66.870  1.00  0.00     0.000 HD 
HETATM    4  H2  UNL     1      -6.575   9.737  66.163  1.00  0.00     0.000 HD 
HETATM    5  C   UNL     1      -6.130   9.026  63.622  1.00  0.00    -0.087 C  
HETATM    6  C   UNL     1      -6.884  10.340  63.375  1.00  0.00    -0.092 C  
HETATM    7  C   UNL     1      -8.303  10.137  62.825  1.00  0.00    -0.171 C  
HETATM    8  C   UNL     1      -9.410   9.853  63.859  1.00  0.00    -0.207 C  
HETATM    9  N   UNL     1      -8.907   9.136  65.046  1.00  0.00    -0.197 NA 
HETATM   10  C   UNL     1      -8.145   7.909  64.703  1.00  0.00    -0.125 C  
ENDROOT
BRANCH   9  11
HETATM   11  C   UNL     1      -9.525   9.314  66.306  1.00  0.00    -0.224 A  
HETATM   12  C   UNL     1      -9.902   8.220  67.115  1.00  0.00    -0.217 A  
HETATM   13  C   UNL     1     -10.535   8.360  68.337  1.00  0.00    -0.208 A  
HETATM   14  F   UNL     1      -9.704   6.945  66.756  1.00  0.00    -0.178 F  
HETATM   15  C   UNL     1     -10.882   9.621  68.800  1.00  0.00    -0.199 A  
HETATM   16  C   UNL     1     -11.651   9.663  70.063  1.00  0.00    -0.088 C  
HETATM   17  C   UNL     1     -12.150  10.955  70.534  1.00  0.00    -0.464 C  
HETATM   18  O   UNL     1     -11.910   8.641  70.694  1.00  0.00    -0.229 OA 
HETATM   19  C   UNL     1     -13.011  11.105  71.720  1.00  0.00    -0.421 C  
HETATM   20  C   UNL     1     -11.781  12.028  69.816  1.00  0.00    -0.319 C  
HETATM   21  O   UNL     1     -13.302   9.953  72.361  1.00  0.00    -0.392 OA 
HETATM   22  N   UNL     1     -10.950  12.048  68.701  1.00  0.00    -0.227 NA 
HETATM   23  O   UNL     1     -13.442  12.190  72.105  1.00  0.00    -0.494 OA 
HETATM   24  C   UNL     1     -10.520  10.798  68.111  1.00  0.00    -0.185 A  
HETATM   25 CL   UNL     1      -8.861  11.952  66.235  1.00  0.00    -0.157 Cl 
HETATM   26  C   UNL     1      -9.764  10.611  66.901  1.00  0.00    -0.179 A  
BRANCH  22  27
HETATM   27  C   UNL     1     -10.715  13.376  68.082  1.00  0.00    -0.253 C  
HETATM   28  C   UNL     1     -11.189  14.630  68.789  1.00  0.00    -0.285 C  
HETATM   29  C   UNL     1     -11.798  14.257  67.483  1.00  0.00    -0.429 C  
ENDBRANCH  22  27
ENDBRANCH   9  11
TORSDOF 2
ENDMDL
MODEL       73
REMARK 921   NORMALIZED FREE ENERGY PREDICTED BY IDOCK:   -5.18 KCAL/MOL
REMARK 922        TOTAL FREE ENERGY PREDICTED BY IDOCK:   -6.52 KCAL/MOL
REMARK 923 INTER-LIGAND FREE ENERGY PREDICTED BY IDOCK:   -5.91 KCAL/MOL
REMARK 924 INTRA-LIGAND FREE ENERGY PREDICTED BY IDOCK:   -0.61 KCAL/MOL
REMARK 927      BINDING AFFINITY PREDICTED BY RF-SCORE:    0.00 PKD
ROOT
HETATM    1  N   UNL     1     -11.038  15.131  65.872  1.00  0.00    -0.338 NA 
HETATM    2  C   UNL     1     -10.914  16.414  66.585  1.00  0.00     0.024 C  
HETATM    3  H1  UNL     1     -11.891  14.641  66.144  1.00  0.00     0.000 HD 
HETATM    4  H2  UNL     1     -10.212  14.547  66.002  1.00  0.00     0.000 HD 
HETATM    5  C   UNL     1      -9.630  17.153  66.176  1.00  0.00    -0.242 C  
HETATM    6  C   UNL     1      -8.313  16.577  66.716  1.00  0.00    -0.274 C  
HETATM    7  C   UNL     1      -8.129  16.784  68.226  1.00  0.00    -0.202 C  
HETATM    8  C   UNL     1      -8.803  15.753  69.152  1.00  0.00    -0.250 C  
HETATM    9  N   UNL     1     -10.038  15.191  68.571  1.00  0.00    -0.222 NA 
HETATM   10  C   UNL     1     -10.993  16.234  68.119  1.00  0.00    -0.343 C  
ENDROOT
BRANCH   9  11
HETATM   11  C   UNL     1     -10.452  13.880  68.900  1.00  0.00    -0.187 A  
HETATM   12  C   UNL     1     -11.429  13.629  69.888  1.00  0.00    -0.136 A  
HETATM   13  C   UNL     1     -11.832  12.357  70.254  1.00  0.00    -0.315 A  
HETATM   14  F   UNL     1     -12.032  14.603  70.581  1.00  0.00    -0.295 F  
HETATM   15  C   UNL     1     -11.231  11.245  69.682  1.00  0.00    -0.321 A  
HETATM   16  C   UNL     1     -11.652   9.931  70.213  1.00  0.00    -0.250 C  
HETATM   17  C   UNL     1     -10.964   8.732  69.734  1.00  0.00    -0.146 C  
HETATM   18  O   UNL     1     -12.529   9.832  71.068  1.00  0.00    -0.312 OA 
HETATM   19  C   UNL     1     -11.227   7.383  70.267  1.00  0.00    -0.247 C  
HETATM   20  C   UNL     1     -10.055   8.919  68.765  1.00  0.00    -0.200 C  
HETATM   21  O   UNL     1     -12.170   7.325  71.231  1.00  0.00    -0.321 OA 
HETATM   22  N   UNL     1      -9.724  10.118  68.144  1.00  0.00    -0.139 NA 
HETATM   23  O   UNL     1     -10.637   6.378  69.874  1.00  0.00    -0.204 OA 
HETATM   24  C   UNL     1     -10.277  11.358  68.648  1.00  0.00    -0.208 A  
HETATM   25 CL   UNL     1      -9.198  12.949  66.671  1.00  0.00    -0.240 Cl 
HETATM   26  C   UNL     1      -9.968  12.697  68.221  1.00  0.00    -0.229 A  
BRANCH  22  27
HETATM   27  C   UNL     1      -8.665  10.050  67.106  1.00  0.00    -0.128 C  
HETATM   28  C   UNL     1      -7.923   8.750  66.874  1.00  0.00    -0.098 C  
HETATM   29  C   UNL     1      -7.179   9.930  67.392  1.00  0.00    -0.086 C  
ENDBRANCH  22  27
ENDBRANCH   9  11
TORSDOF 2
ENDMDL
MODEL       74
REMARK 921   NORMALIZED FREE ENERGY PREDICTED BY IDOCK:   -5.16 KCAL/MOL
REMARK 922        TOTAL FREE ENERGY PREDICTED BY IDOCK:   -6.50 KCAL/MOL
REMARK 923 INTER-LIGAND FREE ENERGY PREDICTED BY IDOCK:   -6.68 KCAL/MOL
REMARK 924 INTRA-LIGAND FREE ENERGY PREDICTED BY IDOCK:    0.19 KCAL/MOL
REMARK 927      BINDING AFFINITY PREDICTED BY RF-SCORE:    0.00 PKD
ROOT
HETATM    1  N   UNL     1     -10.187  15.194  70.814  1.00  0.00    -0.363 NA 
HETATM    2  C   UNL     1     -11.496  15.861  70.713  1.00  0.00    -0.407 C  
HETATM    3  H1  UNL     1      -9.832  14.938  69.893  1.00  0.00     0.000 HD 
HETATM    4  H2  UNL     1     -10.223  14.389  71.440  1.00  0.00     0.000 HD 
HETATM    5  C   UNL     1     -12.030  16.248  72.101  1.00  0.00    -0.575 C  
HETATM    6  C   UNL     1     -12.541  15.095  72.977  1.00  0.00    -0.545 C  
HETATM    7  C   UNL     1     -13.857  14.483  72.477  1.00  0.00    -0.555 C  
HETATM    8  C   UNL     1     -13.745  13.414  71.372  1.00  0.00     0.087 C  
HETATM    9  N   UNL     1     -12.582  13.630  70.489  1.00  0.00    -0.299 NA 
HETATM   10  C   UNL     1     -12.523  15.007  69.935  1.00  0.00    -0.230 C  
ENDROOT
BRANCH   9  11
HETATM   11  C   UNL     1     -11.946  12.535  69.861  1.00  0.00    -0.301 A  
HETATM   12  C   UNL     1     -11.232  12.678  68.652  1.00  0.00    -0.282 A  
HETATM   13  C   UNL     1     -10.625  11.621  67.997  1.00  0.00    -0.232 A  
HETATM   14  F   UNL     1     -11.103  13.849  68.015  1.00  0.00    -0.245 F  
HETATM   15  C   UNL     1     -10.748  10.332  68.494  1.00  0.00    -0.262 A  
HETATM   16  C   UNL     1     -10.158   9.255  67.669  1.00  0.00    -0.214 C  
HETATM   17  C   UNL     1     -10.365   7.866  68.081  1.00  0.00    -0.249 C  
HETATM   18  O   UNL     1      -9.541   9.500  66.635  1.00  0.00    -0.164 OA 
HETATM   19  C   UNL     1      -9.913   6.712  67.284  1.00  0.00    -0.154 C  
HETATM   20  C   UNL     1     -11.005   7.685  69.246  1.00  0.00    -0.014 C  
HETATM   21  O   UNL     1      -9.273   7.026  66.138  1.00  0.00    -0.152 OA 
HETATM   22  N   UNL     1     -11.458   8.669  70.119  1.00  0.00    -0.089 NA 
HETATM   23  O   UNL     1     -10.101   5.546  67.625  1.00  0.00    -0.152 OA 
HETATM   24  C   UNL     1     -11.395  10.059  69.719  1.00  0.00    -0.228 A  
HETATM   25 CL   UNL     1     -12.289  11.065  72.126  1.00  0.00     0.374 Cl 
HETATM   26  C   UNL     1     -11.914  11.201  70.423  1.00  0.00    -0.378 A  
BRANCH  22  27
HETATM   27  C   UNL     1     -12.154   8.194  71.341  1.00  0.00    -0.297 C  
HETATM   28  C   UNL     1     -12.473   6.721  71.499  1.00  0.00    -0.390 C  
HETATM   29  C   UNL     1     -13.589   7.699  71.383  1.00  0.00    -0.368 C  
ENDBRANCH  22  27
ENDBRANCH   9  11
TORSDOF 2
ENDMDL
MODEL       75
REMARK 921   NORMALIZED FREE ENERGY PREDICTED BY IDOCK:   -5.10 KCAL/MOL
REMARK 922        TOTAL FREE ENERGY PREDICTED BY IDOCK:   -6.43 KCAL/MOL
REMARK 923 INTER-LIGAND FREE ENERGY PREDICTED BY IDOCK:   -6.25 KCAL/MOL
REMARK 924 INTRA-LIGAND FREE ENERGY PREDICTED BY IDOCK:   -0.18 KCAL/MOL
REMARK 927      BINDING AFFINITY PREDICTED BY RF-SCORE:    0.00 PKD
ROOT
HETATM    1  N   UNL     1      -6.518   9.146  70.595  1.00  0.00    -0.058 NA 
HETATM    2  C   UNL     1      -6.610   7.767  70.086  1.00  0.00    -0.038 C  
HETATM    3  H1  UNL     1      -7.253   9.336  71.277  1.00  0.00     0.000 HD 
HETATM    4  H2  UNL     1      -6.523   9.828  69.837  1.00  0.00     0.000 HD 
HETATM    5  C   UNL     1      -5.503   7.480  69.060  1.00  0.00    -0.022 C  
HETATM    6  C   UNL     1      -5.666   8.139  67.682  1.00  0.00    -0.039 C  
HETATM    7  C   UNL     1      -6.803   7.534  66.846  1.00  0.00    -0.070 C  
HETATM    8  C   UNL     1      -8.222   8.069  67.121  1.00  0.00    -0.117 C  
HETATM    9  N   UNL     1      -8.405   8.498  68.520  1.00  0.00    -0.123 NA 
HETATM   10  C   UNL     1      -8.008   7.458  69.503  1.00  0.00    -0.127 C  
ENDROOT
BRANCH   9  11
HETATM   11  C   UNL     1      -9.319   9.529  68.839  1.00  0.00    -0.149 A  
HETATM   12  C   UNL     1      -9.231  10.813  68.258  1.00  0.00    -0.157 A  
HETATM   13  C   UNL     1     -10.090  11.851  68.573  1.00  0.00    -0.211 A  
HETATM   14  F   UNL     1      -8.287  11.148  67.369  1.00  0.00    -0.125 F  
HETATM   15  C   UNL     1     -11.065  11.677  69.543  1.00  0.00    -0.230 A  
HETATM   16  C   UNL     1     -11.864  12.873  69.887  1.00  0.00    -0.303 C  
HETATM   17  C   UNL     1     -12.822  12.780  70.989  1.00  0.00    -0.262 C  
HETATM   18  O   UNL     1     -11.710  13.942  69.301  1.00  0.00    -0.287 OA 
HETATM   19  C   UNL     1     -13.596  13.932  71.486  1.00  0.00    -0.279 C  
HETATM   20  C   UNL     1     -12.967  11.567  71.545  1.00  0.00    -0.380 C  
HETATM   21  O   UNL     1     -13.368  15.093  70.838  1.00  0.00    -0.427 OA 
HETATM   22  N   UNL     1     -12.336  10.387  71.165  1.00  0.00    -0.364 NA 
HETATM   23  O   UNL     1     -14.389  13.855  72.422  1.00  0.00    -0.647 OA 
HETATM   24  C   UNL     1     -11.290  10.430  70.165  1.00  0.00    -0.323 A  
HETATM   25 CL   UNL     1     -10.930   7.698  70.047  1.00  0.00    -0.256 Cl 
HETATM   26  C   UNL     1     -10.447   9.349  69.727  1.00  0.00    -0.226 A  
BRANCH  22  27
HETATM   27  C   UNL     1     -12.665   9.180  71.963  1.00  0.00    -0.398 C  
HETATM   28  C   UNL     1     -13.789   8.268  71.517  1.00  0.00    -0.382 C  
HETATM   29  C   UNL     1     -13.920   9.011  72.800  1.00  0.00    -0.256 C  
ENDBRANCH  22  27
ENDBRANCH   9  11
TORSDOF 2
ENDMDL
MODEL       76
REMARK 921   NORMALIZED FREE ENERGY PREDICTED BY IDOCK:   -5.09 KCAL/MOL
REMARK 922        TOTAL FREE ENERGY PREDICTED BY IDOCK:   -6.42 KCAL/MOL
REMARK 923 INTER-LIGAND FREE ENERGY PREDICTED BY IDOCK:   -6.38 KCAL/MOL
REMARK 924 INTRA-LIGAND FREE ENERGY PREDICTED BY IDOCK:   -0.04 KCAL/MOL
REMARK 927      BINDING AFFINITY PREDICTED BY RF-SCORE:    0.00 PKD
ROOT
HETATM    1  N   UNL     1      -8.286  12.000  66.443  1.00  0.00    -0.391 NA 
HETATM    2  C   UNL     1      -9.460  12.634  65.818  1.00  0.00    -0.033 C  
HETATM    3  H1  UNL     1      -8.080  11.100  66.009  1.00  0.00     0.000 HD 
HETATM    4  H2  UNL     1      -8.400  11.912  67.453  1.00  0.00     0.000 HD 
HETATM    5  C   UNL     1      -9.771  13.990  66.472  1.00  0.00    -0.305 C  
HETATM    6  C   UNL     1     -10.384  13.941  67.879  1.00  0.00    -0.240 C  
HETATM    7  C   UNL     1     -11.832  13.432  67.898  1.00  0.00    -0.392 C  
HETATM    8  C   UNL     1     -12.026  11.903  67.907  1.00  0.00    -0.118 C  
HETATM    9  N   UNL     1     -10.942  11.190  67.206  1.00  0.00    -0.280 NA 
HETATM   10  C   UNL     1     -10.697  11.707  65.836  1.00  0.00    -0.278 C  
ENDROOT
BRANCH   9  11
HETATM   11  C   UNL     1     -10.578   9.879  67.595  1.00  0.00    -0.270 A  
HETATM   12  C   UNL     1     -10.142   8.916  66.660  1.00  0.00    -0.287 A  
HETATM   13  C   UNL     1      -9.810   7.617  67.004  1.00  0.00    -0.282 A  
HETATM   14  F   UNL     1     -10.039   9.166  65.349  1.00  0.00    -0.288 F  
HETATM   15  C   UNL     1      -9.950   7.188  68.315  1.00  0.00    -0.171 A  
HETATM   16  C   UNL     1      -9.673   5.757  68.566  1.00  0.00    -0.131 C  
HETATM   17  C   UNL     1      -9.924   5.221  69.904  1.00  0.00    -0.309 C  
HETATM   18  O   UNL     1      -9.281   5.010  67.673  1.00  0.00    -0.114 OA 
HETATM   19  C   UNL     1      -9.782   3.793  70.242  1.00  0.00    -0.152 C  
HETATM   20  C   UNL     1     -10.302   6.110  70.836  1.00  0.00    -0.215 C  
HETATM   21  O   UNL     1      -9.387   3.003  69.222  1.00  0.00    -0.147 OA 
HETATM   22  N   UNL     1     -10.444   7.485  70.677  1.00  0.00    -0.214 NA 
HETATM   23  O   UNL     1     -10.008   3.343  71.363  1.00  0.00    -0.169 OA 
HETATM   24  C   UNL     1     -10.330   8.064  69.354  1.00  0.00    -0.217 A  
HETATM   25 CL   UNL     1     -10.554  10.681  70.195  1.00  0.00    -0.175 Cl 
HETATM   26  C   UNL     1     -10.558   9.432  68.971  1.00  0.00    -0.213 A  
BRANCH  22  27
HETATM   27  C   UNL     1     -10.894   8.241  71.872  1.00  0.00    -0.283 C  
HETATM   28  C   UNL     1     -11.234   7.498  73.147  1.00  0.00    -0.318 C  
HETATM   29  C   UNL     1     -12.309   8.229  72.422  1.00  0.00    -0.385 C  
ENDBRANCH  22  27
ENDBRANCH   9  11
TORSDOF 2
ENDMDL
MODEL       77
REMARK 921   NORMALIZED FREE ENERGY PREDICTED BY IDOCK:   -5.06 KCAL/MOL
REMARK 922        TOTAL FREE ENERGY PREDICTED BY IDOCK:   -6.39 KCAL/MOL
REMARK 923 INTER-LIGAND FREE ENERGY PREDICTED BY IDOCK:   -5.58 KCAL/MOL
REMARK 924 INTRA-LIGAND FREE ENERGY PREDICTED BY IDOCK:   -0.81 KCAL/MOL
REMARK 927      BINDING AFFINITY PREDICTED BY RF-SCORE:    0.00 PKD
ROOT
HETATM    1  N   UNL     1     -11.231   7.147  68.045  1.00  0.00    -0.504 NA 
HETATM    2  C   UNL     1     -10.222   6.437  68.849  1.00  0.00    -0.184 C  
HETATM    3  H1  UNL     1     -10.790   7.745  67.346  1.00  0.00     0.000 HD 
HETATM    4  H2  UNL     1     -11.878   7.673  68.633  1.00  0.00     0.000 HD 
HETATM    5  C   UNL     1     -10.887   5.536  69.902  1.00  0.00    -0.298 C  
HETATM    6  C   UNL     1     -11.527   6.252  71.101  1.00  0.00    -0.362 C  
HETATM    7  C   UNL     1     -10.502   6.872  72.061  1.00  0.00    -0.229 C  
HETATM    8  C   UNL     1      -9.962   8.267  71.689  1.00  0.00    -0.212 C  
HETATM    9  N   UNL     1      -9.921   8.488  70.231  1.00  0.00    -0.181 NA 
HETATM   10  C   UNL     1      -9.211   7.408  69.500  1.00  0.00    -0.146 C  
ENDROOT
BRANCH   9  11
HETATM   11  C   UNL     1     -10.067   9.791  69.699  1.00  0.00    -0.229 A  
HETATM   12  C   UNL     1     -11.333  10.396  69.541  1.00  0.00    -0.265 A  
HETATM   13  C   UNL     1     -11.511  11.655  68.996  1.00  0.00    -0.356 A  
HETATM   14  F   UNL     1     -12.478   9.791  69.879  1.00  0.00    -0.026 F  
HETATM   15  C   UNL     1     -10.420  12.368  68.520  1.00  0.00    -0.244 A  
HETATM   16  C   UNL     1     -10.721  13.656  67.858  1.00  0.00    -0.247 C  
HETATM   17  C   UNL     1      -9.623  14.391  67.229  1.00  0.00    -0.227 C  
HETATM   18  O   UNL     1     -11.867  14.095  67.792  1.00  0.00    -0.350 OA 
HETATM   19  C   UNL     1      -9.820  15.629  66.455  1.00  0.00    -0.274 C  
HETATM   20  C   UNL     1      -8.396  13.872  67.390  1.00  0.00    -0.198 C  
HETATM   21  O   UNL     1     -11.098  16.055  66.375  1.00  0.00    -0.145 OA 
HETATM   22  N   UNL     1      -8.052  12.737  68.117  1.00  0.00    -0.150 NA 
HETATM   23  O   UNL     1      -8.898  16.237  65.914  1.00  0.00    -0.392 OA 
HETATM   24  C   UNL     1      -9.097  11.897  68.662  1.00  0.00    -0.042 A  
HETATM   25 CL   UNL     1      -7.391  10.187  69.992  1.00  0.00    -0.163 Cl 
HETATM   26  C   UNL     1      -8.949  10.634  69.335  1.00  0.00    -0.029 A  
BRANCH  22  27
HETATM   27  C   UNL     1      -6.614  12.369  68.119  1.00  0.00    -0.073 C  
HETATM   28  C   UNL     1      -5.616  13.234  67.375  1.00  0.00     0.095 C  
HETATM   29  C   UNL     1      -5.854  11.838  66.917  1.00  0.00    -0.143 C  
ENDBRANCH  22  27
ENDBRANCH   9  11
TORSDOF 2
ENDMDL
MODEL       78
REMARK 921   NORMALIZED FREE ENERGY PREDICTED BY IDOCK:   -5.05 KCAL/MOL
REMARK 922        TOTAL FREE ENERGY PREDICTED BY IDOCK:   -6.37 KCAL/MOL
REMARK 923 INTER-LIGAND FREE ENERGY PREDICTED BY IDOCK:   -5.66 KCAL/MOL
REMARK 924 INTRA-LIGAND FREE ENERGY PREDICTED BY IDOCK:   -0.72 KCAL/MOL
REMARK 927      BINDING AFFINITY PREDICTED BY RF-SCORE:    0.00 PKD
ROOT
HETATM    1  N   UNL     1     -12.409  10.829  68.659  1.00  0.00    -0.786 NA 
HETATM    2  C   UNL     1     -11.510  11.983  68.491  1.00  0.00    -0.293 C  
HETATM    3  H1  UNL     1     -12.307  10.415  69.586  1.00  0.00     0.000 HD 
HETATM    4  H2  UNL     1     -12.274  10.137  67.921  1.00  0.00     0.000 HD 
HETATM    5  C   UNL     1     -11.665  12.607  67.095  1.00  0.00    -0.438 C  
HETATM    6  C   UNL     1     -11.071  11.809  65.924  1.00  0.00    -0.355 C  
HETATM    7  C   UNL     1      -9.536  11.795  65.911  1.00  0.00    -0.249 C  
HETATM    8  C   UNL     1      -8.848  10.742  66.802  1.00  0.00    -0.142 C  
HETATM    9  N   UNL     1      -9.636  10.415  68.005  1.00  0.00    -0.142 NA 
HETATM   10  C   UNL     1     -10.037  11.617  68.781  1.00  0.00    -0.156 C  
ENDROOT
BRANCH   9  11
HETATM   11  C   UNL     1      -9.547   9.132  68.594  1.00  0.00    -0.152 A  
HETATM   12  C   UNL     1     -10.154   7.998  68.011  1.00  0.00    -0.194 A  
HETATM   13  C   UNL     1     -10.111   6.737  68.577  1.00  0.00    -0.166 A  
HETATM   14  F   UNL     1     -10.851   8.051  66.869  1.00  0.00    -0.400 F  
HETATM   15  C   UNL     1      -9.496   6.546  69.806  1.00  0.00    -0.155 A  
HETATM   16  C   UNL     1      -9.594   5.188  70.381  1.00  0.00    -0.187 C  
HETATM   17  C   UNL     1      -9.072   4.960  71.728  1.00  0.00    -0.166 C  
HETATM   18  O   UNL     1     -10.136   4.268  69.773  1.00  0.00    -0.182 OA 
HETATM   19  C   UNL     1      -9.207   3.677  72.441  1.00  0.00    -0.115 C  
HETATM   20  C   UNL     1      -8.450   6.001  72.305  1.00  0.00    -0.117 C  
HETATM   21  O   UNL     1      -9.842   2.706  71.751  1.00  0.00    -0.152 OA 
HETATM   22  N   UNL     1      -8.218   7.254  71.748  1.00  0.00    -0.103 NA 
HETATM   23  O   UNL     1      -8.780   3.492  73.579  1.00  0.00    -0.082 OA 
HETATM   24  C   UNL     1      -8.810   7.586  70.470  1.00  0.00    -0.147 A  
HETATM   25 CL   UNL     1      -7.594  10.052  70.251  1.00  0.00    -0.176 Cl 
HETATM   26  C   UNL     1      -8.784   8.855  69.792  1.00  0.00    -0.139 A  
BRANCH  22  27
HETATM   27  C   UNL     1      -7.517   8.236  72.612  1.00  0.00    -0.112 C  
HETATM   28  C   UNL     1      -6.415   7.769  73.541  1.00  0.00    -0.084 C  
HETATM   29  C   UNL     1      -7.668   8.325  74.120  1.00  0.00    -0.264 C  
ENDBRANCH  22  27
ENDBRANCH   9  11
TORSDOF 2
ENDMDL
MODEL       79
REMARK 921   NORMALIZED FREE ENERGY PREDICTED BY IDOCK:   -5.01 KCAL/MOL
REMARK 922        TOTAL FREE ENERGY PREDICTED BY IDOCK:   -6.33 KCAL/MOL
REMARK 923 INTER-LIGAND FREE ENERGY PREDICTED BY IDOCK:   -5.52 KCAL/MOL
REMARK 924 INTRA-LIGAND FREE ENERGY PREDICTED BY IDOCK:   -0.81 KCAL/MOL
REMARK 927      BINDING AFFINITY PREDICTED BY RF-SCORE:    0.00 PKD
ROOT
HETATM    1  N   UNL     1      -6.891   4.673  72.433  1.00  0.00    -0.054 NA 
HETATM    2  C   UNL     1      -7.382   3.288  72.329  1.00  0.00    -0.051 C  
HETATM    3  H1  UNL     1      -7.379   5.181  73.172  1.00  0.00     0.000 HD 
HETATM    4  H2  UNL     1      -6.951   5.161  71.539  1.00  0.00     0.000 HD 
HETATM    5  C   UNL     1      -6.648   2.523  71.217  1.00  0.00    -0.023 C  
HETATM    6  C   UNL     1      -7.017   2.900  69.774  1.00  0.00    -0.034 C  
HETATM    7  C   UNL     1      -8.424   2.443  69.365  1.00  0.00    -0.092 C  
HETATM    8  C   UNL     1      -9.593   3.366  69.762  1.00  0.00    -0.110 C  
HETATM    9  N   UNL     1      -9.330   4.109  71.010  1.00  0.00    -0.136 NA 
HETATM   10  C   UNL     1      -8.914   3.229  72.132  1.00  0.00    -0.099 C  
ENDROOT
BRANCH   9  11
HETATM   11  C   UNL     1      -9.909   5.381  71.222  1.00  0.00    -0.179 A  
HETATM   12  C   UNL     1     -10.908   5.595  72.197  1.00  0.00    -0.245 A  
HETATM   13  C   UNL     1     -11.516   6.820  72.407  1.00  0.00    -0.302 A  
HETATM   14  F   UNL     1     -11.376   4.621  72.987  1.00  0.00    -0.299 F  
HETATM   15  C   UNL     1     -11.194   7.904  71.604  1.00  0.00    -0.292 A  
HETATM   16  C   UNL     1     -11.972   9.140  71.833  1.00  0.00    -0.373 C  
HETATM   17  C   UNL     1     -11.761  10.275  70.934  1.00  0.00    -0.472 C  
HETATM   18  O   UNL     1     -12.811   9.217  72.727  1.00  0.00    -0.311 OA 
HETATM   19  C   UNL     1     -12.551  11.517  71.002  1.00  0.00    -0.357 C  
HETATM   20  C   UNL     1     -10.793  10.130  70.016  1.00  0.00    -0.307 C  
HETATM   21  O   UNL     1     -13.487  11.544  71.974  1.00  0.00    -0.405 OA 
HETATM   22  N   UNL     1      -9.947   9.038  69.852  1.00  0.00    -0.184 NA 
HETATM   23  O   UNL     1     -12.383  12.464  70.236  1.00  0.00    -0.275 OA 
HETATM   24  C   UNL     1     -10.178   7.836  70.625  1.00  0.00    -0.199 A  
HETATM   25 CL   UNL     1      -7.941   6.505  69.715  1.00  0.00    -0.118 Cl 
HETATM   26  C   UNL     1      -9.494   6.575  70.516  1.00  0.00    -0.166 A  
BRANCH  22  27
HETATM   27  C   UNL     1      -8.966   9.127  68.742  1.00  0.00    -0.136 C  
HETATM   28  C   UNL     1      -9.073  10.254  67.734  1.00  0.00    -0.138 C  
HETATM   29  C   UNL     1      -9.283   8.851  67.283  1.00  0.00    -0.164 C  
ENDBRANCH  22  27
ENDBRANCH   9  11
TORSDOF 2
ENDMDL
MODEL       80
REMARK 921   NORMALIZED FREE ENERGY PREDICTED BY IDOCK:   -4.97 KCAL/MOL
REMARK 922        TOTAL FREE ENERGY PREDICTED BY IDOCK:   -6.29 KCAL/MOL
REMARK 923 INTER-LIGAND FREE ENERGY PREDICTED BY IDOCK:   -5.62 KCAL/MOL
REMARK 924 INTRA-LIGAND FREE ENERGY PREDICTED BY IDOCK:   -0.67 KCAL/MOL
REMARK 927      BINDING AFFINITY PREDICTED BY RF-SCORE:    0.00 PKD
ROOT
HETATM    1  N   UNL     1     -10.288   4.404  65.986  1.00  0.00    -0.427 NA 
HETATM    2  C   UNL     1      -8.907   3.899  65.911  1.00  0.00    -0.125 C  
HETATM    3  H1  UNL     1     -10.465   5.100  65.260  1.00  0.00     0.000 HD 
HETATM    4  H2  UNL     1     -10.506   4.767  66.915  1.00  0.00     0.000 HD 
HETATM    5  C   UNL     1      -8.640   2.852  67.004  1.00  0.00    -0.115 C  
HETATM    6  C   UNL     1      -8.505   3.385  68.438  1.00  0.00    -0.104 C  
HETATM    7  C   UNL     1      -7.213   4.179  68.676  1.00  0.00    -0.055 C  
HETATM    8  C   UNL     1      -7.232   5.666  68.269  1.00  0.00    -0.075 C  
HETATM    9  N   UNL     1      -8.130   5.930  67.128  1.00  0.00    -0.102 NA 
HETATM   10  C   UNL     1      -7.868   5.043  65.966  1.00  0.00    -0.099 C  
ENDROOT
BRANCH   9  11
HETATM   11  C   UNL     1      -8.763   7.187  66.991  1.00  0.00    -0.123 A  
HETATM   12  C   UNL     1      -9.805   7.597  67.851  1.00  0.00    -0.157 A  
HETATM   13  C   UNL     1     -10.465   8.806  67.723  1.00  0.00    -0.292 A  
HETATM   14  F   UNL     1     -10.267   6.836  68.851  1.00  0.00    -0.153 F  
HETATM   15  C   UNL     1     -10.153   9.663  66.678  1.00  0.00    -0.307 A  
HETATM   16  C   UNL     1     -10.984  10.880  66.561  1.00  0.00    -0.121 C  
HETATM   17  C   UNL     1     -10.781  11.756  65.407  1.00  0.00    -0.333 C  
HETATM   18  O   UNL     1     -11.859  11.145  67.382  1.00  0.00    -0.570 OA 
HETATM   19  C   UNL     1     -11.618  12.938  65.133  1.00  0.00    -0.332 C  
HETATM   20  C   UNL     1      -9.774  11.426  64.584  1.00  0.00    -0.240 C  
HETATM   21  O   UNL     1     -12.591  13.170  66.040  1.00  0.00    -0.418 OA 
HETATM   22  N   UNL     1      -8.883  10.368  64.729  1.00  0.00    -0.183 NA 
HETATM   23  O   UNL     1     -11.456  13.665  64.155  1.00  0.00    -0.377 OA 
HETATM   24  C   UNL     1      -9.100   9.393  65.778  1.00  0.00    -0.200 A  
HETATM   25 CL   UNL     1      -6.782   7.977  65.301  1.00  0.00    -0.054 Cl 
HETATM   26  C   UNL     1      -8.366   8.178  66.014  1.00  0.00    -0.131 A  
BRANCH  22  27
HETATM   27  C   UNL     1      -7.865  10.215  63.660  1.00  0.00    -0.154 C  
HETATM   28  C   UNL     1      -8.045  10.941  62.342  1.00  0.00    -0.231 C  
HETATM   29  C   UNL     1      -8.078   9.453  62.364  1.00  0.00    -0.138 C  
ENDBRANCH  22  27
ENDBRANCH   9  11
TORSDOF 2
ENDMDL
MODEL       81
REMARK 921   NORMALIZED FREE ENERGY PREDICTED BY IDOCK:   -4.88 KCAL/MOL
REMARK 922        TOTAL FREE ENERGY PREDICTED BY IDOCK:   -6.19 KCAL/MOL
REMARK 923 INTER-LIGAND FREE ENERGY PREDICTED BY IDOCK:   -6.11 KCAL/MOL
REMARK 924 INTRA-LIGAND FREE ENERGY PREDICTED BY IDOCK:   -0.08 KCAL/MOL
REMARK 927      BINDING AFFINITY PREDICTED BY RF-SCORE:    0.00 PKD
ROOT
HETATM    1  N   UNL     1      -7.966  13.395  67.313  1.00  0.00    -0.306 NA 
HETATM    2  C   UNL     1      -9.050  14.241  66.785  1.00  0.00    -0.249 C  
HETATM    3  H1  UNL     1      -7.610  12.762  66.596  1.00  0.00     0.000 HD 
HETATM    4  H2  UNL     1      -8.258  12.889  68.150  1.00  0.00     0.000 HD 
HETATM    5  C   UNL     1      -9.585  15.195  67.864  1.00  0.00    -0.203 C  
HETATM    6  C   UNL     1     -10.444  14.559  68.967  1.00  0.00    -0.241 C  
HETATM    7  C   UNL     1     -11.825  14.098  68.478  1.00  0.00    -0.390 C  
HETATM    8  C   UNL     1     -11.893  12.710  67.811  1.00  0.00    -0.323 C  
HETATM    9  N   UNL     1     -10.643  12.354  67.114  1.00  0.00    -0.223 NA 
HETATM   10  C   UNL     1     -10.190  13.401  66.163  1.00  0.00    -0.301 C  
ENDROOT
BRANCH   9  11
HETATM   11  C   UNL     1     -10.254  11.000  66.988  1.00  0.00    -0.211 A  
HETATM   12  C   UNL     1      -9.664  10.498  65.807  1.00  0.00    -0.223 A  
HETATM   13  C   UNL     1      -9.301   9.173  65.642  1.00  0.00    -0.300 A  
HETATM   14  F   UNL     1      -9.430  11.257  64.729  1.00  0.00    -0.227 F  
HETATM   15  C   UNL     1      -9.563   8.250  66.644  1.00  0.00    -0.299 A  
HETATM   16  C   UNL     1      -9.238   6.841  66.333  1.00  0.00    -0.153 C  
HETATM   17  C   UNL     1      -9.606   5.809  67.304  1.00  0.00    -0.122 C  
HETATM   18  O   UNL     1      -8.709   6.520  65.272  1.00  0.00    -0.085 OA 
HETATM   19  C   UNL     1      -9.425   4.368  67.057  1.00  0.00    -0.175 C  
HETATM   20  C   UNL     1     -10.133   6.245  68.458  1.00  0.00    -0.157 C  
HETATM   21  O   UNL     1      -8.876   4.058  65.864  1.00  0.00    -0.117 OA 
HETATM   22  N   UNL     1     -10.332   7.566  68.846  1.00  0.00    -0.208 NA 
HETATM   23  O   UNL     1      -9.749   3.502  67.867  1.00  0.00    -0.157 OA 
HETATM   24  C   UNL     1     -10.103   8.631  67.891  1.00  0.00    -0.203 A  
HETATM   25 CL   UNL     1     -10.562  10.684  69.673  1.00  0.00    -0.271 Cl 
HETATM   26  C   UNL     1     -10.362  10.035  68.062  1.00  0.00    -0.198 A  
BRANCH  22  27
HETATM   27  C   UNL     1     -10.952   7.774  70.178  1.00  0.00    -0.241 C  
HETATM   28  C   UNL     1     -10.080   7.796  71.417  1.00  0.00    -0.211 C  
HETATM   29  C   UNL     1     -11.079   6.705  71.249  1.00  0.00    -0.312 C  
ENDBRANCH  22  27
ENDBRANCH   9  11
TORSDOF 2
ENDMDL
MODEL       82
REMARK 921   NORMALIZED FREE ENERGY PREDICTED BY IDOCK:   -4.87 KCAL/MOL
REMARK 922        TOTAL FREE ENERGY PREDICTED BY IDOCK:   -6.17 KCAL/MOL
REMARK 923 INTER-LIGAND FREE ENERGY PREDICTED BY IDOCK:   -6.02 KCAL/MOL
REMARK 924 INTRA-LIGAND FREE ENERGY PREDICTED BY IDOCK:   -0.15 KCAL/MOL
REMARK 927      BINDING AFFINITY PREDICTED BY RF-SCORE:    0.00 PKD
ROOT
HETATM    1  N   UNL     1     -10.232  17.032  65.342  1.00  0.00    -0.617 NA 
HETATM    2  C   UNL     1     -10.445  18.114  66.318  1.00  0.00    -0.361 C  
HETATM    3  H1  UNL     1     -10.984  16.343  65.387  1.00  0.00     0.000 HD 
HETATM    4  H2  UNL     1      -9.317  16.596  65.457  1.00  0.00     0.000 HD 
HETATM    5  C   UNL     1      -9.313  19.151  66.251  1.00  0.00    -0.342 C  
HETATM    6  C   UNL     1      -7.959  18.718  66.831  1.00  0.00    -0.262 C  
HETATM    7  C   UNL     1      -7.960  18.598  68.362  1.00  0.00    -0.351 C  
HETATM    8  C   UNL     1      -8.484  17.274  68.951  1.00  0.00    -0.175 C  
HETATM    9  N   UNL     1      -9.515  16.645  68.104  1.00  0.00    -0.223 NA 
HETATM   10  C   UNL     1     -10.623  17.571  67.755  1.00  0.00    -0.375 C  
ENDROOT
BRANCH   9  11
HETATM   11  C   UNL     1      -9.673  15.240  68.090  1.00  0.00    -0.212 A  
HETATM   12  C   UNL     1     -10.946  14.630  68.038  1.00  0.00    -0.267 A  
HETATM   13  C   UNL     1     -11.134  13.260  68.055  1.00  0.00    -0.282 A  
HETATM   14  F   UNL     1     -12.087  15.329  67.996  1.00  0.00    -0.323 F  
HETATM   15  C   UNL     1     -10.046  12.410  68.183  1.00  0.00    -0.224 A  
HETATM   16  C   UNL     1     -10.355  10.968  68.300  1.00  0.00    -0.178 C  
HETATM   17  C   UNL     1      -9.256  10.037  68.562  1.00  0.00    -0.141 C  
HETATM   18  O   UNL     1     -11.506  10.547  68.225  1.00  0.00    -0.296 OA 
HETATM   19  C   UNL     1      -9.457   8.597  68.798  1.00  0.00    -0.143 C  
HETATM   20  C   UNL     1      -8.024  10.568  68.580  1.00  0.00    -0.118 C  
HETATM   21  O   UNL     1     -10.741   8.184  68.744  1.00  0.00    -0.159 OA 
HETATM   22  N   UNL     1      -7.676  11.894  68.342  1.00  0.00    -0.125 NA 
HETATM   23  O   UNL     1      -8.534   7.819  69.032  1.00  0.00    -0.130 OA 
HETATM   24  C   UNL     1      -8.718  12.888  68.197  1.00  0.00    -0.190 A  
HETATM   25 CL   UNL     1      -7.012  14.968  67.588  1.00  0.00    -0.189 Cl 
HETATM   26  C   UNL     1      -8.562  14.313  68.065  1.00  0.00    -0.169 A  
BRANCH  22  27
HETATM   27  C   UNL     1      -6.232  12.222  68.441  1.00  0.00    -0.053 C  
HETATM   28  C   UNL     1      -5.218  11.108  68.606  1.00  0.00    -0.040 C  
HETATM   29  C   UNL     1      -5.400  12.096  69.704  1.00  0.00    -0.077 C  
ENDBRANCH  22  27
ENDBRANCH   9  11
TORSDOF 2
ENDMDL
MODEL       83
REMARK 921   NORMALIZED FREE ENERGY PREDICTED BY IDOCK:   -4.83 KCAL/MOL
REMARK 922        TOTAL FREE ENERGY PREDICTED BY IDOCK:   -6.13 KCAL/MOL
REMARK 923 INTER-LIGAND FREE ENERGY PREDICTED BY IDOCK:   -5.35 KCAL/MOL
REMARK 924 INTRA-LIGAND FREE ENERGY PREDICTED BY IDOCK:   -0.78 KCAL/MOL
REMARK 927      BINDING AFFINITY PREDICTED BY RF-SCORE:    0.00 PKD
ROOT
HETATM    1  N   UNL     1      -8.985   8.088  65.596  1.00  0.00    -0.355 NA 
HETATM    2  C   UNL     1      -9.427   9.481  65.413  1.00  0.00    -0.269 C  
HETATM    3  H1  UNL     1      -9.729   7.515  65.996  1.00  0.00     0.000 HD 
HETATM    4  H2  UNL     1      -8.130   8.035  66.151  1.00  0.00     0.000 HD 
HETATM    5  C   UNL     1      -8.307  10.343  64.810  1.00  0.00    -0.157 C  
HETATM    6  C   UNL     1      -7.145  10.699  65.748  1.00  0.00    -0.096 C  
HETATM    7  C   UNL     1      -7.529  11.701  66.846  1.00  0.00    -0.131 C  
HETATM    8  C   UNL     1      -8.193  11.120  68.109  1.00  0.00    -0.131 C  
HETATM    9  N   UNL     1      -8.984   9.907  67.828  1.00  0.00    -0.131 NA 
HETATM   10  C   UNL     1      -9.963  10.095  66.727  1.00  0.00    -0.211 C  
ENDROOT
BRANCH   9  11
HETATM   11  C   UNL     1      -9.143   8.910  68.817  1.00  0.00    -0.134 A  
HETATM   12  C   UNL     1      -8.135   7.959  69.090  1.00  0.00    -0.124 A  
HETATM   13  C   UNL     1      -8.273   6.953  70.029  1.00  0.00    -0.134 A  
HETATM   14  F   UNL     1      -6.965   7.931  68.440  1.00  0.00    -0.066 F  
HETATM   15  C   UNL     1      -9.466   6.805  70.721  1.00  0.00    -0.167 A  
HETATM   16  C   UNL     1      -9.556   5.637  71.624  1.00  0.00    -0.154 C  
HETATM   17  C   UNL     1     -10.833   5.361  72.284  1.00  0.00    -0.286 C  
HETATM   18  O   UNL     1      -8.604   4.880  71.796  1.00  0.00    -0.123 OA 
HETATM   19  C   UNL     1     -11.069   4.172  73.122  1.00  0.00    -0.173 C  
HETATM   20  C   UNL     1     -11.808   6.262  72.084  1.00  0.00    -0.315 C  
HETATM   21  O   UNL     1     -10.007   3.349  73.253  1.00  0.00    -0.110 OA 
HETATM   22  N   UNL     1     -11.726   7.442  71.352  1.00  0.00    -0.276 NA 
HETATM   23  O   UNL     1     -12.147   3.934  73.663  1.00  0.00     0.141 OA 
HETATM   24  C   UNL     1     -10.534   7.716  70.576  1.00  0.00    -0.220 A  
HETATM   25 CL   UNL     1     -11.322  10.233  69.770  1.00  0.00    -0.308 Cl 
HETATM   26  C   UNL     1     -10.307   8.812  69.672  1.00  0.00    -0.213 A  
BRANCH  22  27
HETATM   27  C   UNL     1     -12.964   8.256  71.276  1.00  0.00    -0.150 C  
HETATM   28  C   UNL     1     -13.547   8.857  72.539  1.00  0.00    -0.467 C  
HETATM   29  C   UNL     1     -14.320   7.820  71.803  1.00  0.00    -0.594 C  
ENDBRANCH  22  27
ENDBRANCH   9  11
TORSDOF 2
ENDMDL
MODEL       84
REMARK 921   NORMALIZED FREE ENERGY PREDICTED BY IDOCK:   -4.82 KCAL/MOL
REMARK 922        TOTAL FREE ENERGY PREDICTED BY IDOCK:   -6.12 KCAL/MOL
REMARK 923 INTER-LIGAND FREE ENERGY PREDICTED BY IDOCK:   -6.24 KCAL/MOL
REMARK 924 INTRA-LIGAND FREE ENERGY PREDICTED BY IDOCK:    0.12 KCAL/MOL
REMARK 927      BINDING AFFINITY PREDICTED BY RF-SCORE:    0.00 PKD
ROOT
HETATM    1  N   UNL     1     -10.293  17.204  65.223  1.00  0.00    -0.608 NA 
HETATM    2  C   UNL     1     -10.762  18.164  66.237  1.00  0.00    -0.137 C  
HETATM    3  H1  UNL     1     -10.741  16.295  65.342  1.00  0.00     0.000 HD 
HETATM    4  H2  UNL     1      -9.276  17.125  65.222  1.00  0.00     0.000 HD 
HETATM    5  C   UNL     1     -10.089  19.534  66.057  1.00  0.00    -0.521 C  
HETATM    6  C   UNL     1      -8.611  19.623  66.467  1.00  0.00    -0.387 C  
HETATM    7  C   UNL     1      -8.393  19.549  67.985  1.00  0.00    -0.355 C  
HETATM    8  C   UNL     1      -8.341  18.139  68.607  1.00  0.00    -0.275 C  
HETATM    9  N   UNL     1      -9.172  17.165  67.874  1.00  0.00    -0.238 NA 
HETATM   10  C   UNL     1     -10.569  17.629  67.674  1.00  0.00    -0.362 C  
ENDROOT
BRANCH   9  11
HETATM   11  C   UNL     1      -8.820  15.795  67.854  1.00  0.00    -0.175 A  
HETATM   12  C   UNL     1      -7.529  15.360  67.484  1.00  0.00    -0.189 A  
HETATM   13  C   UNL     1      -7.164  14.027  67.424  1.00  0.00    -0.117 A  
HETATM   14  F   UNL     1      -6.550  16.202  67.129  1.00  0.00    -0.178 F  
HETATM   15  C   UNL     1      -8.100  13.037  67.681  1.00  0.00    -0.172 A  
HETATM   16  C   UNL     1      -7.646  11.643  67.487  1.00  0.00    -0.128 C  
HETATM   17  C   UNL     1      -8.625  10.564  67.624  1.00  0.00    -0.118 C  
HETATM   18  O   UNL     1      -6.486  11.380  67.177  1.00  0.00    -0.085 OA 
HETATM   19  C   UNL     1      -8.310   9.150  67.354  1.00  0.00    -0.115 C  
HETATM   20  C   UNL     1      -9.856  10.929  68.014  1.00  0.00    -0.171 C  
HETATM   21  O   UNL     1      -7.036   8.911  66.980  1.00  0.00    -0.073 OA 
HETATM   22  N   UNL     1     -10.290  12.210  68.336  1.00  0.00    -0.225 NA 
HETATM   23  O   UNL     1      -9.138   8.246  67.455  1.00  0.00    -0.136 OA 
HETATM   24  C   UNL     1      -9.412  13.338  68.108  1.00  0.00    -0.222 A  
HETATM   25 CL   UNL     1     -11.097  15.213  69.225  1.00  0.00    -0.260 Cl 
HETATM   26  C   UNL     1      -9.716  14.736  68.265  1.00  0.00    -0.218 A  
BRANCH  22  27
HETATM   27  C   UNL     1     -11.717  12.342  68.724  1.00  0.00    -0.332 C  
HETATM   28  C   UNL     1     -12.088  12.470  70.188  1.00  0.00    -0.368 C  
HETATM   29  C   UNL     1     -12.525  11.267  69.429  1.00  0.00    -0.075 C  
ENDBRANCH  22  27
ENDBRANCH   9  11
TORSDOF 2
ENDMDL
MODEL       85
REMARK 921   NORMALIZED FREE ENERGY PREDICTED BY IDOCK:   -4.78 KCAL/MOL
REMARK 922        TOTAL FREE ENERGY PREDICTED BY IDOCK:   -6.07 KCAL/MOL
REMARK 923 INTER-LIGAND FREE ENERGY PREDICTED BY IDOCK:   -6.25 KCAL/MOL
REMARK 924 INTRA-LIGAND FREE ENERGY PREDICTED BY IDOCK:    0.18 KCAL/MOL
REMARK 927      BINDING AFFINITY PREDICTED BY RF-SCORE:    0.00 PKD
ROOT
HETATM    1  N   UNL     1     -12.402  12.276  65.467  1.00  0.00    -0.566 NA 
HETATM    2  C   UNL     1     -11.225  13.035  65.008  1.00  0.00    -0.297 C  
HETATM    3  H1  UNL     1     -12.618  12.488  66.441  1.00  0.00     0.000 HD 
HETATM    4  H2  UNL     1     -12.284  11.274  65.318  1.00  0.00     0.000 HD 
HETATM    5  C   UNL     1     -10.899  12.716  63.540  1.00  0.00    -0.373 C  
HETATM    6  C   UNL     1     -10.279  11.338  63.266  1.00  0.00    -0.417 C  
HETATM    7  C   UNL     1      -8.836  11.206  63.771  1.00  0.00     0.073 C  
HETATM    8  C   UNL     1      -8.655  10.841  65.258  1.00  0.00    -0.148 C  
HETATM    9  N   UNL     1      -9.750  11.353  66.104  1.00  0.00    -0.212 NA 
HETATM   10  C   UNL     1      -9.997  12.806  65.918  1.00  0.00    -0.266 C  
ENDROOT
BRANCH   9  11
HETATM   11  C   UNL     1     -10.123  10.669  67.284  1.00  0.00    -0.199 A  
HETATM   12  C   UNL     1     -10.677  11.341  68.395  1.00  0.00    -0.203 A  
HETATM   13  C   UNL     1     -11.023  10.705  69.574  1.00  0.00    -0.321 A  
HETATM   14  F   UNL     1     -10.888  12.663  68.416  1.00  0.00    -0.219 F  
HETATM   15  C   UNL     1     -10.780   9.348  69.730  1.00  0.00    -0.250 A  
HETATM   16  C   UNL     1     -11.084   8.780  71.061  1.00  0.00    -0.270 C  
HETATM   17  C   UNL     1     -10.733   7.383  71.321  1.00  0.00    -0.238 C  
HETATM   18  O   UNL     1     -11.582   9.461  71.955  1.00  0.00    -0.378 OA 
HETATM   19  C   UNL     1     -10.895   6.742  72.638  1.00  0.00    -0.250 C  
HETATM   20  C   UNL     1     -10.241   6.694  70.279  1.00  0.00    -0.188 C  
HETATM   21  O   UNL     1     -11.409   7.537  73.599  1.00  0.00    -0.090 OA 
HETATM   22  N   UNL     1     -10.065   7.151  68.978  1.00  0.00    -0.178 NA 
HETATM   23  O   UNL     1     -10.585   5.573  72.858  1.00  0.00    -0.200 OA 
HETATM   24  C   UNL     1     -10.277   8.552  68.679  1.00  0.00    -0.197 A  
HETATM   25 CL   UNL     1      -9.884   8.303  65.961  1.00  0.00    -0.140 Cl 
HETATM   26  C   UNL     1     -10.035   9.232  67.435  1.00  0.00    -0.199 A  
BRANCH  22  27
HETATM   27  C   UNL     1      -9.483   6.182  68.015  1.00  0.00    -0.113 C  
HETATM   28  C   UNL     1     -10.387   5.202  67.296  1.00  0.00    -0.225 C  
HETATM   29  C   UNL     1      -9.370   4.687  68.253  1.00  0.00    -0.182 C  
ENDBRANCH  22  27
ENDBRANCH   9  11
TORSDOF 2
ENDMDL
MODEL       86
REMARK 921   NORMALIZED FREE ENERGY PREDICTED BY IDOCK:   -4.74 KCAL/MOL
REMARK 922        TOTAL FREE ENERGY PREDICTED BY IDOCK:   -6.03 KCAL/MOL
REMARK 923 INTER-LIGAND FREE ENERGY PREDICTED BY IDOCK:   -5.27 KCAL/MOL
REMARK 924 INTRA-LIGAND FREE ENERGY PREDICTED BY IDOCK:   -0.76 KCAL/MOL
REMARK 927      BINDING AFFINITY PREDICTED BY RF-SCORE:    0.00 PKD
ROOT
HETATM    1  N   UNL     1      -9.521   9.737  63.033  1.00  0.00    -0.541 NA 
HETATM    2  C   UNL     1      -8.100   9.422  62.810  1.00  0.00    -0.142 C  
HETATM    3  H1  UNL     1      -9.661  10.741  63.151  1.00  0.00     0.000 HD 
HETATM    4  H2  UNL     1      -9.904   9.209  63.818  1.00  0.00     0.000 HD 
HETATM    5  C   UNL     1      -7.889   7.910  62.632  1.00  0.00    -0.142 C  
HETATM    6  C   UNL     1      -8.014   7.053  63.900  1.00  0.00    -0.069 C  
HETATM    7  C   UNL     1      -6.855   7.249  64.887  1.00  0.00    -0.050 C  
HETATM    8  C   UNL     1      -6.963   8.448  65.850  1.00  0.00    -0.068 C  
HETATM    9  N   UNL     1      -7.711   9.578  65.266  1.00  0.00    -0.107 NA 
HETATM   10  C   UNL     1      -7.199   9.985  63.933  1.00  0.00    -0.125 C  
ENDROOT
BRANCH   9  11
HETATM   11  C   UNL     1      -8.440  10.460  66.097  1.00  0.00    -0.147 A  
HETATM   12  C   UNL     1      -9.795  10.231  66.423  1.00  0.00    -0.217 A  
HETATM   13  C   UNL     1     -10.544  11.091  67.206  1.00  0.00    -0.287 A  
HETATM   14  F   UNL     1     -10.484   9.174  65.976  1.00  0.00    -0.313 F  
HETATM   15  C   UNL     1      -9.987  12.274  67.670  1.00  0.00    -0.199 A  
HETATM   16  C   UNL     1     -10.896  13.177  68.407  1.00  0.00    -0.262 C  
HETATM   17  C   UNL     1     -10.396  14.492  68.812  1.00  0.00    -0.243 C  
HETATM   18  O   UNL     1     -12.059  12.866  68.648  1.00  0.00    -0.286 OA 
HETATM   19  C   UNL     1     -11.240  15.512  69.460  1.00  0.00    -0.299 C  
HETATM   20  C   UNL     1      -9.101  14.736  68.557  1.00  0.00    -0.187 C  
HETATM   21  O   UNL     1     -12.521  15.142  69.671  1.00  0.00    -0.237 OA 
HETATM   22  N   UNL     1      -8.178  13.866  67.987  1.00  0.00    -0.149 NA 
HETATM   23  O   UNL     1     -10.822  16.622  69.785  1.00  0.00    -0.333 OA 
HETATM   24  C   UNL     1      -8.630  12.598  67.455  1.00  0.00    -0.189 A  
HETATM   25 CL   UNL     1      -6.112  11.669  66.820  1.00  0.00    -0.150 Cl 
HETATM   26  C   UNL     1      -7.858  11.623  66.731  1.00  0.00    -0.130 A  
BRANCH  22  27
HETATM   27  C   UNL     1      -6.804  14.396  67.800  1.00  0.00    -0.178 C  
HETATM   28  C   UNL     1      -5.929  14.656  69.009  1.00  0.00    -0.089 C  
HETATM   29  C   UNL     1      -6.362  15.802  68.164  1.00  0.00    -0.133 C  
ENDBRANCH  22  27
ENDBRANCH   9  11
TORSDOF 2
ENDMDL
MODEL       87
REMARK 921   NORMALIZED FREE ENERGY PREDICTED BY IDOCK:   -4.72 KCAL/MOL
REMARK 922        TOTAL FREE ENERGY PREDICTED BY IDOCK:   -6.01 KCAL/MOL
REMARK 923 INTER-LIGAND FREE ENERGY PREDICTED BY IDOCK:   -5.22 KCAL/MOL
REMARK 924 INTRA-LIGAND FREE ENERGY PREDICTED BY IDOCK:   -0.79 KCAL/MOL
REMARK 927      BINDING AFFINITY PREDICTED BY RF-SCORE:    0.00 PKD
ROOT
HETATM    1  N   UNL     1     -12.003  12.238  67.002  1.00  0.00    -0.590 NA 
HETATM    2  C   UNL     1     -11.387  13.033  65.926  1.00  0.00    -0.313 C  
HETATM    3  H1  UNL     1     -11.658  12.528  67.917  1.00  0.00     0.000 HD 
HETATM    4  H2  UNL     1     -11.873  11.237  66.852  1.00  0.00     0.000 HD 
HETATM    5  C   UNL     1     -11.908  12.596  64.548  1.00  0.00    -0.441 C  
HETATM    6  C   UNL     1     -11.393  11.248  64.023  1.00  0.00    -0.136 C  
HETATM    7  C   UNL     1      -9.912  11.273  63.621  1.00  0.00    -0.402 C  
HETATM    8  C   UNL     1      -8.886  11.072  64.753  1.00  0.00    -0.032 C  
HETATM    9  N   UNL     1      -9.366  11.581  66.051  1.00  0.00    -0.220 NA 
HETATM   10  C   UNL     1      -9.843  12.986  65.983  1.00  0.00    -0.255 C  
ENDROOT
BRANCH   9  11
HETATM   11  C   UNL     1      -8.928  10.991  67.259  1.00  0.00    -0.138 A  
HETATM   12  C   UNL     1      -8.058  11.660  68.147  1.00  0.00    -0.148 A  
HETATM   13  C   UNL     1      -7.587  11.098  69.320  1.00  0.00    -0.057 A  
HETATM   14  F   UNL     1      -7.586  12.892  67.915  1.00  0.00    -0.094 F  
HETATM   15  C   UNL     1      -7.922   9.793  69.649  1.00  0.00    -0.152 A  
HETATM   16  C   UNL     1      -7.286   9.243  70.865  1.00  0.00    -0.103 C  
HETATM   17  C   UNL     1      -7.506   7.833  71.192  1.00  0.00    -0.078 C  
HETATM   18  O   UNL     1      -6.553   9.927  71.575  1.00  0.00    -0.311 OA 
HETATM   19  C   UNL     1      -6.842   7.153  72.319  1.00  0.00    -0.060 C  
HETATM   20  C   UNL     1      -8.359   7.169  70.398  1.00  0.00    -0.128 C  
HETATM   21  O   UNL     1      -6.016   7.932  73.048  1.00  0.00    -0.051 OA 
HETATM   22  N   UNL     1      -9.081   7.681  69.325  1.00  0.00    -0.146 NA 
HETATM   23  O   UNL     1      -7.017   5.965  72.583  1.00  0.00    -0.076 OA 
HETATM   24  C   UNL     1      -8.822   9.031  68.872  1.00  0.00    -0.139 A  
HETATM   25 CL   UNL     1     -10.826   9.061  66.978  1.00  0.00    -0.168 Cl 
HETATM   26  C   UNL     1      -9.375   9.694  67.721  1.00  0.00    -0.127 A  
BRANCH  22  27
HETATM   27  C   UNL     1      -9.948   6.720  68.598  1.00  0.00    -0.146 C  
HETATM   28  C   UNL     1     -11.271   6.296  69.202  1.00  0.00    -0.439 C  
HETATM   29  C   UNL     1     -10.195   5.284  69.024  1.00  0.00    -0.269 C  
ENDBRANCH  22  27
ENDBRANCH   9  11
TORSDOF 2
ENDMDL
MODEL       88
REMARK 921   NORMALIZED FREE ENERGY PREDICTED BY IDOCK:   -4.68 KCAL/MOL
REMARK 922        TOTAL FREE ENERGY PREDICTED BY IDOCK:   -5.96 KCAL/MOL
REMARK 923 INTER-LIGAND FREE ENERGY PREDICTED BY IDOCK:   -5.19 KCAL/MOL
REMARK 924 INTRA-LIGAND FREE ENERGY PREDICTED BY IDOCK:   -0.78 KCAL/MOL
REMARK 927      BINDING AFFINITY PREDICTED BY RF-SCORE:    0.00 PKD
ROOT
HETATM    1  N   UNL     1      -5.902  10.702  66.262  1.00  0.00    -0.091 NA 
HETATM    2  C   UNL     1      -5.599   9.799  67.386  1.00  0.00    -0.039 C  
HETATM    3  H1  UNL     1      -5.423  11.596  66.369  1.00  0.00     0.000 HD 
HETATM    4  H2  UNL     1      -6.907  10.827  66.140  1.00  0.00     0.000 HD 
HETATM    5  C   UNL     1      -6.320   8.452  67.224  1.00  0.00    -0.057 C  
HETATM    6  C   UNL     1      -7.836   8.459  67.468  1.00  0.00    -0.099 C  
HETATM    7  C   UNL     1      -8.216   8.654  68.943  1.00  0.00    -0.123 C  
HETATM    8  C   UNL     1      -8.262  10.106  69.457  1.00  0.00    -0.168 C  
HETATM    9  N   UNL     1      -7.305  10.986  68.760  1.00  0.00    -0.102 NA 
HETATM   10  C   UNL     1      -5.921  10.447  68.752  1.00  0.00    -0.040 C  
ENDROOT
BRANCH   9  11
HETATM   11  C   UNL     1      -7.579  12.365  68.607  1.00  0.00    -0.082 A  
HETATM   12  C   UNL     1      -6.864  13.353  69.317  1.00  0.00    -0.036 A  
HETATM   13  C   UNL     1      -7.129  14.707  69.213  1.00  0.00    -0.150 A  
HETATM   14  F   UNL     1      -5.882  13.063  70.180  1.00  0.00    -0.109 F  
HETATM   15  C   UNL     1      -8.178  15.151  68.421  1.00  0.00    -0.145 A  
HETATM   16  C   UNL     1      -8.452  16.604  68.457  1.00  0.00    -0.233 C  
HETATM   17  C   UNL     1      -9.621  17.112  67.739  1.00  0.00    -0.256 C  
HETATM   18  O   UNL     1      -7.749  17.377  69.103  1.00  0.00    -0.188 OA 
HETATM   19  C   UNL     1     -10.050  18.522  67.788  1.00  0.00    -0.364 C  
HETATM   20  C   UNL     1     -10.308  16.213  67.017  1.00  0.00    -0.290 C  
HETATM   21  O   UNL     1      -9.271  19.328  68.540  1.00  0.00    -0.353 OA 
HETATM   22  N   UNL     1     -10.008  14.866  66.847  1.00  0.00    -0.239 NA 
HETATM   23  O   UNL     1     -11.041  18.943  67.196  1.00  0.00    -0.321 OA 
HETATM   24  C   UNL     1      -8.939  14.271  67.622  1.00  0.00    -0.194 A  
HETATM   25 CL   UNL     1      -9.078  11.800  66.406  1.00  0.00    -0.212 Cl 
HETATM   26  C   UNL     1      -8.557  12.885  67.675  1.00  0.00    -0.182 A  
BRANCH  22  27
HETATM   27  C   UNL     1     -10.947  14.085  66.004  1.00  0.00    -0.298 C  
HETATM   28  C   UNL     1     -11.747  14.785  64.924  1.00  0.00    -0.390 C  
HETATM   29  C   UNL     1     -12.461  14.178  66.080  1.00  0.00    -0.426 C  
ENDBRANCH  22  27
ENDBRANCH   9  11
TORSDOF 2
ENDMDL
MODEL       89
REMARK 921   NORMALIZED FREE ENERGY PREDICTED BY IDOCK:   -4.66 KCAL/MOL
REMARK 922        TOTAL FREE ENERGY PREDICTED BY IDOCK:   -5.95 KCAL/MOL
REMARK 923 INTER-LIGAND FREE ENERGY PREDICTED BY IDOCK:   -5.83 KCAL/MOL
REMARK 924 INTRA-LIGAND FREE ENERGY PREDICTED BY IDOCK:   -0.11 KCAL/MOL
REMARK 927      BINDING AFFINITY PREDICTED BY RF-SCORE:    0.00 PKD
ROOT
HETATM    1  N   UNL     1      -8.099  19.178  68.870  1.00  0.00    -0.329 NA 
HETATM    2  C   UNL     1      -8.190  19.795  67.536  1.00  0.00    -0.312 C  
HETATM    3  H1  UNL     1      -7.215  18.681  68.986  1.00  0.00     0.000 HD 
HETATM    4  H2  UNL     1      -8.898  18.572  69.058  1.00  0.00     0.000 HD 
HETATM    5  C   UNL     1      -9.521  20.544  67.361  1.00  0.00    -0.551 C  
HETATM    6  C   UNL     1     -10.772  19.672  67.185  1.00  0.00    -0.587 C  
HETATM    7  C   UNL     1     -10.829  18.950  65.831  1.00  0.00    -0.229 C  
HETATM    8  C   UNL     1     -10.054  17.622  65.724  1.00  0.00    -0.085 C  
HETATM    9  N   UNL     1      -8.862  17.589  66.593  1.00  0.00    -0.252 NA 
HETATM   10  C   UNL     1      -7.974  18.764  66.404  1.00  0.00    -0.282 C  
ENDROOT
BRANCH   9  11
HETATM   11  C   UNL     1      -8.392  16.363  67.118  1.00  0.00    -0.187 A  
HETATM   12  C   UNL     1      -7.014  16.085  67.248  1.00  0.00    -0.205 A  
HETATM   13  C   UNL     1      -6.522  14.884  67.728  1.00  0.00    -0.183 A  
HETATM   14  F   UNL     1      -6.058  16.952  66.889  1.00  0.00    -0.161 F  
HETATM   15  C   UNL     1      -7.395  13.858  68.059  1.00  0.00    -0.141 A  
HETATM   16  C   UNL     1      -6.773  12.578  68.460  1.00  0.00    -0.078 C  
HETATM   17  C   UNL     1      -7.641  11.424  68.700  1.00  0.00    -0.130 C  
HETATM   18  O   UNL     1      -5.554  12.454  68.554  1.00  0.00    -0.053 OA 
HETATM   19  C   UNL     1      -7.128  10.076  69.003  1.00  0.00    -0.069 C  
HETATM   20  C   UNL     1      -8.961  11.653  68.626  1.00  0.00    -0.084 C  
HETATM   21  O   UNL     1      -5.783   9.978  69.060  1.00  0.00    -0.035 OA 
HETATM   22  N   UNL     1      -9.591  12.870  68.384  1.00  0.00    -0.208 NA 
HETATM   23  O   UNL     1      -7.859   9.106  69.190  1.00  0.00    -0.089 OA 
HETATM   24  C   UNL     1      -8.796  14.023  68.020  1.00  0.00    -0.181 A  
HETATM   25 CL   UNL     1     -10.906  15.798  67.992  1.00  0.00    -0.299 Cl 
HETATM   26  C   UNL     1      -9.264  15.324  67.622  1.00  0.00    -0.187 A  
BRANCH  22  27
HETATM   27  C   UNL     1     -11.075  12.844  68.338  1.00  0.00    -0.262 C  
HETATM   28  C   UNL     1     -11.816  11.580  68.724  1.00  0.00    -0.394 C  
HETATM   29  C   UNL     1     -11.895  12.071  67.321  1.00  0.00    -0.257 C  
ENDBRANCH  22  27
ENDBRANCH   9  11
TORSDOF 2
ENDMDL
MODEL       90
REMARK 921   NORMALIZED FREE ENERGY PREDICTED BY IDOCK:   -4.56 KCAL/MOL
REMARK 922        TOTAL FREE ENERGY PREDICTED BY IDOCK:   -5.83 KCAL/MOL
REMARK 923 INTER-LIGAND FREE ENERGY PREDICTED BY IDOCK:   -5.22 KCAL/MOL
REMARK 924 INTRA-LIGAND FREE ENERGY PREDICTED BY IDOCK:   -0.61 KCAL/MOL
REMARK 927      BINDING AFFINITY PREDICTED BY RF-SCORE:    0.00 PKD
ROOT
HETATM    1  N   UNL     1     -10.195  13.677  68.270  1.00  0.00    -0.238 NA 
HETATM    2  C   UNL     1      -9.992  14.267  66.936  1.00  0.00    -0.263 C  
HETATM    3  H1  UNL     1      -9.428  13.049  68.515  1.00  0.00     0.000 HD 
HETATM    4  H2  UNL     1     -11.099  13.211  68.341  1.00  0.00     0.000 HD 
HETATM    5  C   UNL     1     -11.145  15.213  66.567  1.00  0.00    -0.305 C  
HETATM    6  C   UNL     1     -12.483  14.547  66.212  1.00  0.00    -0.126 C  
HETATM    7  C   UNL     1     -12.459  13.809  64.866  1.00  0.00    -0.420 C  
HETATM    8  C   UNL     1     -11.901  12.373  64.875  1.00  0.00    -0.386 C  
HETATM    9  N   UNL     1     -10.868  12.173  65.909  1.00  0.00    -0.268 NA 
HETATM   10  C   UNL     1      -9.784  13.186  65.850  1.00  0.00    -0.178 C  
ENDROOT
BRANCH   9  11
HETATM   11  C   UNL     1     -10.682  10.901  66.499  1.00  0.00    -0.209 A  
HETATM   12  C   UNL     1     -11.283  10.552  67.728  1.00  0.00    -0.273 A  
HETATM   13  C   UNL     1     -11.096   9.328  68.346  1.00  0.00     0.068 A  
HETATM   14  F   UNL     1     -12.068  11.388  68.420  1.00  0.00    -0.365 F  
HETATM   15  C   UNL     1     -10.238   8.392  67.789  1.00  0.00    -0.283 A  
HETATM   16  C   UNL     1     -10.018   7.159  68.575  1.00  0.00    -0.159 C  
HETATM   17  C   UNL     1      -9.030   6.191  68.096  1.00  0.00    -0.114 C  
HETATM   18  O   UNL     1     -10.612   6.953  69.631  1.00  0.00    -0.212 OA 
HETATM   19  C   UNL     1      -8.655   4.981  68.848  1.00  0.00    -0.086 C  
HETATM   20  C   UNL     1      -8.463   6.464  66.911  1.00  0.00    -0.110 C  
HETATM   21  O   UNL     1      -9.304   4.814  70.020  1.00  0.00    -0.122 OA 
HETATM   22  N   UNL     1      -8.737   7.542  66.076  1.00  0.00    -0.157 NA 
HETATM   23  O   UNL     1      -7.814   4.177  68.451  1.00  0.00    -0.073 OA 
HETATM   24  C   UNL     1      -9.613   8.598  66.540  1.00  0.00    -0.237 A  
HETATM   25 CL   UNL     1      -9.617   9.997  64.164  1.00  0.00    -0.332 Cl 
HETATM   26  C   UNL     1      -9.923   9.837  65.878  1.00  0.00    -0.275 A  
BRANCH  22  27
HETATM   27  C   UNL     1      -7.950   7.617  64.820  1.00  0.00    -0.137 C  
HETATM   28  C   UNL     1      -8.215   6.624  63.706  1.00  0.00     0.082 C  
HETATM   29  C   UNL     1      -6.897   6.608  64.397  1.00  0.00    -0.046 C  
ENDBRANCH  22  27
ENDBRANCH   9  11
TORSDOF 2
ENDMDL
MODEL       91
REMARK 921   NORMALIZED FREE ENERGY PREDICTED BY IDOCK:   -4.54 KCAL/MOL
REMARK 922        TOTAL FREE ENERGY PREDICTED BY IDOCK:   -5.80 KCAL/MOL
REMARK 923 INTER-LIGAND FREE ENERGY PREDICTED BY IDOCK:   -6.14 KCAL/MOL
REMARK 924 INTRA-LIGAND FREE ENERGY PREDICTED BY IDOCK:    0.34 KCAL/MOL
REMARK 927      BINDING AFFINITY PREDICTED BY RF-SCORE:    0.00 PKD
ROOT
HETATM    1  N   UNL     1      -8.668  14.335  68.689  1.00  0.00    -0.249 NA 
HETATM    2  C   UNL     1      -9.706  15.299  68.286  1.00  0.00    -0.210 C  
HETATM    3  H1  UNL     1      -8.495  13.652  67.952  1.00  0.00     0.000 HD 
HETATM    4  H2  UNL     1      -8.897  13.883  69.575  1.00  0.00     0.000 HD 
HETATM    5  C   UNL     1      -9.966  16.329  69.396  1.00  0.00    -0.232 C  
HETATM    6  C   UNL     1     -10.731  15.823  70.628  1.00  0.00    -0.199 C  
HETATM    7  C   UNL     1     -12.212  15.527  70.350  1.00  0.00    -0.443 C  
HETATM    8  C   UNL     1     -12.539  14.147  69.746  1.00  0.00    -0.103 C  
HETATM    9  N   UNL     1     -11.451  13.628  68.896  1.00  0.00    -0.281 NA 
HETATM   10  C   UNL     1     -11.014  14.595  67.857  1.00  0.00    -0.277 C  
ENDROOT
BRANCH   9  11
HETATM   11  C   UNL     1     -11.248  12.234  68.764  1.00  0.00    -0.265 A  
HETATM   12  C   UNL     1     -11.576  11.329  69.797  1.00  0.00    -0.333 A  
HETATM   13  C   UNL     1     -11.361   9.966  69.710  1.00  0.00    -0.241 A  
HETATM   14  F   UNL     1     -12.100  11.717  70.967  1.00  0.00    -0.429 F  
HETATM   15  C   UNL     1     -10.744   9.428  68.590  1.00  0.00    -0.196 A  
HETATM   16  C   UNL     1     -10.460   7.978  68.635  1.00  0.00    -0.167 C  
HETATM   17  C   UNL     1      -9.701   7.381  67.535  1.00  0.00    -0.186 C  
HETATM   18  O   UNL     1     -10.808   7.281  69.585  1.00  0.00    -0.238 OA 
HETATM   19  C   UNL     1      -9.272   5.971  67.522  1.00  0.00    -0.111 C  
HETATM   20  C   UNL     1      -9.403   8.196  66.512  1.00  0.00    -0.206 C  
HETATM   21  O   UNL     1      -9.643   5.253  68.603  1.00  0.00    -0.122 OA 
HETATM   22  N   UNL     1      -9.766   9.531  66.367  1.00  0.00    -0.212 NA 
HETATM   23  O   UNL     1      -8.622   5.475  66.604  1.00  0.00    -0.115 OA 
HETATM   24  C   UNL     1     -10.411  10.217  67.468  1.00  0.00    -0.230 A  
HETATM   25 CL   UNL     1     -10.841  12.569  66.094  1.00  0.00    -0.294 Cl 
HETATM   26  C   UNL     1     -10.754  11.611  67.555  1.00  0.00    -0.215 A  
BRANCH  22  27
HETATM   27  C   UNL     1      -9.289  10.212  65.138  1.00  0.00    -0.235 C  
HETATM   28  C   UNL     1      -8.719   9.393  63.998  1.00  0.00    -0.225 C  
HETATM   29  C   UNL     1      -7.832  10.339  64.729  1.00  0.00    -0.130 C  
ENDBRANCH  22  27
ENDBRANCH   9  11
TORSDOF 2
ENDMDL
MODEL       92
REMARK 921   NORMALIZED FREE ENERGY PREDICTED BY IDOCK:   -4.41 KCAL/MOL
REMARK 922        TOTAL FREE ENERGY PREDICTED BY IDOCK:   -5.67 KCAL/MOL
REMARK 923 INTER-LIGAND FREE ENERGY PREDICTED BY IDOCK:   -5.47 KCAL/MOL
REMARK 924 INTRA-LIGAND FREE ENERGY PREDICTED BY IDOCK:   -0.19 KCAL/MOL
REMARK 927      BINDING AFFINITY PREDICTED BY RF-SCORE:    0.00 PKD
ROOT
HETATM    1  N   UNL     1     -11.141   5.086  73.481  1.00  0.00    -0.346 NA 
HETATM    2  C   UNL     1     -10.278   3.966  73.070  1.00  0.00    -0.160 C  
HETATM    3  H1  UNL     1     -11.750   5.381  72.717  1.00  0.00     0.000 HD 
HETATM    4  H2  UNL     1     -10.596   5.866  73.849  1.00  0.00     0.000 HD 
HETATM    5  C   UNL     1      -9.361   3.522  74.220  1.00  0.00    -0.111 C  
HETATM    6  C   UNL     1      -8.197   4.463  74.564  1.00  0.00    -0.090 C  
HETATM    7  C   UNL     1      -7.094   4.487  73.496  1.00  0.00    -0.067 C  
HETATM    8  C   UNL     1      -7.319   5.423  72.292  1.00  0.00    -0.094 C  
HETATM    9  N   UNL     1      -8.747   5.592  71.964  1.00  0.00    -0.131 NA 
HETATM   10  C   UNL     1      -9.462   4.300  71.800  1.00  0.00    -0.145 C  
ENDROOT
BRANCH   9  11
HETATM   11  C   UNL     1      -9.210   6.791  71.374  1.00  0.00    -0.153 A  
HETATM   12  C   UNL     1      -9.783   7.829  72.142  1.00  0.00    -0.185 A  
HETATM   13  C   UNL     1     -10.272   9.000  71.591  1.00  0.00    -0.418 A  
HETATM   14  F   UNL     1      -9.929   7.758  73.470  1.00  0.00    -0.334 F  
HETATM   15  C   UNL     1     -10.267   9.178  70.216  1.00  0.00    -0.253 A  
HETATM   16  C   UNL     1     -10.908  10.413  69.715  1.00  0.00    -0.292 C  
HETATM   17  C   UNL     1     -11.041  10.594  68.269  1.00  0.00    -0.334 C  
HETATM   18  O   UNL     1     -11.362  11.260  70.481  1.00  0.00    -0.150 OA 
HETATM   19  C   UNL     1     -11.752  11.733  67.660  1.00  0.00    -0.250 C  
HETATM   20  C   UNL     1     -10.475   9.651  67.501  1.00  0.00    -0.262 C  
HETATM   21  O   UNL     1     -12.267  12.618  68.538  1.00  0.00    -0.178 OA 
HETATM   22  N   UNL     1      -9.748   8.545  67.927  1.00  0.00    -0.156 NA 
HETATM   23  O   UNL     1     -11.875  11.875  66.445  1.00  0.00    -0.561 OA 
HETATM   24  C   UNL     1      -9.680   8.239  69.341  1.00  0.00    -0.177 A  
HETATM   25 CL   UNL     1      -7.930   6.125  69.067  1.00  0.00    -0.107 Cl 
HETATM   26  C   UNL     1      -9.082   7.088  69.964  1.00  0.00    -0.145 A  
BRANCH  22  27
HETATM   27  C   UNL     1      -9.241   7.642  66.864  1.00  0.00    -0.145 C  
HETATM   28  C   UNL     1      -7.777   7.685  66.477  1.00  0.00    -0.097 C  
HETATM   29  C   UNL     1      -8.805   8.093  65.481  1.00  0.00    -0.130 C  
ENDBRANCH  22  27
ENDBRANCH   9  11
TORSDOF 2
ENDMDL
MODEL       93
REMARK 921   NORMALIZED FREE ENERGY PREDICTED BY IDOCK:   -4.40 KCAL/MOL
REMARK 922        TOTAL FREE ENERGY PREDICTED BY IDOCK:   -5.65 KCAL/MOL
REMARK 923 INTER-LIGAND FREE ENERGY PREDICTED BY IDOCK:   -5.57 KCAL/MOL
REMARK 924 INTRA-LIGAND FREE ENERGY PREDICTED BY IDOCK:   -0.08 KCAL/MOL
REMARK 927      BINDING AFFINITY PREDICTED BY RF-SCORE:    0.00 PKD
ROOT
HETATM    1  N   UNL     1     -12.516  10.892  68.612  1.00  0.00    -0.651 NA 
HETATM    2  C   UNL     1     -11.500  11.958  68.574  1.00  0.00    -0.295 C  
HETATM    3  H1  UNL     1     -12.546  10.446  69.530  1.00  0.00     0.000 HD 
HETATM    4  H2  UNL     1     -12.372  10.210  67.868  1.00  0.00     0.000 HD 
HETATM    5  C   UNL     1     -11.454  12.630  67.193  1.00  0.00    -0.406 C  
HETATM    6  C   UNL     1     -10.822  11.810  66.059  1.00  0.00    -0.343 C  
HETATM    7  C   UNL     1      -9.302  11.647  66.195  1.00  0.00    -0.237 C  
HETATM    8  C   UNL     1      -8.809  10.509  67.111  1.00  0.00    -0.136 C  
HETATM    9  N   UNL     1      -9.741  10.229  68.220  1.00  0.00    -0.140 NA 
HETATM   10  C   UNL     1     -10.104  11.443  68.994  1.00  0.00    -0.090 C  
ENDROOT
BRANCH   9  11
HETATM   11  C   UNL     1      -9.833   8.928  68.768  1.00  0.00    -0.173 A  
HETATM   12  C   UNL     1     -10.025   8.711  70.150  1.00  0.00    -0.182 A  
HETATM   13  C   UNL     1     -10.087   7.452  70.720  1.00  0.00    -0.190 A  
HETATM   14  F   UNL     1     -10.134   9.708  71.036  1.00  0.00    -0.340 F  
HETATM   15  C   UNL     1      -9.903   6.323  69.936  1.00  0.00    -0.198 A  
HETATM   16  C   UNL     1      -9.880   5.029  70.651  1.00  0.00    -0.212 C  
HETATM   17  C   UNL     1      -9.566   3.817  69.893  1.00  0.00    -0.255 C  
HETATM   18  O   UNL     1     -10.075   4.958  71.862  1.00  0.00    -0.186 OA 
HETATM   19  C   UNL     1      -9.414   2.491  70.516  1.00  0.00    -0.119 C  
HETATM   20  C   UNL     1      -9.416   3.972  68.568  1.00  0.00    -0.151 C  
HETATM   21  O   UNL     1      -9.600   2.465  71.853  1.00  0.00    -0.109 OA 
HETATM   22  N   UNL     1      -9.561   5.146  67.837  1.00  0.00    -0.130 NA 
HETATM   23  O   UNL     1      -9.136   1.477  69.880  1.00  0.00    -0.068 OA 
HETATM   24  C   UNL     1      -9.751   6.400  68.535  1.00  0.00    -0.132 A  
HETATM   25 CL   UNL     1     -10.112   7.914  66.258  1.00  0.00    -0.136 Cl 
HETATM   26  C   UNL     1      -9.804   7.722  67.969  1.00  0.00    -0.163 A  
BRANCH  22  27
HETATM   27  C   UNL     1      -9.321   5.044  66.376  1.00  0.00    -0.145 C  
HETATM   28  C   UNL     1     -10.417   4.520  65.470  1.00  0.00    -0.241 C  
HETATM   29  C   UNL     1      -9.157   3.741  65.614  1.00  0.00    -0.147 C  
ENDBRANCH  22  27
ENDBRANCH   9  11
TORSDOF 2
ENDMDL
MODEL       94
REMARK 921   NORMALIZED FREE ENERGY PREDICTED BY IDOCK:   -4.38 KCAL/MOL
REMARK 922        TOTAL FREE ENERGY PREDICTED BY IDOCK:   -5.63 KCAL/MOL
REMARK 923 INTER-LIGAND FREE ENERGY PREDICTED BY IDOCK:   -4.84 KCAL/MOL
REMARK 924 INTRA-LIGAND FREE ENERGY PREDICTED BY IDOCK:   -0.78 KCAL/MOL
REMARK 927      BINDING AFFINITY PREDICTED BY RF-SCORE:    0.00 PKD
ROOT
HETATM    1  N   UNL     1      -5.797   8.277  65.185  1.00  0.00    -0.044 NA 
HETATM    2  C   UNL     1      -5.958   7.117  66.078  1.00  0.00    -0.036 C  
HETATM    3  H1  UNL     1      -5.362   9.060  65.674  1.00  0.00     0.000 HD 
HETATM    4  H2  UNL     1      -6.682   8.547  64.755  1.00  0.00     0.000 HD 
HETATM    5  C   UNL     1      -6.612   5.938  65.341  1.00  0.00    -0.043 C  
HETATM    6  C   UNL     1      -8.111   6.075  65.034  1.00  0.00    -0.133 C  
HETATM    7  C   UNL     1      -9.001   5.982  66.282  1.00  0.00    -0.156 C  
HETATM    8  C   UNL     1      -9.186   7.278  67.095  1.00  0.00    -0.135 C  
HETATM    9  N   UNL     1      -8.011   8.167  67.021  1.00  0.00    -0.103 NA 
HETATM   10  C   UNL     1      -6.740   7.479  67.361  1.00  0.00    -0.067 C  
ENDROOT
BRANCH   9  11
HETATM   11  C   UNL     1      -8.165   9.568  67.134  1.00  0.00    -0.113 A  
HETATM   12  C   UNL     1      -7.663  10.289  68.239  1.00  0.00    -0.092 A  
HETATM   13  C   UNL     1      -7.825  11.655  68.394  1.00  0.00    -0.137 A  
HETATM   14  F   UNL     1      -7.010   9.708  69.253  1.00  0.00    -0.050 F  
HETATM   15  C   UNL     1      -8.556  12.378  67.464  1.00  0.00    -0.177 A  
HETATM   16  C   UNL     1      -8.765  13.810  67.769  1.00  0.00    -0.182 C  
HETATM   17  C   UNL     1      -9.632  14.593  66.888  1.00  0.00    -0.253 C  
HETATM   18  O   UNL     1      -8.264  14.338  68.759  1.00  0.00    -0.145 OA 
HETATM   19  C   UNL     1      -9.993  15.998  67.151  1.00  0.00    -0.249 C  
HETATM   20  C   UNL     1     -10.099  13.958  65.802  1.00  0.00    -0.320 C  
HETATM   21  O   UNL     1      -9.452  16.526  68.269  1.00  0.00    -0.211 OA 
HETATM   22  N   UNL     1      -9.820  12.654  65.406  1.00  0.00    -0.195 NA 
HETATM   23  O   UNL     1     -10.734  16.649  66.417  1.00  0.00    -0.245 OA 
HETATM   24  C   UNL     1      -9.070  11.787  66.290  1.00  0.00    -0.206 A  
HETATM   25 CL   UNL     1      -8.931   9.672  64.525  1.00  0.00    -0.263 Cl 
HETATM   26  C   UNL     1      -8.783  10.388  66.113  1.00  0.00    -0.152 A  
BRANCH  22  27
HETATM   27  C   UNL     1     -10.484  12.189  64.163  1.00  0.00    -0.362 C  
HETATM   28  C   UNL     1     -11.642  12.981  63.588  1.00  0.00    -0.507 C  
HETATM   29  C   UNL     1     -11.883  11.603  64.097  1.00  0.00    -0.264 C  
ENDBRANCH  22  27
ENDBRANCH   9  11
TORSDOF 2
ENDMDL
MODEL       95
REMARK 921   NORMALIZED FREE ENERGY PREDICTED BY IDOCK:   -4.31 KCAL/MOL
REMARK 922        TOTAL FREE ENERGY PREDICTED BY IDOCK:   -5.55 KCAL/MOL
REMARK 923 INTER-LIGAND FREE ENERGY PREDICTED BY IDOCK:   -4.74 KCAL/MOL
REMARK 924 INTRA-LIGAND FREE ENERGY PREDICTED BY IDOCK:   -0.81 KCAL/MOL
REMARK 927      BINDING AFFINITY PREDICTED BY RF-SCORE:    0.00 PKD
ROOT
HETATM    1  N   UNL     1     -10.106   8.948  65.958  1.00  0.00    -0.416 NA 
HETATM    2  C   UNL     1     -10.126  10.408  66.156  1.00  0.00    -0.237 C  
HETATM    3  H1  UNL     1     -10.946   8.514  66.342  1.00  0.00     0.000 HD 
HETATM    4  H2  UNL     1      -9.259   8.528  66.340  1.00  0.00     0.000 HD 
HETATM    5  C   UNL     1      -8.861  11.062  65.578  1.00  0.00    -0.179 C  
HETATM    6  C   UNL     1      -7.562  10.842  66.367  1.00  0.00    -0.141 C  
HETATM    7  C   UNL     1      -7.522  11.597  67.703  1.00  0.00    -0.116 C  
HETATM    8  C   UNL     1      -8.207  10.913  68.903  1.00  0.00    -0.141 C  
HETATM    9  N   UNL     1      -9.348  10.070  68.499  1.00  0.00    -0.141 NA 
HETATM   10  C   UNL     1     -10.325  10.788  67.641  1.00  0.00    -0.201 C  
ENDROOT
BRANCH   9  11
HETATM   11  C   UNL     1      -9.705   8.934  69.262  1.00  0.00    -0.165 A  
HETATM   12  C   UNL     1     -10.867   8.906  70.064  1.00  0.00    -0.227 A  
HETATM   13  C   UNL     1     -11.227   7.823  70.845  1.00  0.00    -0.284 A  
HETATM   14  F   UNL     1     -11.711   9.941  70.161  1.00  0.00    -0.271 F  
HETATM   15  C   UNL     1     -10.402   6.709  70.912  1.00  0.00    -0.237 A  
HETATM   16  C   UNL     1     -10.815   5.648  71.855  1.00  0.00    -0.242 C  
HETATM   17  C   UNL     1      -9.921   4.507  72.059  1.00  0.00    -0.255 C  
HETATM   18  O   UNL     1     -11.862   5.724  72.494  1.00  0.00    -0.297 OA 
HETATM   19  C   UNL     1     -10.179   3.445  73.046  1.00  0.00    -0.160 C  
HETATM   20  C   UNL     1      -8.823   4.473  71.287  1.00  0.00    -0.121 C  
HETATM   21  O   UNL     1     -11.320   3.588  73.752  1.00  0.00    -0.196 OA 
HETATM   22  N   UNL     1      -8.464   5.379  70.295  1.00  0.00    -0.117 NA 
HETATM   23  O   UNL     1      -9.418   2.496  73.226  1.00  0.00    -0.086 OA 
HETATM   24  C   UNL     1      -9.237   6.591  70.124  1.00  0.00    -0.158 A  
HETATM   25 CL   UNL     1      -7.861   7.468  67.901  1.00  0.00    -0.115 Cl 
HETATM   26  C   UNL     1      -8.960   7.693  69.242  1.00  0.00    -0.135 A  
BRANCH  22  27
HETATM   27  C   UNL     1      -7.181   5.115  69.597  1.00  0.00    -0.056 C  
HETATM   28  C   UNL     1      -6.281   3.995  70.078  1.00  0.00    -0.027 C  
HETATM   29  C   UNL     1      -5.806   5.402  70.175  1.00  0.00    -0.017 C  
ENDBRANCH  22  27
ENDBRANCH   9  11
TORSDOF 2
ENDMDL
MODEL       96
REMARK 921   NORMALIZED FREE ENERGY PREDICTED BY IDOCK:   -4.31 KCAL/MOL
REMARK 922        TOTAL FREE ENERGY PREDICTED BY IDOCK:   -5.55 KCAL/MOL
REMARK 923 INTER-LIGAND FREE ENERGY PREDICTED BY IDOCK:   -5.76 KCAL/MOL
REMARK 924 INTRA-LIGAND FREE ENERGY PREDICTED BY IDOCK:    0.21 KCAL/MOL
REMARK 927      BINDING AFFINITY PREDICTED BY RF-SCORE:    0.00 PKD
ROOT
HETATM    1  N   UNL     1      -8.930  16.769  69.085  1.00  0.00    -0.180 NA 
HETATM    2  C   UNL     1      -8.386  17.216  67.792  1.00  0.00    -0.202 C  
HETATM    3  H1  UNL     1      -8.471  15.914  69.401  1.00  0.00     0.000 HD 
HETATM    4  H2  UNL     1      -9.944  16.659  69.048  1.00  0.00     0.000 HD 
HETATM    5  C   UNL     1      -9.077  18.503  67.315  1.00  0.00    -0.282 C  
HETATM    6  C   UNL     1     -10.517  18.352  66.804  1.00  0.00    -0.415 C  
HETATM    7  C   UNL     1     -10.614  17.624  65.456  1.00  0.00    -0.072 C  
HETATM    8  C   UNL     1     -10.611  16.083  65.501  1.00  0.00    -0.398 C  
HETATM    9  N   UNL     1      -9.837  15.551  66.639  1.00  0.00    -0.245 NA 
HETATM   10  C   UNL     1      -8.462  16.108  66.716  1.00  0.00    -0.254 C  
ENDROOT
BRANCH   9  11
HETATM   11  C   UNL     1     -10.183  14.311  67.224  1.00  0.00    -0.252 A  
HETATM   12  C   UNL     1     -11.528  13.914  67.395  1.00  0.00    -0.348 A  
HETATM   13  C   UNL     1     -11.899  12.723  67.992  1.00  0.00    -0.386 A  
HETATM   14  F   UNL     1     -12.565  14.673  67.021  1.00  0.00    -0.280 F  
HETATM   15  C   UNL     1     -10.932  11.872  68.508  1.00  0.00    -0.277 A  
HETATM   16  C   UNL     1     -11.430  10.676  69.221  1.00  0.00    -0.281 C  
HETATM   17  C   UNL     1     -10.460   9.809  69.891  1.00  0.00    -0.298 C  
HETATM   18  O   UNL     1     -12.630  10.422  69.295  1.00  0.00    -0.098 OA 
HETATM   19  C   UNL     1     -10.848   8.650  70.716  1.00  0.00    -0.230 C  
HETATM   20  C   UNL     1      -9.168  10.126  69.721  1.00  0.00    -0.144 C  
HETATM   21  O   UNL     1     -12.177   8.430  70.801  1.00  0.00    -0.168 OA 
HETATM   22  N   UNL     1      -8.650  11.161  68.950  1.00  0.00    -0.129 NA 
HETATM   23  O   UNL     1     -10.032   7.932  71.291  1.00  0.00    -0.174 OA 
HETATM   24  C   UNL     1      -9.552  12.128  68.359  1.00  0.00    -0.186 A  
HETATM   25 CL   UNL     1      -7.599  13.496  66.974  1.00  0.00     0.066 Cl 
HETATM   26  C   UNL     1      -9.209  13.322  67.634  1.00  0.00    -0.209 A  
BRANCH  22  27
HETATM   27  C   UNL     1      -7.173  11.303  68.946  1.00  0.00    -0.112 C  
HETATM   28  C   UNL     1      -6.364  10.774  70.113  1.00  0.00    -0.147 C  
HETATM   29  C   UNL     1      -6.391  12.239  69.850  1.00  0.00    -0.060 C  
ENDBRANCH  22  27
ENDBRANCH   9  11
TORSDOF 2
ENDMDL
MODEL       97
REMARK 921   NORMALIZED FREE ENERGY PREDICTED BY IDOCK:   -4.31 KCAL/MOL
REMARK 922        TOTAL FREE ENERGY PREDICTED BY IDOCK:   -5.54 KCAL/MOL
REMARK 923 INTER-LIGAND FREE ENERGY PREDICTED BY IDOCK:   -4.84 KCAL/MOL
REMARK 924 INTRA-LIGAND FREE ENERGY PREDICTED BY IDOCK:   -0.71 KCAL/MOL
REMARK 927      BINDING AFFINITY PREDICTED BY RF-SCORE:    0.00 PKD
ROOT
HETATM    1  N   UNL     1      -8.420   5.741  66.187  1.00  0.00    -0.125 NA 
HETATM    2  C   UNL     1      -7.419   5.288  67.169  1.00  0.00    -0.084 C  
HETATM    3  H1  UNL     1      -8.145   6.628  65.764  1.00  0.00     0.000 HD 
HETATM    4  H2  UNL     1      -9.352   5.795  66.599  1.00  0.00     0.000 HD 
HETATM    5  C   UNL     1      -7.834   3.953  67.806  1.00  0.00    -0.078 C  
HETATM    6  C   UNL     1      -8.988   4.012  68.817  1.00  0.00    -0.166 C  
HETATM    7  C   UNL     1      -8.609   4.696  70.138  1.00  0.00    -0.101 C  
HETATM    8  C   UNL     1      -8.685   6.235  70.165  1.00  0.00    -0.138 C  
HETATM    9  N   UNL     1      -8.408   6.840  68.849  1.00  0.00    -0.120 NA 
HETATM   10  C   UNL     1      -7.138   6.361  68.246  1.00  0.00    -0.083 C  
ENDROOT
BRANCH   9  11
HETATM   11  C   UNL     1      -8.996   8.075  68.490  1.00  0.00    -0.133 A  
HETATM   12  C   UNL     1     -10.316   8.160  67.997  1.00  0.00    -0.211 A  
HETATM   13  C   UNL     1     -10.908   9.348  67.608  1.00  0.00    -0.222 A  
HETATM   14  F   UNL     1     -11.104   7.090  67.836  1.00  0.00    -0.262 F  
HETATM   15  C   UNL     1     -10.182  10.530  67.639  1.00  0.00    -0.234 A  
HETATM   16  C   UNL     1     -10.864  11.728  67.104  1.00  0.00    -0.258 C  
HETATM   17  C   UNL     1     -10.104  12.974  66.996  1.00  0.00    -0.243 C  
HETATM   18  O   UNL     1     -12.028  11.688  66.714  1.00  0.00    -0.536 OA 
HETATM   19  C   UNL     1     -10.647  14.201  66.385  1.00  0.00    -0.280 C  
HETATM   20  C   UNL     1      -8.856  12.950  67.490  1.00  0.00    -0.192 C  
HETATM   21  O   UNL     1     -11.915  14.100  65.936  1.00  0.00    -0.376 OA 
HETATM   22  N   UNL     1      -8.223  11.885  68.122  1.00  0.00    -0.151 NA 
HETATM   23  O   UNL     1     -10.002  15.242  66.283  1.00  0.00    -0.253 OA 
HETATM   24  C   UNL     1      -8.870  10.590  68.154  1.00  0.00    -0.134 A  
HETATM   25 CL   UNL     1      -6.955   9.381  69.729  1.00  0.00    -0.060 Cl 
HETATM   26  C   UNL     1      -8.332   9.351  68.652  1.00  0.00    -0.117 A  
BRANCH  22  27
HETATM   27  C   UNL     1      -6.825  12.119  68.562  1.00  0.00    -0.086 C  
HETATM   28  C   UNL     1      -5.978  13.156  67.852  1.00  0.00    -0.134 C  
HETATM   29  C   UNL     1      -5.591  11.721  67.772  1.00  0.00    -0.057 C  
ENDBRANCH  22  27
ENDBRANCH   9  11
TORSDOF 2
ENDMDL
MODEL       98
REMARK 921   NORMALIZED FREE ENERGY PREDICTED BY IDOCK:   -4.21 KCAL/MOL
REMARK 922        TOTAL FREE ENERGY PREDICTED BY IDOCK:   -5.44 KCAL/MOL
REMARK 923 INTER-LIGAND FREE ENERGY PREDICTED BY IDOCK:   -4.67 KCAL/MOL
REMARK 924 INTRA-LIGAND FREE ENERGY PREDICTED BY IDOCK:   -0.77 KCAL/MOL
REMARK 927      BINDING AFFINITY PREDICTED BY RF-SCORE:    0.00 PKD
ROOT
HETATM    1  N   UNL     1     -11.706  11.047  67.581  1.00  0.00    -0.580 NA 
HETATM    2  C   UNL     1     -10.822  11.996  66.882  1.00  0.00    -0.259 C  
HETATM    3  H1  UNL     1     -11.616  11.139  68.593  1.00  0.00     0.000 HD 
HETATM    4  H2  UNL     1     -11.544  10.088  67.275  1.00  0.00     0.000 HD 
HETATM    5  C   UNL     1     -10.958  11.859  65.357  1.00  0.00    -0.352 C  
HETATM    6  C   UNL     1     -10.327  10.608  64.729  1.00  0.00    -0.353 C  
HETATM    7  C   UNL     1      -8.792  10.626  64.740  1.00  0.00    -0.196 C  
HETATM    8  C   UNL     1      -8.106  10.156  66.038  1.00  0.00    -0.129 C  
HETATM    9  N   UNL     1      -8.913  10.436  67.240  1.00  0.00    -0.135 NA 
HETATM   10  C   UNL     1      -9.349  11.853  67.329  1.00  0.00    -0.177 C  
ENDROOT
BRANCH   9  11
HETATM   11  C   UNL     1      -8.816   9.603  68.379  1.00  0.00    -0.123 A  
HETATM   12  C   UNL     1      -8.291  10.070  69.604  1.00  0.00    -0.176 A  
HETATM   13  C   UNL     1      -8.153   9.272  70.726  1.00  0.00    -0.194 A  
HETATM   14  F   UNL     1      -7.851  11.322  69.779  1.00  0.00     0.030 F  
HETATM   15  C   UNL     1      -8.488   7.927  70.668  1.00  0.00    -0.125 A  
HETATM   16  C   UNL     1      -8.206   7.132  71.883  1.00  0.00    -0.104 C  
HETATM   17  C   UNL     1      -8.423   5.685  71.837  1.00  0.00    -0.127 C  
HETATM   18  O   UNL     1      -7.760   7.650  72.903  1.00  0.00    -0.087 OA 
HETATM   19  C   UNL     1      -8.081   4.782  72.950  1.00  0.00    -0.101 C  
HETATM   20  C   UNL     1      -8.959   5.204  70.705  1.00  0.00    -0.132 C  
HETATM   21  O   UNL     1      -7.558   5.389  74.036  1.00  0.00    -0.092 OA 
HETATM   22  N   UNL     1      -9.363   5.931  69.590  1.00  0.00    -0.138 NA 
HETATM   23  O   UNL     1      -8.250   3.565  72.903  1.00  0.00    -0.079 OA 
HETATM   24  C   UNL     1      -9.068   7.347  69.519  1.00  0.00    -0.143 A  
HETATM   25 CL   UNL     1     -10.420   7.778  67.154  1.00  0.00    -0.391 Cl 
HETATM   26  C   UNL     1      -9.296   8.238  68.413  1.00  0.00    -0.135 A  
BRANCH  22  27
HETATM   27  C   UNL     1      -9.914   5.146  68.457  1.00  0.00    -0.154 C  
HETATM   28  C   UNL     1      -9.739   3.641  68.431  1.00  0.00    -0.075 C  
HETATM   29  C   UNL     1      -9.077   4.469  67.386  1.00  0.00    -0.141 C  
ENDBRANCH  22  27
ENDBRANCH   9  11
TORSDOF 2
ENDMDL
MODEL       99
REMARK 921   NORMALIZED FREE ENERGY PREDICTED BY IDOCK:   -4.15 KCAL/MOL
REMARK 922        TOTAL FREE ENERGY PREDICTED BY IDOCK:   -5.37 KCAL/MOL
REMARK 923 INTER-LIGAND FREE ENERGY PREDICTED BY IDOCK:   -4.71 KCAL/MOL
REMARK 924 INTRA-LIGAND FREE ENERGY PREDICTED BY IDOCK:   -0.66 KCAL/MOL
REMARK 927      BINDING AFFINITY PREDICTED BY RF-SCORE:    0.00 PKD
ROOT
HETATM    1  N   UNL     1      -8.855   7.130  74.100  1.00  0.00    -0.194 NA 
HETATM    2  C   UNL     1      -9.244   5.711  74.029  1.00  0.00    -0.126 C  
HETATM    3  H1  UNL     1      -9.676   7.737  74.088  1.00  0.00     0.000 HD 
HETATM    4  H2  UNL     1      -8.195   7.376  73.362  1.00  0.00     0.000 HD 
HETATM    5  C   UNL     1      -8.009   4.796  74.048  1.00  0.00    -0.101 C  
HETATM    6  C   UNL     1      -7.168   4.765  72.763  1.00  0.00    -0.080 C  
HETATM    7  C   UNL     1      -7.864   4.051  71.595  1.00  0.00    -0.070 C  
HETATM    8  C   UNL     1      -8.855   4.891  70.765  1.00  0.00    -0.126 C  
HETATM    9  N   UNL     1      -9.517   5.940  71.563  1.00  0.00    -0.152 NA 
HETATM   10  C   UNL     1     -10.141   5.417  72.805  1.00  0.00    -0.181 C  
ENDROOT
BRANCH   9  11
HETATM   11  C   UNL     1      -9.940   7.144  70.954  1.00  0.00    -0.189 A  
HETATM   12  C   UNL     1     -11.295   7.543  70.949  1.00  0.00    -0.277 A  
HETATM   13  C   UNL     1     -11.745   8.698  70.335  1.00  0.00    -0.016 A  
HETATM   14  F   UNL     1     -12.270   6.821  71.514  1.00  0.00    -0.337 F  
HETATM   15  C   UNL     1     -10.860   9.504  69.633  1.00  0.00    -0.255 A  
HETATM   16  C   UNL     1     -11.451  10.657  68.922  1.00  0.00    -0.265 C  
HETATM   17  C   UNL     1     -10.585  11.469  68.066  1.00  0.00    -0.222 C  
HETATM   18  O   UNL     1     -12.649  10.919  69.001  1.00  0.00    -0.350 OA 
HETATM   19  C   UNL     1     -11.083  12.576  67.231  1.00  0.00    -0.274 C  
HETATM   20  C   UNL     1      -9.282  11.149  68.072  1.00  0.00    -0.159 C  
HETATM   21  O   UNL     1     -12.410  12.805  67.321  1.00  0.00    -0.335 OA 
HETATM   22  N   UNL     1      -8.662  10.160  68.828  1.00  0.00    -0.130 NA 
HETATM   23  O   UNL     1     -10.356  13.247  66.502  1.00  0.00    -0.275 OA 
HETATM   24  C   UNL     1      -9.473   9.243  69.602  1.00  0.00    -0.179 A  
HETATM   25 CL   UNL     1      -7.345   7.945  70.783  1.00  0.00    -0.060 Cl 
HETATM   26  C   UNL     1      -9.032   8.093  70.347  1.00  0.00    -0.146 A  
BRANCH  22  27
HETATM   27  C   UNL     1      -7.199  10.002  68.633  1.00  0.00    -0.080 C  
HETATM   28  C   UNL     1      -6.459  10.949  67.710  1.00  0.00    -0.063 C  
HETATM   29  C   UNL     1      -6.545   9.506  67.356  1.00  0.00    -0.070 C  
ENDBRANCH  22  27
ENDBRANCH   9  11
TORSDOF 2
ENDMDL
MODEL      100
REMARK 921   NORMALIZED FREE ENERGY PREDICTED BY IDOCK:   -4.09 KCAL/MOL
REMARK 922        TOTAL FREE ENERGY PREDICTED BY IDOCK:   -5.30 KCAL/MOL
REMARK 923 INTER-LIGAND FREE ENERGY PREDICTED BY IDOCK:   -4.50 KCAL/MOL
REMARK 924 INTRA-LIGAND FREE ENERGY PREDICTED BY IDOCK:   -0.80 KCAL/MOL
REMARK 927      BINDING AFFINITY PREDICTED BY RF-SCORE:    0.00 PKD
ROOT
HETATM    1  N   UNL     1      -9.384   7.567  65.587  1.00  0.00    -0.375 NA 
HETATM    2  C   UNL     1      -8.022   7.634  65.031  1.00  0.00    -0.131 C  
HETATM    3  H1  UNL     1      -9.904   8.423  65.391  1.00  0.00     0.000 HD 
HETATM    4  H2  UNL     1      -9.373   7.354  66.584  1.00  0.00     0.000 HD 
HETATM    5  C   UNL     1      -7.239   6.344  65.325  1.00  0.00    -0.070 C  
HETATM    6  C   UNL     1      -6.777   6.146  66.776  1.00  0.00    -0.061 C  
HETATM    7  C   UNL     1      -5.651   7.101  67.195  1.00  0.00    -0.022 C  
HETATM    8  C   UNL     1      -6.077   8.506  67.665  1.00  0.00    -0.048 C  
HETATM    9  N   UNL     1      -7.313   8.973  67.009  1.00  0.00    -0.086 NA 
HETATM   10  C   UNL     1      -7.254   8.881  65.528  1.00  0.00    -0.084 C  
ENDROOT
BRANCH   9  11
HETATM   11  C   UNL     1      -8.186   9.863  67.676  1.00  0.00    -0.114 A  
HETATM   12  C   UNL     1      -9.163   9.410  68.589  1.00  0.00    -0.131 A  
HETATM   13  C   UNL     1     -10.051  10.252  69.234  1.00  0.00    -0.244 A  
HETATM   14  F   UNL     1      -9.334   8.116  68.890  1.00  0.00    -0.146 F  
HETATM   15  C   UNL     1     -10.049  11.611  68.955  1.00  0.00    -0.109 A  
HETATM   16  C   UNL     1     -11.104  12.413  69.610  1.00  0.00     0.071 C  
HETATM   17  C   UNL     1     -11.226  13.828  69.257  1.00  0.00    -0.291 C  
HETATM   18  O   UNL     1     -11.896  11.911  70.405  1.00  0.00    -0.332 OA 
HETATM   19  C   UNL     1     -12.301  14.697  69.768  1.00  0.00    -0.262 C  
HETATM   20  C   UNL     1     -10.293  14.311  68.423  1.00  0.00    -0.247 C  
HETATM   21  O   UNL     1     -13.170  14.096  70.607  1.00  0.00    -0.254 OA 
HETATM   22  N   UNL     1      -9.207  13.627  67.889  1.00  0.00    -0.194 NA 
HETATM   23  O   UNL     1     -12.411  15.882  69.458  1.00  0.00    -0.236 OA 
HETATM   24  C   UNL     1      -9.093  12.198  68.098  1.00  0.00    -0.196 A  
HETATM   25 CL   UNL     1      -6.633  11.950  66.876  1.00  0.00    -0.123 Cl 
HETATM   26  C   UNL     1      -8.117  11.302  67.536  1.00  0.00    -0.124 A  
BRANCH  22  27
HETATM   27  C   UNL     1      -8.330  14.398  66.973  1.00  0.00    -0.145 C  
HETATM   28  C   UNL     1      -7.602  15.624  67.485  1.00  0.00    -0.200 C  
HETATM   29  C   UNL     1      -8.645  15.782  66.434  1.00  0.00    -0.346 C  
ENDBRANCH  22  27
ENDBRANCH   9  11
TORSDOF 2
ENDMDL
MODEL      101
REMARK 921   NORMALIZED FREE ENERGY PREDICTED BY IDOCK:   -3.99 KCAL/MOL
REMARK 922        TOTAL FREE ENERGY PREDICTED BY IDOCK:   -5.19 KCAL/MOL
REMARK 923 INTER-LIGAND FREE ENERGY PREDICTED BY IDOCK:   -4.70 KCAL/MOL
REMARK 924 INTRA-LIGAND FREE ENERGY PREDICTED BY IDOCK:   -0.49 KCAL/MOL
REMARK 927      BINDING AFFINITY PREDICTED BY RF-SCORE:    0.00 PKD
ROOT
HETATM    1  N   UNL     1     -10.285  10.012  64.267  1.00  0.00    -0.384 NA 
HETATM    2  C   UNL     1      -8.994  10.621  63.903  1.00  0.00    -0.192 C  
HETATM    3  H1  UNL     1     -10.714  10.502  65.053  1.00  0.00     0.000 HD 
HETATM    4  H2  UNL     1     -10.190   9.014  64.454  1.00  0.00     0.000 HD 
HETATM    5  C   UNL     1      -8.348   9.883  62.720  1.00  0.00    -0.160 C  
HETATM    6  C   UNL     1      -7.757   8.499  63.023  1.00  0.00    -0.126 C  
HETATM    7  C   UNL     1      -6.483   8.551  63.878  1.00  0.00    -0.072 C  
HETATM    8  C   UNL     1      -6.679   8.653  65.404  1.00  0.00    -0.067 C  
HETATM    9  N   UNL     1      -7.913   9.373  65.770  1.00  0.00    -0.108 NA 
HETATM   10  C   UNL     1      -8.029  10.698  65.110  1.00  0.00    -0.036 C  
ENDROOT
BRANCH   9  11
HETATM   11  C   UNL     1      -8.592   9.067  66.972  1.00  0.00    -0.116 A  
HETATM   12  C   UNL     1      -8.907  10.059  67.927  1.00  0.00    -0.125 A  
HETATM   13  C   UNL     1      -9.542   9.786  69.126  1.00  0.00    -0.192 A  
HETATM   14  F   UNL     1      -8.591  11.350  67.768  1.00  0.00    -0.119 F  
HETATM   15  C   UNL     1      -9.852   8.478  69.467  1.00  0.00    -0.187 A  
HETATM   16  C   UNL     1     -10.431   8.275  70.812  1.00  0.00    -0.196 C  
HETATM   17  C   UNL     1     -10.664   6.905  71.273  1.00  0.00    -0.249 C  
HETATM   18  O   UNL     1     -10.679   9.220  71.558  1.00  0.00    -0.334 OA 
HETATM   19  C   UNL     1     -11.139   6.580  72.630  1.00  0.00    -0.257 C  
HETATM   20  C   UNL     1     -10.416   5.932  70.383  1.00  0.00    -0.259 C  
HETATM   21  O   UNL     1     -11.361   7.646  73.427  1.00  0.00    -0.289 OA 
HETATM   22  N   UNL     1      -9.999   6.085  69.065  1.00  0.00    -0.149 NA 
HETATM   23  O   UNL     1     -11.319   5.428  73.020  1.00  0.00    -0.302 OA 
HETATM   24  C   UNL     1      -9.635   7.401  68.581  1.00  0.00    -0.146 A  
HETATM   25 CL   UNL     1      -9.208   6.612  65.973  1.00  0.00    -0.118 Cl 
HETATM   26  C   UNL     1      -9.075   7.743  67.301  1.00  0.00    -0.131 A  
BRANCH  22  27
HETATM   27  C   UNL     1      -9.781   4.835  68.296  1.00  0.00    -0.140 C  
HETATM   28  C   UNL     1      -9.616   3.520  69.030  1.00  0.00    -0.143 C  
HETATM   29  C   UNL     1      -8.473   4.065  68.248  1.00  0.00    -0.105 C  
ENDBRANCH  22  27
ENDBRANCH   9  11
TORSDOF 2
ENDMDL
MODEL      102
REMARK 921   NORMALIZED FREE ENERGY PREDICTED BY IDOCK:   -3.99 KCAL/MOL
REMARK 922        TOTAL FREE ENERGY PREDICTED BY IDOCK:   -5.19 KCAL/MOL
REMARK 923 INTER-LIGAND FREE ENERGY PREDICTED BY IDOCK:   -4.41 KCAL/MOL
REMARK 924 INTRA-LIGAND FREE ENERGY PREDICTED BY IDOCK:   -0.77 KCAL/MOL
REMARK 927      BINDING AFFINITY PREDICTED BY RF-SCORE:    0.00 PKD
ROOT
HETATM    1  N   UNL     1      -9.046   5.629  70.533  1.00  0.00    -0.143 NA 
HETATM    2  C   UNL     1      -7.699   5.168  70.909  1.00  0.00    -0.088 C  
HETATM    3  H1  UNL     1      -9.274   5.359  69.576  1.00  0.00     0.000 HD 
HETATM    4  H2  UNL     1      -9.153   6.634  70.675  1.00  0.00     0.000 HD 
HETATM    5  C   UNL     1      -7.356   5.574  72.351  1.00  0.00    -0.095 C  
HETATM    6  C   UNL     1      -7.054   7.062  72.584  1.00  0.00    -0.069 C  
HETATM    7  C   UNL     1      -5.718   7.516  71.981  1.00  0.00    -0.036 C  
HETATM    8  C   UNL     1      -5.727   7.891  70.486  1.00  0.00    -0.029 C  
HETATM    9  N   UNL     1      -6.729   7.129  69.716  1.00  0.00    -0.047 NA 
HETATM   10  C   UNL     1      -6.620   5.661  69.916  1.00  0.00    -0.046 C  
ENDROOT
BRANCH   9  11
HETATM   11  C   UNL     1      -7.329   7.692  68.566  1.00  0.00    -0.095 A  
HETATM   12  C   UNL     1      -6.986   7.272  67.262  1.00  0.00    -0.079 A  
HETATM   13  C   UNL     1      -7.532   7.825  66.117  1.00  0.00    -0.079 A  
HETATM   14  F   UNL     1      -6.079   6.319  67.018  1.00  0.00    -0.021 F  
HETATM   15  C   UNL     1      -8.424   8.883  66.212  1.00  0.00    -0.129 A  
HETATM   16  C   UNL     1      -8.870   9.477  64.934  1.00  0.00    -0.203 C  
HETATM   17  C   UNL     1      -9.713  10.672  64.975  1.00  0.00    -0.336 C  
HETATM   18  O   UNL     1      -8.518   9.016  63.851  1.00  0.00    -0.182 OA 
HETATM   19  C   UNL     1     -10.131  11.408  63.768  1.00  0.00    -0.362 C  
HETATM   20  C   UNL     1     -10.095  11.084  66.194  1.00  0.00    -0.237 C  
HETATM   21  O   UNL     1      -9.690  10.888  62.603  1.00  0.00    -0.276 OA 
HETATM   22  N   UNL     1      -9.810  10.478  67.413  1.00  0.00    -0.170 NA 
HETATM   23  O   UNL     1     -10.827  12.421  63.806  1.00  0.00    -0.384 OA 
HETATM   24  C   UNL     1      -8.885   9.365  67.456  1.00  0.00    -0.118 A  
HETATM   25 CL   UNL     1      -9.214   8.855  70.146  1.00  0.00    -0.178 Cl 
HETATM   26  C   UNL     1      -8.377   8.688  68.620  1.00  0.00    -0.122 A  
BRANCH  22  27
HETATM   27  C   UNL     1     -10.345  11.152  68.622  1.00  0.00    -0.203 C  
HETATM   28  C   UNL     1     -11.843  11.279  68.811  1.00  0.00    -0.396 C  
HETATM   29  C   UNL     1     -11.026  12.509  68.627  1.00  0.00    -0.291 C  
ENDBRANCH  22  27
ENDBRANCH   9  11
TORSDOF 2
ENDMDL
MODEL      103
REMARK 921   NORMALIZED FREE ENERGY PREDICTED BY IDOCK:   -3.99 KCAL/MOL
REMARK 922        TOTAL FREE ENERGY PREDICTED BY IDOCK:   -5.19 KCAL/MOL
REMARK 923 INTER-LIGAND FREE ENERGY PREDICTED BY IDOCK:   -4.41 KCAL/MOL
REMARK 924 INTRA-LIGAND FREE ENERGY PREDICTED BY IDOCK:   -0.78 KCAL/MOL
REMARK 927      BINDING AFFINITY PREDICTED BY RF-SCORE:    0.00 PKD
ROOT
HETATM    1  N   UNL     1     -10.179  15.330  68.600  1.00  0.00    -0.217 NA 
HETATM    2  C   UNL     1      -9.000  15.972  69.207  1.00  0.00    -0.228 C  
HETATM    3  H1  UNL     1     -10.496  14.539  69.161  1.00  0.00     0.000 HD 
HETATM    4  H2  UNL     1     -10.002  15.058  67.633  1.00  0.00     0.000 HD 
HETATM    5  C   UNL     1      -8.522  17.164  68.363  1.00  0.00    -0.241 C  
HETATM    6  C   UNL     1      -7.817  16.822  67.042  1.00  0.00    -0.229 C  
HETATM    7  C   UNL     1      -6.423  16.208  67.235  1.00  0.00    -0.216 C  
HETATM    8  C   UNL     1      -6.368  14.691  67.501  1.00  0.00    -0.016 C  
HETATM    9  N   UNL     1      -7.560  14.197  68.216  1.00  0.00    -0.118 NA 
HETATM   10  C   UNL     1      -7.854  14.964  69.453  1.00  0.00    -0.139 C  
ENDROOT
BRANCH   9  11
HETATM   11  C   UNL     1      -8.012  12.871  68.025  1.00  0.00    -0.158 A  
HETATM   12  C   UNL     1      -8.915  12.529  66.994  1.00  0.00    -0.211 A  
HETATM   13  C   UNL     1      -9.399  11.248  66.800  1.00  0.00    -0.191 A  
HETATM   14  F   UNL     1      -9.405  13.425  66.129  1.00  0.00    -0.249 F  
HETATM   15  C   UNL     1      -9.045  10.231  67.674  1.00  0.00    -0.144 A  
HETATM   16  C   UNL     1      -9.696   8.922  67.450  1.00  0.00    -0.176 C  
HETATM   17  C   UNL     1      -9.455   7.848  68.415  1.00  0.00    -0.150 C  
HETATM   18  O   UNL     1     -10.458   8.734  66.505  1.00  0.00    -0.242 OA 
HETATM   19  C   UNL     1     -10.129   6.539  68.350  1.00  0.00    -0.160 C  
HETATM   20  C   UNL     1      -8.572   8.116  69.389  1.00  0.00    -0.135 C  
HETATM   21  O   UNL     1     -10.986   6.390  67.318  1.00  0.00    -0.342 OA 
HETATM   22  N   UNL     1      -7.837   9.284  69.559  1.00  0.00    -0.080 NA 
HETATM   23  O   UNL     1      -9.937   5.643  69.170  1.00  0.00    -0.155 OA 
HETATM   24  C   UNL     1      -8.113  10.429  68.716  1.00  0.00    -0.125 A  
HETATM   25 CL   UNL     1      -6.070  11.988  69.715  1.00  0.00    -0.132 Cl 
HETATM   26  C   UNL     1      -7.549  11.748  68.813  1.00  0.00    -0.104 A  
BRANCH  22  27
HETATM   27  C   UNL     1      -6.936   9.327  70.738  1.00  0.00    -0.109 C  
HETATM   28  C   UNL     1      -5.990   8.173  71.003  1.00  0.00    -0.033 C  
HETATM   29  C   UNL     1      -7.084   8.457  71.973  1.00  0.00    -0.107 C  
ENDBRANCH  22  27
ENDBRANCH   9  11
TORSDOF 2
ENDMDL
MODEL      104
REMARK 921   NORMALIZED FREE ENERGY PREDICTED BY IDOCK:   -3.98 KCAL/MOL
REMARK 922        TOTAL FREE ENERGY PREDICTED BY IDOCK:   -5.18 KCAL/MOL
REMARK 923 INTER-LIGAND FREE ENERGY PREDICTED BY IDOCK:   -4.45 KCAL/MOL
REMARK 924 INTRA-LIGAND FREE ENERGY PREDICTED BY IDOCK:   -0.73 KCAL/MOL
REMARK 927      BINDING AFFINITY PREDICTED BY RF-SCORE:    0.00 PKD
ROOT
HETATM    1  N   UNL     1      -8.738  13.974  67.776  1.00  0.00    -0.173 NA 
HETATM    2  C   UNL     1      -9.159  13.975  66.364  1.00  0.00    -0.093 C  
HETATM    3  H1  UNL     1      -7.970  13.321  67.930  1.00  0.00     0.000 HD 
HETATM    4  H2  UNL     1      -9.522  13.787  68.402  1.00  0.00     0.000 HD 
HETATM    5  C   UNL     1     -10.316  14.959  66.132  1.00  0.00    -0.312 C  
HETATM    6  C   UNL     1     -11.688  14.536  66.676  1.00  0.00    -0.384 C  
HETATM    7  C   UNL     1     -12.323  13.375  65.897  1.00  0.00    -0.493 C  
HETATM    8  C   UNL     1     -11.877  11.953  66.293  1.00  0.00    -0.028 C  
HETATM    9  N   UNL     1     -10.490  11.912  66.792  1.00  0.00    -0.216 NA 
HETATM   10  C   UNL     1      -9.522  12.556  65.868  1.00  0.00    -0.107 C  
ENDROOT
BRANCH   9  11
HETATM   11  C   UNL     1     -10.097  10.936  67.737  1.00  0.00    -0.177 A  
HETATM   12  C   UNL     1     -10.494  11.003  69.090  1.00  0.00    -0.210 A  
HETATM   13  C   UNL     1     -10.101  10.082  70.045  1.00  0.00    -0.289 A  
HETATM   14  F   UNL     1     -11.266  11.983  69.576  1.00  0.00    -0.282 F  
HETATM   15  C   UNL     1      -9.230   9.057  69.706  1.00  0.00    -0.172 A  
HETATM   16  C   UNL     1      -8.783   8.188  70.815  1.00  0.00    -0.139 C  
HETATM   17  C   UNL     1      -7.769   7.169  70.539  1.00  0.00    -0.094 C  
HETATM   18  O   UNL     1      -9.210   8.329  71.958  1.00  0.00    -0.160 OA 
HETATM   19  C   UNL     1      -7.175   6.317  71.584  1.00  0.00    -0.087 C  
HETATM   20  C   UNL     1      -7.391   7.044  69.257  1.00  0.00    -0.092 C  
HETATM   21  O   UNL     1      -7.646   6.532  72.830  1.00  0.00    -0.096 OA 
HETATM   22  N   UNL     1      -7.882   7.748  68.163  1.00  0.00    -0.119 NA 
HETATM   23  O   UNL     1      -6.312   5.472  71.352  1.00  0.00    -0.033 OA 
HETATM   24  C   UNL     1      -8.796   8.851  68.378  1.00  0.00    -0.134 A  
HETATM   25 CL   UNL     1      -9.254   9.337  65.703  1.00  0.00    -0.269 Cl 
HETATM   26  C   UNL     1      -9.318   9.765  67.397  1.00  0.00    -0.134 A  
BRANCH  22  27
HETATM   27  C   UNL     1      -7.276   7.425  66.847  1.00  0.00    -0.088 C  
HETATM   28  C   UNL     1      -6.106   6.466  66.775  1.00  0.00    -0.029 C  
HETATM   29  C   UNL     1      -5.906   7.889  66.389  1.00  0.00    -0.040 C  
ENDBRANCH  22  27
ENDBRANCH   9  11
TORSDOF 2
ENDMDL
MODEL      105
REMARK 921   NORMALIZED FREE ENERGY PREDICTED BY IDOCK:   -3.97 KCAL/MOL
REMARK 922        TOTAL FREE ENERGY PREDICTED BY IDOCK:   -5.17 KCAL/MOL
REMARK 923 INTER-LIGAND FREE ENERGY PREDICTED BY IDOCK:   -4.37 KCAL/MOL
REMARK 924 INTRA-LIGAND FREE ENERGY PREDICTED BY IDOCK:   -0.80 KCAL/MOL
REMARK 927      BINDING AFFINITY PREDICTED BY RF-SCORE:    0.00 PKD
ROOT
HETATM    1  N   UNL     1      -5.843   7.010  65.270  1.00  0.00    -0.035 NA 
HETATM    2  C   UNL     1      -6.917   7.131  64.269  1.00  0.00    -0.055 C  
HETATM    3  H1  UNL     1      -6.157   6.482  66.085  1.00  0.00     0.000 HD 
HETATM    4  H2  UNL     1      -5.471   7.923  65.534  1.00  0.00     0.000 HD 
HETATM    5  C   UNL     1      -6.444   7.925  63.042  1.00  0.00    -0.076 C  
HETATM    6  C   UNL     1      -6.278   9.440  63.235  1.00  0.00    -0.092 C  
HETATM    7  C   UNL     1      -7.611  10.186  63.391  1.00  0.00    -0.141 C  
HETATM    8  C   UNL     1      -8.228  10.209  64.803  1.00  0.00    -0.161 C  
HETATM    9  N   UNL     1      -7.895   9.005  65.588  1.00  0.00    -0.100 NA 
HETATM   10  C   UNL     1      -8.204   7.741  64.871  1.00  0.00    -0.107 C  
ENDROOT
BRANCH   9  11
HETATM   11  C   UNL     1      -7.804   9.071  66.998  1.00  0.00    -0.098 A  
HETATM   12  C   UNL     1      -6.669   9.601  67.650  1.00  0.00    -0.066 A  
HETATM   13  C   UNL     1      -6.537   9.651  69.026  1.00  0.00    -0.049 A  
HETATM   14  F   UNL     1      -5.606  10.077  66.991  1.00  0.00    -0.044 F  
HETATM   15  C   UNL     1      -7.525   9.114  69.840  1.00  0.00    -0.070 A  
HETATM   16  C   UNL     1      -7.246   9.117  71.292  1.00  0.00    -0.035 C  
HETATM   17  C   UNL     1      -8.195   8.453  72.187  1.00  0.00    -0.207 C  
HETATM   18  O   UNL     1      -6.225   9.623  71.752  1.00  0.00    -0.289 OA 
HETATM   19  C   UNL     1      -7.970   8.304  73.635  1.00  0.00    -0.172 C  
HETATM   20  C   UNL     1      -9.308   7.970  71.613  1.00  0.00    -0.160 C  
HETATM   21  O   UNL     1      -6.819   8.841  74.091  1.00  0.00    -0.310 OA 
HETATM   22  N   UNL     1      -9.673   8.063  70.275  1.00  0.00    -0.175 NA 
HETATM   23  O   UNL     1      -8.761   7.733  74.383  1.00  0.00    -0.217 OA 
HETATM   24  C   UNL     1      -8.729   8.598  69.315  1.00  0.00    -0.133 A  
HETATM   25 CL   UNL     1     -10.463   8.522  67.172  1.00  0.00    -0.377 Cl 
HETATM   26  C   UNL     1      -8.873   8.668  67.886  1.00  0.00    -0.137 A  
BRANCH  22  27
HETATM   27  C   UNL     1     -10.958   7.424  69.898  1.00  0.00    -0.223 C  
HETATM   28  C   UNL     1     -11.711   6.592  70.917  1.00  0.00    -0.431 C  
HETATM   29  C   UNL     1     -11.158   5.932  69.703  1.00  0.00    -0.414 C  
ENDBRANCH  22  27
ENDBRANCH   9  11
TORSDOF 2
ENDMDL
MODEL      106
REMARK 921   NORMALIZED FREE ENERGY PREDICTED BY IDOCK:   -3.96 KCAL/MOL
REMARK 922        TOTAL FREE ENERGY PREDICTED BY IDOCK:   -5.15 KCAL/MOL
REMARK 923 INTER-LIGAND FREE ENERGY PREDICTED BY IDOCK:   -4.36 KCAL/MOL
REMARK 924 INTRA-LIGAND FREE ENERGY PREDICTED BY IDOCK:   -0.79 KCAL/MOL
REMARK 927      BINDING AFFINITY PREDICTED BY RF-SCORE:    0.00 PKD
ROOT
HETATM    1  N   UNL     1      -9.853  13.462  65.780  1.00  0.00    -0.428 NA 
HETATM    2  C   UNL     1      -9.964  14.072  67.116  1.00  0.00    -0.252 C  
HETATM    3  H1  UNL     1     -10.457  12.644  65.698  1.00  0.00     0.000 HD 
HETATM    4  H2  UNL     1      -8.885  13.239  65.548  1.00  0.00     0.000 HD 
HETATM    5  C   UNL     1      -9.055  15.305  67.239  1.00  0.00    -0.210 C  
HETATM    6  C   UNL     1      -7.548  15.029  67.348  1.00  0.00    -0.233 C  
HETATM    7  C   UNL     1      -7.136  14.406  68.689  1.00  0.00    -0.116 C  
HETATM    8  C   UNL     1      -7.288  12.877  68.815  1.00  0.00    -0.066 C  
HETATM    9  N   UNL     1      -8.398  12.348  68.000  1.00  0.00    -0.161 NA 
HETATM   10  C   UNL     1      -9.683  13.052  68.243  1.00  0.00    -0.221 C  
ENDROOT
BRANCH   9  11
HETATM   11  C   UNL     1      -8.343  11.034  67.483  1.00  0.00    -0.118 A  
HETATM   12  C   UNL     1      -7.635  10.724  66.301  1.00  0.00    -0.142 A  
HETATM   13  C   UNL     1      -7.588   9.454  65.753  1.00  0.00    -0.099 A  
HETATM   14  F   UNL     1      -6.967  11.641  65.590  1.00  0.00     0.288 F  
HETATM   15  C   UNL     1      -8.305   8.419  66.334  1.00  0.00    -0.116 A  
HETATM   16  C   UNL     1      -8.281   7.126  65.617  1.00  0.00    -0.138 C  
HETATM   17  C   UNL     1      -9.117   6.034  66.116  1.00  0.00    -0.159 C  
HETATM   18  O   UNL     1      -7.612   6.965  64.599  1.00  0.00    -0.091 OA 
HETATM   19  C   UNL     1      -9.251   4.739  65.426  1.00  0.00    -0.155 C  
HETATM   20  C   UNL     1      -9.778   6.272  67.260  1.00  0.00    -0.129 C  
HETATM   21  O   UNL     1      -8.529   4.620  64.292  1.00  0.00    -0.119 OA 
HETATM   22  N   UNL     1      -9.725   7.423  68.038  1.00  0.00    -0.141 NA 
HETATM   23  O   UNL     1      -9.966   3.828  65.840  1.00  0.00    -0.131 OA 
HETATM   24  C   UNL     1      -9.014   8.584  67.543  1.00  0.00    -0.135 A  
HETATM   25 CL   UNL     1      -9.354  10.092  69.827  1.00  0.00    -0.244 Cl 
HETATM   26  C   UNL     1      -8.944   9.892  68.139  1.00  0.00    -0.118 A  
BRANCH  22  27
HETATM   27  C   UNL     1     -10.572   7.433  69.256  1.00  0.00    -0.213 C  
HETATM   28  C   UNL     1     -10.143   6.644  70.476  1.00  0.00    -0.209 C  
HETATM   29  C   UNL     1     -11.385   6.252  69.755  1.00  0.00    -0.506 C  
ENDBRANCH  22  27
ENDBRANCH   9  11
TORSDOF 2
ENDMDL
MODEL      107
REMARK 921   NORMALIZED FREE ENERGY PREDICTED BY IDOCK:   -3.93 KCAL/MOL
REMARK 922        TOTAL FREE ENERGY PREDICTED BY IDOCK:   -5.12 KCAL/MOL
REMARK 923 INTER-LIGAND FREE ENERGY PREDICTED BY IDOCK:   -4.39 KCAL/MOL
REMARK 924 INTRA-LIGAND FREE ENERGY PREDICTED BY IDOCK:   -0.73 KCAL/MOL
REMARK 927      BINDING AFFINITY PREDICTED BY RF-SCORE:    0.00 PKD
ROOT
HETATM    1  N   UNL     1      -6.611  11.709  70.404  1.00  0.00    -0.493 NA 
HETATM    2  C   UNL     1      -5.910  11.653  69.110  1.00  0.00    -0.060 C  
HETATM    3  H1  UNL     1      -6.228  11.028  71.060  1.00  0.00     0.000 HD 
HETATM    4  H2  UNL     1      -7.619  11.596  70.291  1.00  0.00     0.000 HD 
HETATM    5  C   UNL     1      -6.487  12.680  68.123  1.00  0.00    -0.080 C  
HETATM    6  C   UNL     1      -7.868  12.355  67.535  1.00  0.00    -0.169 C  
HETATM    7  C   UNL     1      -7.851  11.186  66.541  1.00  0.00    -0.151 C  
HETATM    8  C   UNL     1      -7.923   9.768  67.141  1.00  0.00    -0.102 C  
HETATM    9  N   UNL     1      -7.301   9.686  68.476  1.00  0.00    -0.077 NA 
HETATM   10  C   UNL     1      -5.919  10.229  68.508  1.00  0.00    -0.040 C  
ENDROOT
BRANCH   9  11
HETATM   11  C   UNL     1      -7.765   8.745  69.425  1.00  0.00    -0.093 A  
HETATM   12  C   UNL     1      -6.948   7.695  69.898  1.00  0.00    -0.054 A  
HETATM   13  C   UNL     1      -7.382   6.741  70.802  1.00  0.00    -0.078 A  
HETATM   14  F   UNL     1      -5.686   7.512  69.489  1.00  0.00    -0.022 F  
HETATM   15  C   UNL     1      -8.695   6.753  71.249  1.00  0.00    -0.128 A  
HETATM   16  C   UNL     1      -9.094   5.633  72.128  1.00  0.00    -0.140 C  
HETATM   17  C   UNL     1     -10.498   5.526  72.529  1.00  0.00    -0.260 C  
HETATM   18  O   UNL     1      -8.290   4.778  72.490  1.00  0.00    -0.112 OA 
HETATM   19  C   UNL     1     -11.029   4.399  73.316  1.00  0.00    -0.273 C  
HETATM   20  C   UNL     1     -11.302   6.526  72.135  1.00  0.00    -0.282 C  
HETATM   21  O   UNL     1     -10.118   3.465  73.659  1.00  0.00    -0.111 OA 
HETATM   22  N   UNL     1     -10.942   7.664  71.422  1.00  0.00    -0.230 NA 
HETATM   23  O   UNL     1     -12.212   4.304  73.639  1.00  0.00     0.118 OA 
HETATM   24  C   UNL     1      -9.599   7.776  70.890  1.00  0.00    -0.167 A  
HETATM   25 CL   UNL     1      -9.913  10.339  69.923  1.00  0.00    -0.235 Cl 
HETATM   26  C   UNL     1      -9.074   8.809  70.038  1.00  0.00    -0.160 A  
BRANCH  22  27
HETATM   27  C   UNL     1     -12.037   8.612  71.098  1.00  0.00    -0.260 C  
HETATM   28  C   UNL     1     -12.680   9.423  72.205  1.00  0.00    -0.416 C  
HETATM   29  C   UNL     1     -13.494   8.412  71.477  1.00  0.00    -0.315 C  
ENDBRANCH  22  27
ENDBRANCH   9  11
TORSDOF 2
ENDMDL
MODEL      108
REMARK 921   NORMALIZED FREE ENERGY PREDICTED BY IDOCK:   -3.91 KCAL/MOL
REMARK 922        TOTAL FREE ENERGY PREDICTED BY IDOCK:   -5.10 KCAL/MOL
REMARK 923 INTER-LIGAND FREE ENERGY PREDICTED BY IDOCK:   -4.58 KCAL/MOL
REMARK 924 INTRA-LIGAND FREE ENERGY PREDICTED BY IDOCK:   -0.52 KCAL/MOL
REMARK 927      BINDING AFFINITY PREDICTED BY RF-SCORE:    0.00 PKD
ROOT
HETATM    1  N   UNL     1     -10.583   6.875  66.500  1.00  0.00    -0.509 NA 
HETATM    2  C   UNL     1      -9.634   5.823  66.903  1.00  0.00    -0.141 C  
HETATM    3  H1  UNL     1     -10.173   7.490  65.796  1.00  0.00     0.000 HD 
HETATM    4  H2  UNL     1     -10.925   7.401  67.304  1.00  0.00     0.000 HD 
HETATM    5  C   UNL     1     -10.252   4.897  67.962  1.00  0.00    -0.105 C  
HETATM    6  C   UNL     1     -10.401   5.484  69.374  1.00  0.00    -0.348 C  
HETATM    7  C   UNL     1      -9.063   5.671  70.102  1.00  0.00    -0.159 C  
HETATM    8  C   UNL     1      -8.283   6.964  69.792  1.00  0.00    -0.131 C  
HETATM    9  N   UNL     1      -8.517   7.452  68.420  1.00  0.00    -0.125 NA 
HETATM   10  C   UNL     1      -8.289   6.410  67.387  1.00  0.00    -0.112 C  
ENDROOT
BRANCH   9  11
HETATM   11  C   UNL     1      -8.441   8.834  68.128  1.00  0.00    -0.130 A  
HETATM   12  C   UNL     1      -7.305   9.409  67.517  1.00  0.00    -0.084 A  
HETATM   13  C   UNL     1      -7.188  10.760  67.248  1.00  0.00    -0.096 A  
HETATM   14  F   UNL     1      -6.225   8.697  67.171  1.00  0.00    -0.051 F  
HETATM   15  C   UNL     1      -8.193  11.636  67.630  1.00  0.00    -0.141 A  
HETATM   16  C   UNL     1      -7.931  13.072  67.397  1.00  0.00    -0.172 C  
HETATM   17  C   UNL     1      -8.902  14.049  67.892  1.00  0.00    -0.185 C  
HETATM   18  O   UNL     1      -6.907  13.459  66.839  1.00  0.00     0.113 OA 
HETATM   19  C   UNL     1      -8.697  15.506  67.808  1.00  0.00    -0.167 C  
HETATM   20  C   UNL     1     -10.017  13.546  68.444  1.00  0.00    -0.232 C  
HETATM   21  O   UNL     1      -7.542  15.885  67.222  1.00  0.00    -0.163 OA 
HETATM   22  N   UNL     1     -10.365  12.204  68.563  1.00  0.00    -0.225 NA 
HETATM   23  O   UNL     1      -9.507  16.324  68.238  1.00  0.00    -0.207 OA 
HETATM   24  C   UNL     1      -9.401  11.185  68.205  1.00  0.00    -0.176 A  
HETATM   25 CL   UNL     1     -11.112   9.058  68.600  1.00  0.00     0.057 Cl 
HETATM   26  C   UNL     1      -9.527   9.760  68.365  1.00  0.00    -0.140 A  
BRANCH  22  27
HETATM   27  C   UNL     1     -11.657  11.917  69.234  1.00  0.00    -0.315 C  
HETATM   28  C   UNL     1     -12.175  12.860  70.301  1.00  0.00    -0.362 C  
HETATM   29  C   UNL     1     -11.802  11.469  70.677  1.00  0.00    -0.279 C  
ENDBRANCH  22  27
ENDBRANCH   9  11
TORSDOF 2
ENDMDL
MODEL      109
REMARK 921   NORMALIZED FREE ENERGY PREDICTED BY IDOCK:   -3.85 KCAL/MOL
REMARK 922        TOTAL FREE ENERGY PREDICTED BY IDOCK:   -5.04 KCAL/MOL
REMARK 923 INTER-LIGAND FREE ENERGY PREDICTED BY IDOCK:   -4.34 KCAL/MOL
REMARK 924 INTRA-LIGAND FREE ENERGY PREDICTED BY IDOCK:   -0.70 KCAL/MOL
REMARK 927      BINDING AFFINITY PREDICTED BY RF-SCORE:    0.00 PKD
ROOT
HETATM    1  N   UNL     1      -8.220   8.073  71.877  1.00  0.00    -0.115 NA 
HETATM    2  C   UNL     1      -9.549   8.510  72.338  1.00  0.00    -0.286 C  
HETATM    3  H1  UNL     1      -7.842   8.717  71.181  1.00  0.00     0.000 HD 
HETATM    4  H2  UNL     1      -8.238   7.114  71.531  1.00  0.00     0.000 HD 
HETATM    5  C   UNL     1     -10.118   7.541  73.386  1.00  0.00    -0.393 C  
HETATM    6  C   UNL     1     -10.602   6.181  72.862  1.00  0.00    -0.257 C  
HETATM    7  C   UNL     1     -11.889   6.270  72.029  1.00  0.00    -0.370 C  
HETATM    8  C   UNL     1     -11.723   6.633  70.541  1.00  0.00    -0.394 C  
HETATM    9  N   UNL     1     -10.555   7.499  70.294  1.00  0.00    -0.224 NA 
HETATM   10  C   UNL     1     -10.534   8.705  71.162  1.00  0.00    -0.227 C  
ENDROOT
BRANCH   9  11
HETATM   11  C   UNL     1      -9.872   7.447  69.057  1.00  0.00    -0.168 A  
HETATM   12  C   UNL     1      -9.943   8.501  68.119  1.00  0.00    -0.181 A  
HETATM   13  C   UNL     1      -9.313   8.466  66.888  1.00  0.00    -0.221 A  
HETATM   14  F   UNL     1     -10.654   9.616  68.327  1.00  0.00    -0.217 F  
HETATM   15  C   UNL     1      -8.610   7.336  66.497  1.00  0.00    -0.134 A  
HETATM   16  C   UNL     1      -8.062   7.351  65.124  1.00  0.00    -0.129 C  
HETATM   17  C   UNL     1      -7.419   6.139  64.615  1.00  0.00    -0.085 C  
HETATM   18  O   UNL     1      -8.171   8.335  64.397  1.00  0.00    -0.165 OA 
HETATM   19  C   UNL     1      -6.930   6.004  63.232  1.00  0.00    -0.048 C  
HETATM   20  C   UNL     1      -7.294   5.126  65.487  1.00  0.00    -0.073 C  
HETATM   21  O   UNL     1      -7.104   7.095  62.457  1.00  0.00    -0.065 OA 
HETATM   22  N   UNL     1      -7.674   5.117  66.825  1.00  0.00    -0.092 NA 
HETATM   23  O   UNL     1      -6.403   4.979  62.802  1.00  0.00    -0.024 OA 
HETATM   24  C   UNL     1      -8.423   6.235  67.360  1.00  0.00    -0.108 A  
HETATM   25 CL   UNL     1      -8.444   5.315  69.960  1.00  0.00    -0.100 Cl 
HETATM   26  C   UNL     1      -9.001   6.358  68.672  1.00  0.00    -0.125 A  
BRANCH  22  27
HETATM   27  C   UNL     1      -7.437   3.853  67.567  1.00  0.00    -0.068 C  
HETATM   28  C   UNL     1      -6.104   3.622  68.249  1.00  0.00    -0.031 C  
HETATM   29  C   UNL     1      -6.502   2.746  67.113  1.00  0.00    -0.036 C  
ENDBRANCH  22  27
ENDBRANCH   9  11
TORSDOF 2
ENDMDL
MODEL      110
REMARK 921   NORMALIZED FREE ENERGY PREDICTED BY IDOCK:   -3.80 KCAL/MOL
REMARK 922        TOTAL FREE ENERGY PREDICTED BY IDOCK:   -4.98 KCAL/MOL
REMARK 923 INTER-LIGAND FREE ENERGY PREDICTED BY IDOCK:   -4.17 KCAL/MOL
REMARK 924 INTRA-LIGAND FREE ENERGY PREDICTED BY IDOCK:   -0.82 KCAL/MOL
REMARK 927      BINDING AFFINITY PREDICTED BY RF-SCORE:    0.00 PKD
ROOT
HETATM    1  N   UNL     1      -9.701   8.638  65.508  1.00  0.00    -0.397 NA 
HETATM    2  C   UNL     1      -9.286  10.004  65.868  1.00  0.00    -0.167 C  
HETATM    3  H1  UNL     1     -10.373   8.268  66.181  1.00  0.00     0.000 HD 
HETATM    4  H2  UNL     1      -8.899   8.017  65.398  1.00  0.00     0.000 HD 
HETATM    5  C   UNL     1      -8.275  10.561  64.853  1.00  0.00    -0.117 C  
HETATM    6  C   UNL     1      -6.857   9.974  64.915  1.00  0.00    -0.133 C  
HETATM    7  C   UNL     1      -6.070  10.406  66.160  1.00  0.00    -0.096 C  
HETATM    8  C   UNL     1      -6.316   9.595  67.447  1.00  0.00    -0.068 C  
HETATM    9  N   UNL     1      -7.685   9.049  67.521  1.00  0.00    -0.096 NA 
HETATM   10  C   UNL     1      -8.733  10.080  67.310  1.00  0.00    -0.125 C  
ENDROOT
BRANCH   9  11
HETATM   11  C   UNL     1      -7.940   7.845  68.218  1.00  0.00    -0.122 A  
HETATM   12  C   UNL     1      -7.697   6.580  67.639  1.00  0.00    -0.106 A  
HETATM   13  C   UNL     1      -7.964   5.385  68.282  1.00  0.00    -0.088 A  
HETATM   14  F   UNL     1      -7.211   6.426  66.401  1.00  0.00    -0.066 F  
HETATM   15  C   UNL     1      -8.551   5.388  69.539  1.00  0.00    -0.103 A  
HETATM   16  C   UNL     1      -8.898   4.064  70.100  1.00  0.00    -0.083 C  
HETATM   17  C   UNL     1      -9.630   4.012  71.366  1.00  0.00    -0.241 C  
HETATM   18  O   UNL     1      -8.623   3.022  69.511  1.00  0.00    -0.059 OA 
HETATM   19  C   UNL     1     -10.116   2.757  71.967  1.00  0.00    -0.116 C  
HETATM   20  C   UNL     1      -9.847   5.190  71.972  1.00  0.00    -0.171 C  
HETATM   21  O   UNL     1      -9.825   1.641  71.267  1.00  0.00    -0.138 OA 
HETATM   22  N   UNL     1      -9.423   6.444  71.548  1.00  0.00    -0.155 NA 
HETATM   23  O   UNL     1     -10.744   2.717  73.023  1.00  0.00    -0.161 OA 
HETATM   24  C   UNL     1      -8.800   6.583  70.247  1.00  0.00    -0.151 A  
HETATM   25 CL   UNL     1      -8.210   9.263  70.525  1.00  0.00    -0.198 Cl 
HETATM   26  C   UNL     1      -8.404   7.799  69.588  1.00  0.00    -0.129 A  
BRANCH  22  27
HETATM   27  C   UNL     1      -9.814   7.594  72.400  1.00  0.00    -0.181 C  
HETATM   28  C   UNL     1     -10.686   7.363  73.618  1.00  0.00    -0.241 C  
HETATM   29  C   UNL     1     -11.217   8.170  72.486  1.00  0.00    -0.459 C  
ENDBRANCH  22  27
ENDBRANCH   9  11
TORSDOF 2
ENDMDL
MODEL      111
REMARK 921   NORMALIZED FREE ENERGY PREDICTED BY IDOCK:   -3.76 KCAL/MOL
REMARK 922        TOTAL FREE ENERGY PREDICTED BY IDOCK:   -4.94 KCAL/MOL
REMARK 923 INTER-LIGAND FREE ENERGY PREDICTED BY IDOCK:   -4.21 KCAL/MOL
REMARK 924 INTRA-LIGAND FREE ENERGY PREDICTED BY IDOCK:   -0.73 KCAL/MOL
REMARK 927      BINDING AFFINITY PREDICTED BY RF-SCORE:    0.00 PKD
ROOT
HETATM    1  N   UNL     1      -9.300   6.404  71.990  1.00  0.00    -0.151 NA 
HETATM    2  C   UNL     1      -9.775   7.621  72.672  1.00  0.00    -0.196 C  
HETATM    3  H1  UNL     1      -8.319   6.492  71.723  1.00  0.00     0.000 HD 
HETATM    4  H2  UNL     1      -9.887   6.168  71.190  1.00  0.00     0.000 HD 
HETATM    5  C   UNL     1     -11.252   7.489  73.075  1.00  0.00    -0.373 C  
HETATM    6  C   UNL     1     -12.277   7.571  71.935  1.00  0.00    -0.339 C  
HETATM    7  C   UNL     1     -12.412   8.978  71.334  1.00  0.00    -0.378 C  
HETATM    8  C   UNL     1     -11.383   9.369  70.256  1.00  0.00    -0.220 C  
HETATM    9  N   UNL     1     -10.078   8.710  70.452  1.00  0.00    -0.183 NA 
HETATM   10  C   UNL     1      -9.536   8.891  71.823  1.00  0.00    -0.282 C  
ENDROOT
BRANCH   9  11
HETATM   11  C   UNL     1      -9.247   8.422  69.344  1.00  0.00    -0.154 A  
HETATM   12  C   UNL     1      -8.117   9.208  69.031  1.00  0.00    -0.102 A  
HETATM   13  C   UNL     1      -7.303   8.971  67.938  1.00  0.00    -0.084 A  
HETATM   14  F   UNL     1      -7.748  10.274  69.753  1.00  0.00    -0.122 F  
HETATM   15  C   UNL     1      -7.612   7.951  67.050  1.00  0.00    -0.100 A  
HETATM   16  C   UNL     1      -6.747   7.843  65.855  1.00  0.00    -0.049 C  
HETATM   17  C   UNL     1      -7.099   6.865  64.824  1.00  0.00    -0.060 C  
HETATM   18  O   UNL     1      -5.775   8.576  65.694  1.00  0.00    -0.042 OA 
HETATM   19  C   UNL     1      -6.373   6.740  63.548  1.00  0.00    -0.042 C  
HETATM   20  C   UNL     1      -8.144   6.069  65.098  1.00  0.00    -0.132 C  
HETATM   21  O   UNL     1      -5.336   7.591  63.398  1.00  0.00    -0.036 OA 
HETATM   22  N   UNL     1      -8.901   6.046  66.264  1.00  0.00    -0.137 NA 
HETATM   23  O   UNL     1      -6.680   5.929  62.677  1.00  0.00    -0.037 OA 
HETATM   24  C   UNL     1      -8.686   7.062  67.273  1.00  0.00    -0.120 A  
HETATM   25 CL   UNL     1     -10.449   5.992  69.104  1.00  0.00    -0.285 Cl 
HETATM   26  C   UNL     1      -9.438   7.276  68.480  1.00  0.00    -0.140 A  
BRANCH  22  27
HETATM   27  C   UNL     1     -10.020   5.071  66.303  1.00  0.00    -0.224 C  
HETATM   28  C   UNL     1      -9.725   3.597  66.491  1.00  0.00    -0.100 C  
HETATM   29  C   UNL     1     -10.325   4.061  65.211  1.00  0.00    -0.121 C  
ENDBRANCH  22  27
ENDBRANCH   9  11
TORSDOF 2
ENDMDL
MODEL      112
REMARK 921   NORMALIZED FREE ENERGY PREDICTED BY IDOCK:   -3.76 KCAL/MOL
REMARK 922        TOTAL FREE ENERGY PREDICTED BY IDOCK:   -4.93 KCAL/MOL
REMARK 923 INTER-LIGAND FREE ENERGY PREDICTED BY IDOCK:   -6.24 KCAL/MOL
REMARK 924 INTRA-LIGAND FREE ENERGY PREDICTED BY IDOCK:    1.31 KCAL/MOL
REMARK 927      BINDING AFFINITY PREDICTED BY RF-SCORE:    0.00 PKD
ROOT
HETATM    1  N   UNL     1      -6.485  11.739  66.193  1.00  0.00    -0.378 NA 
HETATM    2  C   UNL     1      -7.068  10.675  67.028  1.00  0.00    -0.100 C  
HETATM    3  H1  UNL     1      -6.296  12.577  66.743  1.00  0.00     0.000 HD 
HETATM    4  H2  UNL     1      -7.071  11.945  65.383  1.00  0.00     0.000 HD 
HETATM    5  C   UNL     1      -7.351   9.413  66.199  1.00  0.00    -0.096 C  
HETATM    6  C   UNL     1      -8.543   9.487  65.234  1.00  0.00    -0.175 C  
HETATM    7  C   UNL     1      -9.905   9.508  65.943  1.00  0.00    -0.360 C  
HETATM    8  C   UNL     1     -10.400  10.877  66.448  1.00  0.00    -0.251 C  
HETATM    9  N   UNL     1      -9.293  11.777  66.824  1.00  0.00    -0.188 NA 
HETATM   10  C   UNL     1      -8.336  11.153  67.773  1.00  0.00    -0.123 C  
ENDROOT
BRANCH   9  11
HETATM   11  C   UNL     1      -9.440  13.179  66.712  1.00  0.00    -0.252 A  
HETATM   12  C   UNL     1     -10.490  13.764  65.971  1.00  0.00    -0.297 A  
HETATM   13  C   UNL     1     -10.642  15.131  65.816  1.00  0.00    -0.364 A  
HETATM   14  F   UNL     1     -11.417  13.044  65.327  1.00  0.00    -0.312 F  
HETATM   15  C   UNL     1      -9.707  16.001  66.356  1.00  0.00    -0.307 A  
HETATM   16  C   UNL     1      -9.895  17.434  66.047  1.00  0.00    -0.183 C  
HETATM   17  C   UNL     1      -8.871  18.384  66.487  1.00  0.00    -0.289 C  
HETATM   18  O   UNL     1     -10.861  17.834  65.402  1.00  0.00    -0.550 OA 
HETATM   19  C   UNL     1      -8.901  19.818  66.148  1.00  0.00    -0.336 C  
HETATM   20  C   UNL     1      -7.875  17.876  67.229  1.00  0.00    -0.213 C  
HETATM   21  O   UNL     1      -9.960  20.206  65.406  1.00  0.00    -0.242 OA 
HETATM   22  N   UNL     1      -7.730  16.561  67.655  1.00  0.00    -0.146 NA 
HETATM   23  O   UNL     1      -8.032  20.611  66.505  1.00  0.00    -0.132 OA 
HETATM   24  C   UNL     1      -8.637  15.547  67.159  1.00  0.00    -0.215 A  
HETATM   25 CL   UNL     1      -7.630  13.507  68.717  1.00  0.00    -0.103 Cl 
HETATM   26  C   UNL     1      -8.580  14.128  67.387  1.00  0.00    -0.210 A  
BRANCH  22  27
HETATM   27  C   UNL     1      -6.518  16.260  68.457  1.00  0.00    -0.129 C  
HETATM   28  C   UNL     1      -6.642  16.042  69.952  1.00  0.00    -0.079 C  
HETATM   29  C   UNL     1      -5.877  17.215  69.448  1.00  0.00    -0.212 C  
ENDBRANCH  22  27
ENDBRANCH   9  11
TORSDOF 2
ENDMDL
MODEL      113
REMARK 921   NORMALIZED FREE ENERGY PREDICTED BY IDOCK:   -3.72 KCAL/MOL
REMARK 922        TOTAL FREE ENERGY PREDICTED BY IDOCK:   -4.89 KCAL/MOL
REMARK 923 INTER-LIGAND FREE ENERGY PREDICTED BY IDOCK:   -4.79 KCAL/MOL
REMARK 924 INTRA-LIGAND FREE ENERGY PREDICTED BY IDOCK:   -0.10 KCAL/MOL
REMARK 927      BINDING AFFINITY PREDICTED BY RF-SCORE:    0.00 PKD
ROOT
HETATM    1  N   UNL     1     -12.175  11.976  67.408  1.00  0.00    -0.379 NA 
HETATM    2  C   UNL     1     -11.877  13.207  66.656  1.00  0.00    -0.391 C  
HETATM    3  H1  UNL     1     -11.574  11.892  68.228  1.00  0.00     0.000 HD 
HETATM    4  H2  UNL     1     -12.118  11.149  66.814  1.00  0.00     0.000 HD 
HETATM    5  C   UNL     1     -12.783  13.334  65.421  1.00  0.00    -0.460 C  
HETATM    6  C   UNL     1     -12.473  12.389  64.251  1.00  0.00    -0.529 C  
HETATM    7  C   UNL     1     -11.170  12.733  63.515  1.00  0.00    -0.429 C  
HETATM    8  C   UNL     1      -9.866  12.185  64.127  1.00  0.00    -0.163 C  
HETATM    9  N   UNL     1      -9.940  12.054  65.595  1.00  0.00    -0.242 NA 
HETATM   10  C   UNL     1     -10.384  13.301  66.268  1.00  0.00    -0.290 C  
ENDROOT
BRANCH   9  11
HETATM   11  C   UNL     1      -9.187  11.061  66.264  1.00  0.00    -0.182 A  
HETATM   12  C   UNL     1      -9.290   9.693  65.933  1.00  0.00    -0.218 A  
HETATM   13  C   UNL     1      -8.591   8.696  66.589  1.00  0.00    -0.124 A  
HETATM   14  F   UNL     1     -10.100   9.235  64.969  1.00  0.00    -0.174 F  
HETATM   15  C   UNL     1      -7.777   9.011  67.668  1.00  0.00    -0.097 A  
HETATM   16  C   UNL     1      -7.156   7.869  68.372  1.00  0.00    -0.081 C  
HETATM   17  C   UNL     1      -6.389   8.133  69.590  1.00  0.00    -0.033 C  
HETATM   18  O   UNL     1      -7.304   6.713  67.982  1.00  0.00    -0.091 OA 
HETATM   19  C   UNL     1      -5.813   7.067  70.428  1.00  0.00    -0.024 C  
HETATM   20  C   UNL     1      -6.231   9.424  69.920  1.00  0.00    -0.040 C  
HETATM   21  O   UNL     1      -6.032   5.812  69.984  1.00  0.00    -0.023 OA 
HETATM   22  N   UNL     1      -6.684  10.534  69.215  1.00  0.00    -0.061 NA 
HETATM   23  O   UNL     1      -5.182   7.290  71.459  1.00  0.00    -0.027 OA 
HETATM   24  C   UNL     1      -7.550  10.345  68.070  1.00  0.00    -0.091 A  
HETATM   25 CL   UNL     1      -7.642  13.011  67.369  1.00  0.00    -0.156 Cl 
HETATM   26  C   UNL     1      -8.209  11.358  67.289  1.00  0.00    -0.150 A  
BRANCH  22  27
HETATM   27  C   UNL     1      -6.386  11.859  69.813  1.00  0.00    -0.118 C  
HETATM   28  C   UNL     1      -5.167  12.633  69.356  1.00  0.00    -0.074 C  
HETATM   29  C   UNL     1      -5.234  12.142  70.760  1.00  0.00    -0.145 C  
ENDBRANCH  22  27
ENDBRANCH   9  11
TORSDOF 2
ENDMDL
MODEL      114
REMARK 921   NORMALIZED FREE ENERGY PREDICTED BY IDOCK:   -3.68 KCAL/MOL
REMARK 922        TOTAL FREE ENERGY PREDICTED BY IDOCK:   -4.85 KCAL/MOL
REMARK 923 INTER-LIGAND FREE ENERGY PREDICTED BY IDOCK:   -4.89 KCAL/MOL
REMARK 924 INTRA-LIGAND FREE ENERGY PREDICTED BY IDOCK:    0.05 KCAL/MOL
REMARK 927      BINDING AFFINITY PREDICTED BY RF-SCORE:    0.00 PKD
ROOT
HETATM    1  N   UNL     1     -10.038  13.964  64.672  1.00  0.00    -0.633 NA 
HETATM    2  C   UNL     1     -10.929  14.720  65.569  1.00  0.00    -0.346 C  
HETATM    3  H1  UNL     1     -10.462  13.078  64.394  1.00  0.00     0.000 HD 
HETATM    4  H2  UNL     1      -9.116  13.824  65.088  1.00  0.00     0.000 HD 
HETATM    5  C   UNL     1     -10.291  16.053  65.989  1.00  0.00    -0.366 C  
HETATM    6  C   UNL     1      -9.136  15.966  66.997  1.00  0.00    -0.236 C  
HETATM    7  C   UNL     1      -9.587  15.566  68.410  1.00  0.00    -0.199 C  
HETATM    8  C   UNL     1      -9.757  14.058  68.679  1.00  0.00    -0.179 C  
HETATM    9  N   UNL     1     -10.160  13.309  67.474  1.00  0.00    -0.221 NA 
HETATM   10  C   UNL     1     -11.352  13.888  66.802  1.00  0.00    -0.333 C  
ENDROOT
BRANCH   9  11
HETATM   11  C   UNL     1      -9.787  11.954  67.314  1.00  0.00    -0.187 A  
HETATM   12  C   UNL     1     -10.597  11.033  66.615  1.00  0.00    -0.262 A  
HETATM   13  C   UNL     1     -10.275   9.695  66.469  1.00  0.00    -0.294 A  
HETATM   14  F   UNL     1     -11.767  11.367  66.056  1.00  0.00    -0.238 F  
HETATM   15  C   UNL     1      -9.133   9.185  67.069  1.00  0.00    -0.147 A  
HETATM   16  C   UNL     1      -8.929   7.725  66.947  1.00  0.00    -0.134 C  
HETATM   17  C   UNL     1      -7.810   7.114  67.664  1.00  0.00    -0.113 C  
HETATM   18  O   UNL     1      -9.696   7.019  66.297  1.00  0.00    -0.112 OA 
HETATM   19  C   UNL     1      -7.570   5.660  67.700  1.00  0.00    -0.089 C  
HETATM   20  C   UNL     1      -6.990   7.959  68.309  1.00  0.00    -0.073 C  
HETATM   21  O   UNL     1      -8.458   4.920  67.004  1.00  0.00    -0.107 OA 
HETATM   22  N   UNL     1      -7.067   9.347  68.339  1.00  0.00    -0.071 NA 
HETATM   23  O   UNL     1      -6.637   5.148  68.315  1.00  0.00    -0.046 OA 
HETATM   24  C   UNL     1      -8.214  10.009  67.754  1.00  0.00    -0.113 A  
HETATM   25 CL   UNL     1      -7.275  12.569  68.163  1.00  0.00    -0.096 Cl 
HETATM   26  C   UNL     1      -8.531  11.412  67.787  1.00  0.00    -0.128 A  
BRANCH  22  27
HETATM   27  C   UNL     1      -6.036  10.045  69.147  1.00  0.00    -0.040 C  
HETATM   28  C   UNL     1      -5.172   9.254  70.108  1.00  0.00    -0.028 C  
HETATM   29  C   UNL     1      -6.117  10.269  70.647  1.00  0.00    -0.103 C  
ENDBRANCH  22  27
ENDBRANCH   9  11
TORSDOF 2
ENDMDL
MODEL      115
REMARK 921   NORMALIZED FREE ENERGY PREDICTED BY IDOCK:   -3.65 KCAL/MOL
REMARK 922        TOTAL FREE ENERGY PREDICTED BY IDOCK:   -4.81 KCAL/MOL
REMARK 923 INTER-LIGAND FREE ENERGY PREDICTED BY IDOCK:   -4.03 KCAL/MOL
REMARK 924 INTRA-LIGAND FREE ENERGY PREDICTED BY IDOCK:   -0.78 KCAL/MOL
REMARK 927      BINDING AFFINITY PREDICTED BY RF-SCORE:    0.00 PKD
ROOT
HETATM    1  N   UNL     1     -10.349   6.063  72.232  1.00  0.00    -0.188 NA 
HETATM    2  C   UNL     1      -9.321   5.015  72.354  1.00  0.00    -0.137 C  
HETATM    3  H1  UNL     1     -10.785   6.044  71.309  1.00  0.00     0.000 HD 
HETATM    4  H2  UNL     1      -9.974   6.985  72.451  1.00  0.00     0.000 HD 
HETATM    5  C   UNL     1      -8.665   5.043  73.743  1.00  0.00    -0.109 C  
HETATM    6  C   UNL     1      -7.699   6.205  74.016  1.00  0.00    -0.089 C  
HETATM    7  C   UNL     1      -6.383   6.103  73.232  1.00  0.00    -0.064 C  
HETATM    8  C   UNL     1      -6.398   6.632  71.785  1.00  0.00    -0.042 C  
HETATM    9  N   UNL     1      -7.719   6.490  71.143  1.00  0.00    -0.096 NA 
HETATM   10  C   UNL     1      -8.262   5.110  71.231  1.00  0.00    -0.117 C  
ENDROOT
BRANCH   9  11
HETATM   11  C   UNL     1      -8.131   7.401  70.142  1.00  0.00    -0.131 A  
HETATM   12  C   UNL     1      -8.826   8.590  70.454  1.00  0.00    -0.150 A  
HETATM   13  C   UNL     1      -9.269   9.485  69.497  1.00  0.00    -0.198 A  
HETATM   14  F   UNL     1      -9.142   8.942  71.707  1.00  0.00    -0.278 F  
HETATM   15  C   UNL     1      -9.089   9.209  68.150  1.00  0.00    -0.134 A  
HETATM   16  C   UNL     1      -9.691  10.170  67.201  1.00  0.00    -0.173 C  
HETATM   17  C   UNL     1      -9.639   9.866  65.771  1.00  0.00    -0.312 C  
HETATM   18  O   UNL     1     -10.263  11.186  67.588  1.00  0.00    -0.175 OA 
HETATM   19  C   UNL     1     -10.293  10.696  64.744  1.00  0.00    -0.283 C  
HETATM   20  C   UNL     1      -8.953   8.765  65.426  1.00  0.00    -0.160 C  
HETATM   21  O   UNL     1     -10.942  11.781  65.217  1.00  0.00    -0.298 OA 
HETATM   22  N   UNL     1      -8.259   7.907  66.273  1.00  0.00    -0.112 NA 
HETATM   23  O   UNL     1     -10.261  10.430  63.544  1.00  0.00    -0.144 OA 
HETATM   24  C   UNL     1      -8.369   8.079  67.706  1.00  0.00    -0.129 A  
HETATM   25 CL   UNL     1      -6.544   6.113  68.346  1.00  0.00    -0.056 Cl 
HETATM   26  C   UNL     1      -7.828   7.234  68.737  1.00  0.00    -0.121 A  
BRANCH  22  27
HETATM   27  C   UNL     1      -7.595   6.745  65.631  1.00  0.00    -0.090 C  
HETATM   28  C   UNL     1      -7.540   6.652  64.119  1.00  0.00    -0.104 C  
HETATM   29  C   UNL     1      -8.318   5.639  64.883  1.00  0.00    -0.139 C  
ENDBRANCH  22  27
ENDBRANCH   9  11
TORSDOF 2
ENDMDL
MODEL      116
REMARK 921   NORMALIZED FREE ENERGY PREDICTED BY IDOCK:   -3.61 KCAL/MOL
REMARK 922        TOTAL FREE ENERGY PREDICTED BY IDOCK:   -4.77 KCAL/MOL
REMARK 923 INTER-LIGAND FREE ENERGY PREDICTED BY IDOCK:   -3.98 KCAL/MOL
REMARK 924 INTRA-LIGAND FREE ENERGY PREDICTED BY IDOCK:   -0.80 KCAL/MOL
REMARK 927      BINDING AFFINITY PREDICTED BY RF-SCORE:    0.00 PKD
ROOT
HETATM    1  N   UNL     1     -10.293  15.367  70.795  1.00  0.00    -0.329 NA 
HETATM    2  C   UNL     1      -9.275  15.599  69.755  1.00  0.00    -0.075 C  
HETATM    3  H1  UNL     1     -10.022  14.599  71.410  1.00  0.00     0.000 HD 
HETATM    4  H2  UNL     1     -11.217  15.215  70.389  1.00  0.00     0.000 HD 
HETATM    5  C   UNL     1      -9.683  16.756  68.829  1.00  0.00    -0.261 C  
HETATM    6  C   UNL     1     -10.818  16.464  67.837  1.00  0.00    -0.328 C  
HETATM    7  C   UNL     1     -10.411  15.506  66.707  1.00  0.00    -0.288 C  
HETATM    8  C   UNL     1     -10.479  13.999  67.022  1.00  0.00    -0.275 C  
HETATM    9  N   UNL     1     -10.224  13.704  68.445  1.00  0.00    -0.242 NA 
HETATM   10  C   UNL     1      -8.968  14.317  68.948  1.00  0.00    -0.025 C  
ENDROOT
BRANCH   9  11
HETATM   11  C   UNL     1     -10.813  12.575  69.059  1.00  0.00    -0.137 A  
HETATM   12  C   UNL     1     -12.140  12.593  69.542  1.00  0.00    -0.192 A  
HETATM   13  C   UNL     1     -12.733  11.515  70.176  1.00  0.00    -0.031 A  
HETATM   14  F   UNL     1     -12.933  13.668  69.456  1.00  0.00    -0.052 F  
HETATM   15  C   UNL     1     -12.003  10.360  70.414  1.00  0.00    -0.409 A  
HETATM   16  C   UNL     1     -12.688   9.305  71.191  1.00  0.00    -0.240 C  
HETATM   17  C   UNL     1     -11.927   8.117  71.578  1.00  0.00    -0.334 C  
HETATM   18  O   UNL     1     -13.858   9.423  71.548  1.00  0.00    -0.336 OA 
HETATM   19  C   UNL     1     -12.473   7.051  72.437  1.00  0.00     0.072 C  
HETATM   20  C   UNL     1     -10.673   8.039  71.107  1.00  0.00    -0.220 C  
HETATM   21  O   UNL     1     -13.748   7.241  72.838  1.00  0.00     0.921 OA 
HETATM   22  N   UNL     1     -10.034   8.943  70.264  1.00  0.00    -0.177 NA 
HETATM   23  O   UNL     1     -11.827   6.061  72.774  1.00  0.00    -0.180 OA 
HETATM   24  C   UNL     1     -10.684  10.196  69.940  1.00  0.00    -0.295 A  
HETATM   25 CL   UNL     1      -8.753  11.040  68.162  1.00  0.00    -0.135 Cl 
HETATM   26  C   UNL     1     -10.144  11.298  69.190  1.00  0.00    -0.069 A  
BRANCH  22  27
HETATM   27  C   UNL     1      -8.630   8.626  69.903  1.00  0.00    -0.131 C  
HETATM   28  C   UNL     1      -8.173   7.182  69.863  1.00  0.00    -0.133 C  
HETATM   29  C   UNL     1      -7.584   8.104  70.872  1.00  0.00    -0.076 C  
ENDBRANCH  22  27
ENDBRANCH   9  11
TORSDOF 2
ENDMDL
MODEL      117
REMARK 921   NORMALIZED FREE ENERGY PREDICTED BY IDOCK:   -3.42 KCAL/MOL
REMARK 922        TOTAL FREE ENERGY PREDICTED BY IDOCK:   -4.55 KCAL/MOL
REMARK 923 INTER-LIGAND FREE ENERGY PREDICTED BY IDOCK:   -5.41 KCAL/MOL
REMARK 924 INTRA-LIGAND FREE ENERGY PREDICTED BY IDOCK:    0.85 KCAL/MOL
REMARK 927      BINDING AFFINITY PREDICTED BY RF-SCORE:    0.00 PKD
ROOT
HETATM    1  N   UNL     1     -10.344  13.720  64.414  1.00  0.00    -0.665 NA 
HETATM    2  C   UNL     1     -11.034  14.694  65.277  1.00  0.00    -0.367 C  
HETATM    3  H1  UNL     1     -10.949  12.928  64.196  1.00  0.00     0.000 HD 
HETATM    4  H2  UNL     1      -9.460  13.416  64.824  1.00  0.00     0.000 HD 
HETATM    5  C   UNL     1     -10.123  15.887  65.605  1.00  0.00    -0.388 C  
HETATM    6  C   UNL     1      -8.984  15.618  66.600  1.00  0.00    -0.317 C  
HETATM    7  C   UNL     1      -9.470  15.401  68.040  1.00  0.00    -0.201 C  
HETATM    8  C   UNL     1      -9.941  13.979  68.403  1.00  0.00    -0.236 C  
HETATM    9  N   UNL     1     -10.523  13.264  67.252  1.00  0.00    -0.246 NA 
HETATM   10  C   UNL     1     -11.586  14.039  66.564  1.00  0.00    -0.374 C  
ENDROOT
BRANCH   9  11
HETATM   11  C   UNL     1     -10.442  11.854  67.169  1.00  0.00    -0.221 A  
HETATM   12  C   UNL     1     -11.273  11.011  67.939  1.00  0.00    -0.310 A  
HETATM   13  C   UNL     1     -11.197   9.630  67.903  1.00  0.00     0.033 A  
HETATM   14  F   UNL     1     -12.191  11.476  68.795  1.00  0.00    -0.377 F  
HETATM   15  C   UNL     1     -10.233   9.006  67.125  1.00  0.00    -0.334 A  
HETATM   16  C   UNL     1     -10.160   7.533  67.235  1.00  0.00    -0.231 C  
HETATM   17  C   UNL     1      -9.083   6.833  66.532  1.00  0.00    -0.171 C  
HETATM   18  O   UNL     1     -10.950   6.898  67.928  1.00  0.00    -0.227 OA 
HETATM   19  C   UNL     1      -8.850   5.383  66.652  1.00  0.00    -0.115 C  
HETATM   20  C   UNL     1      -8.293   7.592  65.756  1.00  0.00    -0.142 C  
HETATM   21  O   UNL     1      -9.718   4.731  67.453  1.00  0.00    -0.156 OA 
HETATM   22  N   UNL     1      -8.409   8.957  65.519  1.00  0.00    -0.128 NA 
HETATM   23  O   UNL     1      -7.936   4.799  66.073  1.00  0.00    -0.101 OA 
HETATM   24  C   UNL     1      -9.373   9.731  66.272  1.00  0.00    -0.180 A  
HETATM   25 CL   UNL     1      -8.920  12.095  64.926  1.00  0.00     0.545 Cl 
HETATM   26  C   UNL     1      -9.561  11.158  66.256  1.00  0.00    -0.206 A  
BRANCH  22  27
HETATM   27  C   UNL     1      -7.387   9.558  64.626  1.00  0.00    -0.113 C  
HETATM   28  C   UNL     1      -6.161   8.755  64.241  1.00  0.00    -0.071 C  
HETATM   29  C   UNL     1      -5.998   9.985  65.064  1.00  0.00    -0.107 C  
ENDBRANCH  22  27
ENDBRANCH   9  11
TORSDOF 2
ENDMDL
MODEL      118
REMARK 921   NORMALIZED FREE ENERGY PREDICTED BY IDOCK:   -3.39 KCAL/MOL
REMARK 922        TOTAL FREE ENERGY PREDICTED BY IDOCK:   -4.52 KCAL/MOL
REMARK 923 INTER-LIGAND FREE ENERGY PREDICTED BY IDOCK:   -5.62 KCAL/MOL
REMARK 924 INTRA-LIGAND FREE ENERGY PREDICTED BY IDOCK:    1.10 KCAL/MOL
REMARK 927      BINDING AFFINITY PREDICTED BY RF-SCORE:    0.00 PKD
ROOT
HETATM    1  N   UNL     1     -10.438  15.447  71.662  1.00  0.00     0.131 NA 
HETATM    2  C   UNL     1     -11.749  16.097  71.489  1.00  0.00    -0.464 C  
HETATM    3  H1  UNL     1      -9.898  15.473  70.797  1.00  0.00     0.000 HD 
HETATM    4  H2  UNL     1     -10.535  14.494  72.015  1.00  0.00     0.000 HD 
HETATM    5  C   UNL     1     -12.563  16.057  72.792  1.00  0.00    -0.565 C  
HETATM    6  C   UNL     1     -13.147  14.692  73.186  1.00  0.00    -0.580 C  
HETATM    7  C   UNL     1     -14.297  14.234  72.279  1.00  0.00    -0.527 C  
HETATM    8  C   UNL     1     -13.901  13.533  70.964  1.00  0.00     0.515 C  
HETATM    9  N   UNL     1     -12.611  14.011  70.432  1.00  0.00    -0.331 NA 
HETATM   10  C   UNL     1     -12.546  15.490  70.311  1.00  0.00    -0.323 C  
ENDROOT
BRANCH   9  11
HETATM   11  C   UNL     1     -11.790  13.154  69.664  1.00  0.00    -0.324 A  
HETATM   12  C   UNL     1     -11.984  11.755  69.642  1.00  0.00    -0.312 A  
HETATM   13  C   UNL     1     -11.179  10.887  68.926  1.00  0.00    -0.327 A  
HETATM   14  F   UNL     1     -12.948  11.141  70.339  1.00  0.00    -0.303 F  
HETATM   15  C   UNL     1     -10.085  11.371  68.223  1.00  0.00    -0.204 A  
HETATM   16  C   UNL     1      -9.224  10.358  67.578  1.00  0.00    -0.145 C  
HETATM   17  C   UNL     1      -7.989  10.801  66.929  1.00  0.00    -0.133 C  
HETATM   18  O   UNL     1      -9.500   9.161  67.611  1.00  0.00    -0.137 OA 
HETATM   19  C   UNL     1      -7.006   9.872  66.344  1.00  0.00    -0.095 C  
HETATM   20  C   UNL     1      -7.785  12.127  66.891  1.00  0.00    -0.049 C  
HETATM   21  O   UNL     1      -7.331   8.566  66.437  1.00  0.00    -0.078 OA 
HETATM   22  N   UNL     1      -8.633  13.122  67.366  1.00  0.00    -0.194 NA 
HETATM   23  O   UNL     1      -5.962  10.246  65.813  1.00  0.00    -0.084 OA 
HETATM   24  C   UNL     1      -9.810  12.752  68.125  1.00  0.00    -0.226 A  
HETATM   25 CL   UNL     1     -10.790  15.319  68.355  1.00  0.00    -0.248 Cl 
HETATM   26  C   UNL     1     -10.736  13.627  68.793  1.00  0.00    -0.244 A  
BRANCH  22  27
HETATM   27  C   UNL     1      -8.157  14.519  67.213  1.00  0.00    -0.196 C  
HETATM   28  C   UNL     1      -6.681  14.830  67.358  1.00  0.00    -0.060 C  
HETATM   29  C   UNL     1      -7.644  15.388  68.347  1.00  0.00    -0.116 C  
ENDBRANCH  22  27
ENDBRANCH   9  11
TORSDOF 2
ENDMDL
MODEL      119
REMARK 921   NORMALIZED FREE ENERGY PREDICTED BY IDOCK:   -3.34 KCAL/MOL
REMARK 922        TOTAL FREE ENERGY PREDICTED BY IDOCK:   -4.46 KCAL/MOL
REMARK 923 INTER-LIGAND FREE ENERGY PREDICTED BY IDOCK:   -4.56 KCAL/MOL
REMARK 924 INTRA-LIGAND FREE ENERGY PREDICTED BY IDOCK:    0.10 KCAL/MOL
REMARK 927      BINDING AFFINITY PREDICTED BY RF-SCORE:    0.00 PKD
ROOT
HETATM    1  N   UNL     1     -11.202  13.581  66.871  1.00  0.00    -0.303 NA 
HETATM    2  C   UNL     1     -11.018  13.922  65.450  1.00  0.00    -0.316 C  
HETATM    3  H1  UNL     1     -10.311  13.583  67.368  1.00  0.00     0.000 HD 
HETATM    4  H2  UNL     1     -11.692  12.694  66.984  1.00  0.00     0.000 HD 
HETATM    5  C   UNL     1     -12.360  13.919  64.701  1.00  0.00    -0.421 C  
HETATM    6  C   UNL     1     -12.980  12.542  64.424  1.00  0.00    -0.248 C  
HETATM    7  C   UNL     1     -12.219  11.730  63.367  1.00  0.00    -0.461 C  
HETATM    8  C   UNL     1     -10.996  10.931  63.859  1.00  0.00     0.172 C  
HETATM    9  N   UNL     1     -10.324  11.571  65.006  1.00  0.00    -0.267 NA 
HETATM   10  C   UNL     1      -9.989  12.996  64.760  1.00  0.00    -0.125 C  
ENDROOT
BRANCH   9  11
HETATM   11  C   UNL     1      -9.638  10.787  65.962  1.00  0.00    -0.201 A  
HETATM   12  C   UNL     1      -8.281  10.429  65.801  1.00  0.00    -0.156 A  
HETATM   13  C   UNL     1      -7.591   9.638  66.703  1.00  0.00    -0.098 A  
HETATM   14  F   UNL     1      -7.550  10.800  64.743  1.00  0.00    -0.080 F  
HETATM   15  C   UNL     1      -8.245   9.108  67.805  1.00  0.00    -0.109 A  
HETATM   16  C   UNL     1      -7.454   8.189  68.652  1.00  0.00    -0.098 C  
HETATM   17  C   UNL     1      -8.126   7.504  69.757  1.00  0.00    -0.126 C  
HETATM   18  O   UNL     1      -6.268   7.961  68.424  1.00  0.00    -0.045 OA 
HETATM   19  C   UNL     1      -7.467   6.492  70.601  1.00  0.00    -0.080 C  
HETATM   20  C   UNL     1      -9.407   7.845  69.971  1.00  0.00    -0.157 C  
HETATM   21  O   UNL     1      -6.176   6.246  70.291  1.00  0.00    -0.032 OA 
HETATM   22  N   UNL     1     -10.148   8.800  69.285  1.00  0.00    -0.198 NA 
HETATM   23  O   UNL     1      -8.038   5.907  71.519  1.00  0.00    -0.112 OA 
HETATM   24  C   UNL     1      -9.586   9.428  68.107  1.00  0.00    -0.142 A  
HETATM   25 CL   UNL     1     -11.682  11.177  67.716  1.00  0.00    -0.293 Cl 
HETATM   26  C   UNL     1     -10.233  10.342  67.204  1.00  0.00    -0.222 A  
BRANCH  22  27
HETATM   27  C   UNL     1     -11.559   8.971  69.715  1.00  0.00     0.278 C  
HETATM   28  C   UNL     1     -11.907  10.026  70.746  1.00  0.00    -0.435 C  
HETATM   29  C   UNL     1     -12.099   8.588  71.082  1.00  0.00    -0.283 C  
ENDBRANCH  22  27
ENDBRANCH   9  11
TORSDOF 2
ENDMDL
MODEL      120
REMARK 921   NORMALIZED FREE ENERGY PREDICTED BY IDOCK:   -3.33 KCAL/MOL
REMARK 922        TOTAL FREE ENERGY PREDICTED BY IDOCK:   -4.45 KCAL/MOL
REMARK 923 INTER-LIGAND FREE ENERGY PREDICTED BY IDOCK:   -4.27 KCAL/MOL
REMARK 924 INTRA-LIGAND FREE ENERGY PREDICTED BY IDOCK:   -0.18 KCAL/MOL
REMARK 927      BINDING AFFINITY PREDICTED BY RF-SCORE:    0.00 PKD
ROOT
HETATM    1  N   UNL     1      -8.825   8.013  63.894  1.00  0.00    -0.087 NA 
HETATM    2  C   UNL     1      -7.374   8.197  63.717  1.00  0.00    -0.101 C  
HETATM    3  H1  UNL     1      -9.255   8.848  64.293  1.00  0.00     0.000 HD 
HETATM    4  H2  UNL     1      -9.034   7.182  64.446  1.00  0.00     0.000 HD 
HETATM    5  C   UNL     1      -6.726   6.940  63.115  1.00  0.00    -0.043 C  
HETATM    6  C   UNL     1      -6.590   5.731  64.052  1.00  0.00    -0.037 C  
HETATM    7  C   UNL     1      -5.540   5.926  65.154  1.00  0.00    -0.020 C  
HETATM    8  C   UNL     1      -5.997   6.682  66.417  1.00  0.00    -0.029 C  
HETATM    9  N   UNL     1      -7.045   7.680  66.132  1.00  0.00    -0.068 NA 
HETATM   10  C   UNL     1      -6.678   8.610  65.034  1.00  0.00    -0.068 C  
ENDROOT
BRANCH   9  11
HETATM   11  C   UNL     1      -8.002   8.015  67.118  1.00  0.00    -0.113 A  
HETATM   12  C   UNL     1      -8.725   7.029  67.825  1.00  0.00    -0.121 A  
HETATM   13  C   UNL     1      -9.688   7.326  68.773  1.00  0.00    -0.151 A  
HETATM   14  F   UNL     1      -8.561   5.717  67.618  1.00  0.00    -0.110 F  
HETATM   15  C   UNL     1     -10.027   8.646  69.031  1.00  0.00    -0.197 A  
HETATM   16  C   UNL     1     -11.142   8.859  69.979  1.00  0.00    -0.170 C  
HETATM   17  C   UNL     1     -11.624  10.224  70.195  1.00  0.00    -0.376 C  
HETATM   18  O   UNL     1     -11.691   7.921  70.551  1.00  0.00    -0.213 OA 
HETATM   19  C   UNL     1     -12.791  10.545  71.036  1.00  0.00    -0.407 C  
HETATM   20  C   UNL     1     -10.939  11.197  69.574  1.00  0.00    -0.220 C  
HETATM   21  O   UNL     1     -13.386   9.481  71.614  1.00  0.00    -0.371 OA 
HETATM   22  N   UNL     1      -9.806  11.053  68.781  1.00  0.00    -0.197 NA 
HETATM   23  O   UNL     1     -13.203  11.691  71.204  1.00  0.00    -0.167 OA 
HETATM   24  C   UNL     1      -9.347   9.726  68.428  1.00  0.00    -0.133 A  
HETATM   25 CL   UNL     1      -7.075  10.574  67.116  1.00  0.00    -0.088 Cl 
HETATM   26  C   UNL     1      -8.277   9.374  67.533  1.00  0.00    -0.117 A  
BRANCH  22  27
HETATM   27  C   UNL     1      -9.251  12.299  68.196  1.00  0.00    -0.197 C  
HETATM   28  C   UNL     1     -10.013  13.601  68.339  1.00  0.00    -0.235 C  
HETATM   29  C   UNL     1      -9.821  13.015  66.984  1.00  0.00    -0.238 C  
ENDBRANCH  22  27
ENDBRANCH   9  11
TORSDOF 2
ENDMDL
MODEL      121
REMARK 921   NORMALIZED FREE ENERGY PREDICTED BY IDOCK:   -3.33 KCAL/MOL
REMARK 922        TOTAL FREE ENERGY PREDICTED BY IDOCK:   -4.45 KCAL/MOL
REMARK 923 INTER-LIGAND FREE ENERGY PREDICTED BY IDOCK:   -3.83 KCAL/MOL
REMARK 924 INTRA-LIGAND FREE ENERGY PREDICTED BY IDOCK:   -0.63 KCAL/MOL
REMARK 927      BINDING AFFINITY PREDICTED BY RF-SCORE:    0.00 PKD
ROOT
HETATM    1  N   UNL     1      -7.028   7.230  71.378  1.00  0.00    -0.062 NA 
HETATM    2  C   UNL     1      -7.621   8.502  71.823  1.00  0.00    -0.114 C  
HETATM    3  H1  UNL     1      -6.475   7.359  70.530  1.00  0.00     0.000 HD 
HETATM    4  H2  UNL     1      -7.737   6.506  71.257  1.00  0.00     0.000 HD 
HETATM    5  C   UNL     1      -8.453   8.308  73.101  1.00  0.00    -0.265 C  
HETATM    6  C   UNL     1      -9.800   7.590  72.931  1.00  0.00    -0.272 C  
HETATM    7  C   UNL     1     -10.853   8.430  72.195  1.00  0.00    -0.407 C  
HETATM    8  C   UNL     1     -10.800   8.407  70.655  1.00  0.00    -0.231 C  
HETATM    9  N   UNL     1      -9.432   8.214  70.137  1.00  0.00    -0.166 NA 
HETATM   10  C   UNL     1      -8.454   9.175  70.708  1.00  0.00    -0.212 C  
ENDROOT
BRANCH   9  11
HETATM   11  C   UNL     1      -9.220   7.568  68.896  1.00  0.00    -0.142 A  
HETATM   12  C   UNL     1      -8.916   8.289  67.721  1.00  0.00    -0.136 A  
HETATM   13  C   UNL     1      -8.734   7.689  66.487  1.00  0.00    -0.161 A  
HETATM   14  F   UNL     1      -8.806   9.623  67.691  1.00  0.00    -0.124 F  
HETATM   15  C   UNL     1      -8.902   6.320  66.347  1.00  0.00    -0.147 A  
HETATM   16  C   UNL     1      -8.793   5.786  64.973  1.00  0.00     0.033 C  
HETATM   17  C   UNL     1      -9.083   4.369  64.748  1.00  0.00    -0.152 C  
HETATM   18  O   UNL     1      -8.506   6.509  64.021  1.00  0.00     0.075 OA 
HETATM   19  C   UNL     1      -9.106   3.752  63.410  1.00  0.00    -0.106 C  
HETATM   20  C   UNL     1      -9.337   3.638  65.844  1.00  0.00    -0.166 C  
HETATM   21  O   UNL     1      -8.823   4.590  62.391  1.00  0.00    -0.106 OA 
HETATM   22  N   UNL     1      -9.319   4.069  67.166  1.00  0.00    -0.170 NA 
HETATM   23  O   UNL     1      -9.364   2.565  63.223  1.00  0.00    -0.091 OA 
HETATM   24  C   UNL     1      -9.159   5.480  67.452  1.00  0.00    -0.110 A  
HETATM   25 CL   UNL     1      -9.058   5.181  70.192  1.00  0.00    -0.157 Cl 
HETATM   26  C   UNL     1      -9.230   6.130  68.734  1.00  0.00    -0.124 A  
BRANCH  22  27
HETATM   27  C   UNL     1      -9.656   3.053  68.194  1.00  0.00    -0.065 C  
HETATM   28  C   UNL     1      -8.563   2.173  68.767  1.00  0.00    -0.104 C  
HETATM   29  C   UNL     1      -9.650   1.552  67.962  1.00  0.00    -0.141 C  
ENDBRANCH  22  27
ENDBRANCH   9  11
TORSDOF 2
ENDMDL
MODEL      122
REMARK 921   NORMALIZED FREE ENERGY PREDICTED BY IDOCK:   -3.30 KCAL/MOL
REMARK 922        TOTAL FREE ENERGY PREDICTED BY IDOCK:   -4.42 KCAL/MOL
REMARK 923 INTER-LIGAND FREE ENERGY PREDICTED BY IDOCK:   -3.60 KCAL/MOL
REMARK 924 INTRA-LIGAND FREE ENERGY PREDICTED BY IDOCK:   -0.82 KCAL/MOL
REMARK 927      BINDING AFFINITY PREDICTED BY RF-SCORE:    0.00 PKD
ROOT
HETATM    1  N   UNL     1      -9.712   9.705  64.803  1.00  0.00    -0.431 NA 
HETATM    2  C   UNL     1      -8.338   9.974  64.346  1.00  0.00    -0.168 C  
HETATM    3  H1  UNL     1      -9.859  10.054  65.751  1.00  0.00     0.000 HD 
HETATM    4  H2  UNL     1      -9.946   8.714  64.727  1.00  0.00     0.000 HD 
HETATM    5  C   UNL     1      -8.116   9.449  62.919  1.00  0.00    -0.148 C  
HETATM    6  C   UNL     1      -8.006   7.925  62.766  1.00  0.00    -0.146 C  
HETATM    7  C   UNL     1      -6.707   7.344  63.341  1.00  0.00    -0.054 C  
HETATM    8  C   UNL     1      -6.690   7.057  64.856  1.00  0.00    -0.046 C  
HETATM    9  N   UNL     1      -7.555   7.979  65.617  1.00  0.00    -0.081 NA 
HETATM   10  C   UNL     1      -7.281   9.408  65.323  1.00  0.00    -0.096 C  
ENDROOT
BRANCH   9  11
HETATM   11  C   UNL     1      -8.164   7.559  66.822  1.00  0.00    -0.124 A  
HETATM   12  C   UNL     1      -9.414   6.903  66.840  1.00  0.00    -0.158 A  
HETATM   13  C   UNL     1     -10.049   6.508  68.004  1.00  0.00    -0.168 A  
HETATM   14  F   UNL     1     -10.110   6.631  65.730  1.00  0.00     0.132 F  
HETATM   15  C   UNL     1      -9.486   6.801  69.238  1.00  0.00    -0.142 A  
HETATM   16  C   UNL     1     -10.289   6.435  70.424  1.00  0.00    -0.205 C  
HETATM   17  C   UNL     1      -9.802   6.831  71.747  1.00  0.00    -0.170 C  
HETATM   18  O   UNL     1     -11.364   5.849  70.320  1.00  0.00    -0.322 OA 
HETATM   19  C   UNL     1     -10.566   6.612  72.988  1.00  0.00    -0.256 C  
HETATM   20  C   UNL     1      -8.598   7.422  71.780  1.00  0.00    -0.115 C  
HETATM   21  O   UNL     1     -11.757   5.999  72.823  1.00  0.00    -0.218 OA 
HETATM   22  N   UNL     1      -7.750   7.665  70.704  1.00  0.00    -0.087 NA 
HETATM   23  O   UNL     1     -10.162   6.959  74.095  1.00  0.00    -0.353 OA 
HETATM   24  C   UNL     1      -8.218   7.409  69.357  1.00  0.00    -0.131 A  
HETATM   25 CL   UNL     1      -5.818   7.993  68.132  1.00  0.00    -0.040 Cl 
HETATM   26  C   UNL     1      -7.542   7.702  68.122  1.00  0.00    -0.114 A  
BRANCH  22  27
HETATM   27  C   UNL     1      -6.473   8.353  71.016  1.00  0.00    -0.042 C  
HETATM   28  C   UNL     1      -6.266   8.968  72.385  1.00  0.00     0.028 C  
HETATM   29  C   UNL     1      -6.318   9.853  71.190  1.00  0.00     0.050 C  
ENDBRANCH  22  27
ENDBRANCH   9  11
TORSDOF 2
ENDMDL
MODEL      123
REMARK 921   NORMALIZED FREE ENERGY PREDICTED BY IDOCK:   -3.28 KCAL/MOL
REMARK 922        TOTAL FREE ENERGY PREDICTED BY IDOCK:   -4.39 KCAL/MOL
REMARK 923 INTER-LIGAND FREE ENERGY PREDICTED BY IDOCK:   -4.04 KCAL/MOL
REMARK 924 INTRA-LIGAND FREE ENERGY PREDICTED BY IDOCK:   -0.35 KCAL/MOL
REMARK 927      BINDING AFFINITY PREDICTED BY RF-SCORE:    0.00 PKD
ROOT
HETATM    1  N   UNL     1     -11.995   6.943  70.490  1.00  0.00    -0.543 NA 
HETATM    2  C   UNL     1     -11.473   5.977  71.472  1.00  0.00    -0.216 C  
HETATM    3  H1  UNL     1     -12.114   6.508  69.574  1.00  0.00     0.000 HD 
HETATM    4  H2  UNL     1     -11.411   7.777  70.436  1.00  0.00     0.000 HD 
HETATM    5  C   UNL     1     -11.295   6.632  72.851  1.00  0.00    -0.172 C  
HETATM    6  C   UNL     1     -10.118   7.609  72.992  1.00  0.00    -0.362 C  
HETATM    7  C   UNL     1      -8.746   6.920  72.976  1.00  0.00    -0.135 C  
HETATM    8  C   UNL     1      -8.146   6.609  71.591  1.00  0.00    -0.107 C  
HETATM    9  N   UNL     1      -9.179   6.346  70.571  1.00  0.00    -0.158 NA 
HETATM   10  C   UNL     1     -10.161   5.314  70.992  1.00  0.00    -0.229 C  
ENDROOT
BRANCH   9  11
HETATM   11  C   UNL     1      -8.936   6.648  69.211  1.00  0.00    -0.135 A  
HETATM   12  C   UNL     1      -9.208   5.722  68.180  1.00  0.00    -0.109 A  
HETATM   13  C   UNL     1      -8.953   5.975  66.844  1.00  0.00    -0.117 A  
HETATM   14  F   UNL     1      -9.712   4.503  68.409  1.00  0.00    -0.183 F  
HETATM   15  C   UNL     1      -8.350   7.165  66.464  1.00  0.00    -0.117 A  
HETATM   16  C   UNL     1      -8.019   7.299  65.029  1.00  0.00    -0.129 C  
HETATM   17  C   UNL     1      -7.273   8.479  64.592  1.00  0.00    -0.086 C  
HETATM   18  O   UNL     1      -8.319   6.430  64.214  1.00  0.00    -0.057 OA 
HETATM   19  C   UNL     1      -6.800   8.669  63.209  1.00  0.00    -0.089 C  
HETATM   20  C   UNL     1      -7.028   9.405  65.532  1.00  0.00    -0.086 C  
HETATM   21  O   UNL     1      -7.119   7.673  62.356  1.00  0.00    -0.074 OA 
HETATM   22  N   UNL     1      -7.436   9.382  66.861  1.00  0.00    -0.090 NA 
HETATM   23  O   UNL     1      -6.160   9.655  62.847  1.00  0.00    -0.097 OA 
HETATM   24  C   UNL     1      -8.072   8.193  67.390  1.00  0.00    -0.122 A  
HETATM   25 CL   UNL     1      -8.613   9.268  69.871  1.00  0.00    -0.157 Cl 
HETATM   26  C   UNL     1      -8.456   7.933  68.752  1.00  0.00    -0.128 A  
BRANCH  22  27
HETATM   27  C   UNL     1      -7.014  10.532  67.699  1.00  0.00    -0.079 C  
HETATM   28  C   UNL     1      -7.494  11.928  67.355  1.00  0.00    -0.148 C  
HETATM   29  C   UNL     1      -6.043  11.613  67.259  1.00  0.00    -0.112 C  
ENDBRANCH  22  27
ENDBRANCH   9  11
TORSDOF 2
ENDMDL
MODEL      124
REMARK 921   NORMALIZED FREE ENERGY PREDICTED BY IDOCK:   -3.17 KCAL/MOL
REMARK 922        TOTAL FREE ENERGY PREDICTED BY IDOCK:   -4.28 KCAL/MOL
REMARK 923 INTER-LIGAND FREE ENERGY PREDICTED BY IDOCK:   -4.44 KCAL/MOL
REMARK 924 INTRA-LIGAND FREE ENERGY PREDICTED BY IDOCK:    0.16 KCAL/MOL
REMARK 927      BINDING AFFINITY PREDICTED BY RF-SCORE:    0.00 PKD
ROOT
HETATM    1  N   UNL     1      -9.274   4.611  63.162  1.00  0.00    -0.287 NA 
HETATM    2  C   UNL     1      -7.843   4.266  63.124  1.00  0.00    -0.071 C  
HETATM    3  H1  UNL     1      -9.412   5.617  63.055  1.00  0.00     0.000 HD 
HETATM    4  H2  UNL     1      -9.724   4.258  64.006  1.00  0.00     0.000 HD 
HETATM    5  C   UNL     1      -7.634   2.752  63.283  1.00  0.00    -0.063 C  
HETATM    6  C   UNL     1      -7.869   2.178  64.688  1.00  0.00    -0.073 C  
HETATM    7  C   UNL     1      -6.790   2.584  65.702  1.00  0.00    -0.047 C  
HETATM    8  C   UNL     1      -6.962   3.957  66.381  1.00  0.00    -0.059 C  
HETATM    9  N   UNL     1      -7.648   4.935  65.516  1.00  0.00    -0.084 NA 
HETATM   10  C   UNL     1      -7.028   5.058  64.172  1.00  0.00    -0.049 C  
ENDROOT
BRANCH   9  11
HETATM   11  C   UNL     1      -8.432   5.967  66.082  1.00  0.00    -0.132 A  
HETATM   12  C   UNL     1      -8.643   7.196  65.420  1.00  0.00    -0.032 A  
HETATM   13  C   UNL     1      -9.378   8.235  65.961  1.00  0.00    -0.217 A  
HETATM   14  F   UNL     1      -8.124   7.474  64.217  1.00  0.00    -0.135 F  
HETATM   15  C   UNL     1      -9.906   8.123  67.239  1.00  0.00    -0.259 A  
HETATM   16  C   UNL     1     -10.583   9.324  67.772  1.00  0.00    -0.246 C  
HETATM   17  C   UNL     1     -11.050   9.305  69.159  1.00  0.00    -0.002 C  
HETATM   18  O   UNL     1     -10.723  10.340  67.095  1.00  0.00    -0.257 OA 
HETATM   19  C   UNL     1     -11.644  10.476  69.828  1.00  0.00    -0.294 C  
HETATM   20  C   UNL     1     -10.906   8.143  69.815  1.00  0.00    -0.190 C  
HETATM   21  O   UNL     1     -11.744  11.581  69.059  1.00  0.00    -0.279 OA 
HETATM   22  N   UNL     1     -10.397   6.950  69.310  1.00  0.00    -0.190 NA 
HETATM   23  O   UNL     1     -12.022  10.462  70.998  1.00  0.00    -0.339 OA 
HETATM   24  C   UNL     1      -9.808   6.931  67.988  1.00  0.00    -0.139 A  
HETATM   25 CL   UNL     1      -9.363   4.210  67.940  1.00  0.00    -0.191 Cl 
HETATM   26  C   UNL     1      -9.132   5.837  67.343  1.00  0.00    -0.110 A  
BRANCH  22  27
HETATM   27  C   UNL     1     -10.332   5.811  70.258  1.00  0.00    -0.252 C  
HETATM   28  C   UNL     1     -10.620   6.039  71.728  1.00  0.00    -0.277 C  
HETATM   29  C   UNL     1      -9.254   5.621  71.311  1.00  0.00    -0.164 C  
ENDBRANCH  22  27
ENDBRANCH   9  11
TORSDOF 2
ENDMDL
MODEL      125
REMARK 921   NORMALIZED FREE ENERGY PREDICTED BY IDOCK:   -3.08 KCAL/MOL
REMARK 922        TOTAL FREE ENERGY PREDICTED BY IDOCK:   -4.17 KCAL/MOL
REMARK 923 INTER-LIGAND FREE ENERGY PREDICTED BY IDOCK:   -3.71 KCAL/MOL
REMARK 924 INTRA-LIGAND FREE ENERGY PREDICTED BY IDOCK:   -0.47 KCAL/MOL
REMARK 927      BINDING AFFINITY PREDICTED BY RF-SCORE:    0.00 PKD
ROOT
HETATM    1  N   UNL     1      -7.467  11.036  67.518  1.00  0.00    -0.098 NA 
HETATM    2  C   UNL     1      -6.771  10.597  66.297  1.00  0.00    -0.129 C  
HETATM    3  H1  UNL     1      -6.904  10.850  68.349  1.00  0.00     0.000 HD 
HETATM    4  H2  UNL     1      -8.395  10.618  67.592  1.00  0.00     0.000 HD 
HETATM    5  C   UNL     1      -7.618  10.876  65.045  1.00  0.00     0.286 C  
HETATM    6  C   UNL     1      -8.836   9.966  64.833  1.00  0.00    -0.223 C  
HETATM    7  C   UNL     1      -8.465   8.528  64.443  1.00  0.00    -0.089 C  
HETATM    8  C   UNL     1      -8.118   7.568  65.598  1.00  0.00    -0.128 C  
HETATM    9  N   UNL     1      -7.511   8.261  66.750  1.00  0.00    -0.086 NA 
HETATM   10  C   UNL     1      -6.353   9.110  66.371  1.00  0.00    -0.065 C  
ENDROOT
BRANCH   9  11
HETATM   11  C   UNL     1      -7.683   7.759  68.060  1.00  0.00    -0.126 A  
HETATM   12  C   UNL     1      -6.697   6.971  68.695  1.00  0.00    -0.063 A  
HETATM   13  C   UNL     1      -6.848   6.440  69.963  1.00  0.00    -0.054 A  
HETATM   14  F   UNL     1      -5.537   6.645  68.110  1.00  0.00    -0.010 F  
HETATM   15  C   UNL     1      -8.035   6.623  70.657  1.00  0.00    -0.111 A  
HETATM   16  C   UNL     1      -8.143   5.928  71.958  1.00  0.00    -0.108 C  
HETATM   17  C   UNL     1      -9.417   5.984  72.676  1.00  0.00    -0.150 C  
HETATM   18  O   UNL     1      -7.209   5.278  72.422  1.00  0.00    -0.086 OA 
HETATM   19  C   UNL     1      -9.672   5.248  73.927  1.00  0.00    -0.154 C  
HETATM   20  C   UNL     1     -10.370   6.755  72.129  1.00  0.00    -0.200 C  
HETATM   21  O   UNL     1      -8.632   4.517  74.380  1.00  0.00    -0.105 OA 
HETATM   22  N   UNL     1     -10.266   7.531  70.980  1.00  0.00    -0.191 NA 
HETATM   23  O   UNL     1     -10.748   5.284  74.520  1.00  0.00    -0.323 OA 
HETATM   24  C   UNL     1      -9.079   7.429  70.156  1.00  0.00    -0.148 A  
HETATM   25 CL   UNL     1      -9.810   9.422  68.396  1.00  0.00    -0.169 Cl 
HETATM   26  C   UNL     1      -8.836   8.054  68.883  1.00  0.00    -0.141 A  
BRANCH  22  27
HETATM   27  C   UNL     1     -11.483   8.281  70.581  1.00  0.00    -0.225 C  
HETATM   28  C   UNL     1     -11.691   9.696  71.082  1.00  0.00    -0.450 C  
HETATM   29  C   UNL     1     -12.631   8.626  71.513  1.00  0.00    -0.360 C  
ENDBRANCH  22  27
ENDBRANCH   9  11
TORSDOF 2
ENDMDL
MODEL      126
REMARK 921   NORMALIZED FREE ENERGY PREDICTED BY IDOCK:   -3.02 KCAL/MOL
REMARK 922        TOTAL FREE ENERGY PREDICTED BY IDOCK:   -4.11 KCAL/MOL
REMARK 923 INTER-LIGAND FREE ENERGY PREDICTED BY IDOCK:   -4.21 KCAL/MOL
REMARK 924 INTRA-LIGAND FREE ENERGY PREDICTED BY IDOCK:    0.10 KCAL/MOL
REMARK 927      BINDING AFFINITY PREDICTED BY RF-SCORE:    0.00 PKD
ROOT
HETATM    1  N   UNL     1      -7.491  14.485  69.366  1.00  0.00    -0.304 NA 
HETATM    2  C   UNL     1      -7.238  14.548  67.917  1.00  0.00    -0.158 C  
HETATM    3  H1  UNL     1      -6.702  14.067  69.859  1.00  0.00     0.000 HD 
HETATM    4  H2  UNL     1      -8.364  14.000  69.575  1.00  0.00     0.000 HD 
HETATM    5  C   UNL     1      -8.426  15.178  67.174  1.00  0.00    -0.238 C  
HETATM    6  C   UNL     1      -9.687  14.310  67.048  1.00  0.00    -0.253 C  
HETATM    7  C   UNL     1      -9.521  13.127  66.084  1.00  0.00    -0.156 C  
HETATM    8  C   UNL     1      -8.866  11.856  66.658  1.00  0.00    -0.191 C  
HETATM    9  N   UNL     1      -7.895  12.152  67.729  1.00  0.00    -0.137 NA 
HETATM   10  C   UNL     1      -6.882  13.162  67.330  1.00  0.00    -0.102 C  
ENDROOT
BRANCH   9  11
HETATM   11  C   UNL     1      -7.662  11.216  68.764  1.00  0.00    -0.136 A  
HETATM   12  C   UNL     1      -6.415  11.122  69.420  1.00  0.00    -0.100 A  
HETATM   13  C   UNL     1      -6.147  10.197  70.413  1.00  0.00    -0.102 A  
HETATM   14  F   UNL     1      -5.371  11.902  69.116  1.00  0.00    -0.051 F  
HETATM   15  C   UNL     1      -7.108   9.265  70.774  1.00  0.00    -0.121 A  
HETATM   16  C   UNL     1      -6.693   8.251  71.767  1.00  0.00    -0.070 C  
HETATM   17  C   UNL     1      -7.624   7.170  72.093  1.00  0.00    -0.089 C  
HETATM   18  O   UNL     1      -5.580   8.275  72.287  1.00  0.00    -0.037 OA 
HETATM   19  C   UNL     1      -7.281   6.051  72.988  1.00  0.00    -0.089 C  
HETATM   20  C   UNL     1      -8.837   7.242  71.522  1.00  0.00    -0.122 C  
HETATM   21  O   UNL     1      -6.035   6.097  73.507  1.00  0.00    -0.058 OA 
HETATM   22  N   UNL     1      -9.314   8.248  70.689  1.00  0.00    -0.154 NA 
HETATM   23  O   UNL     1      -8.059   5.135  73.249  1.00  0.00    -0.109 OA 
HETATM   24  C   UNL     1      -8.410   9.282  70.230  1.00  0.00    -0.186 A  
HETATM   25 CL   UNL     1     -10.339  10.750  68.915  1.00  0.00    -0.204 Cl 
HETATM   26  C   UNL     1      -8.682  10.329  69.282  1.00  0.00    -0.174 A  
BRANCH  22  27
HETATM   27  C   UNL     1     -10.697   8.075  70.177  1.00  0.00    -0.244 C  
HETATM   28  C   UNL     1     -11.563   6.954  70.716  1.00  0.00    -0.397 C  
HETATM   29  C   UNL     1     -11.154   6.935  69.285  1.00  0.00    -0.229 C  
ENDBRANCH  22  27
ENDBRANCH   9  11
TORSDOF 2
ENDMDL
MODEL      127
REMARK 921   NORMALIZED FREE ENERGY PREDICTED BY IDOCK:   -2.98 KCAL/MOL
REMARK 922        TOTAL FREE ENERGY PREDICTED BY IDOCK:   -4.06 KCAL/MOL
REMARK 923 INTER-LIGAND FREE ENERGY PREDICTED BY IDOCK:   -3.29 KCAL/MOL
REMARK 924 INTRA-LIGAND FREE ENERGY PREDICTED BY IDOCK:   -0.77 KCAL/MOL
REMARK 927      BINDING AFFINITY PREDICTED BY RF-SCORE:    0.00 PKD
ROOT
HETATM    1  N   UNL     1      -8.150   8.505  65.141  1.00  0.00    -0.133 NA 
HETATM    2  C   UNL     1      -9.473   9.013  64.740  1.00  0.00     0.353 C  
HETATM    3  H1  UNL     1      -8.229   7.836  65.907  1.00  0.00     0.000 HD 
HETATM    4  H2  UNL     1      -7.509   9.265  65.371  1.00  0.00     0.000 HD 
HETATM    5  C   UNL     1      -9.353  10.020  63.585  1.00  0.00    -0.301 C  
HETATM    6  C   UNL     1      -8.788  11.402  63.945  1.00  0.00     0.277 C  
HETATM    7  C   UNL     1      -9.747  12.255  64.787  1.00  0.00    -0.033 C  
HETATM    8  C   UNL     1      -9.740  12.005  66.308  1.00  0.00    -0.235 C  
HETATM    9  N   UNL     1      -9.406  10.609  66.652  1.00  0.00    -0.163 NA 
HETATM   10  C   UNL     1     -10.247   9.618  65.934  1.00  0.00    -0.149 C  
ENDROOT
BRANCH   9  11
HETATM   11  C   UNL     1      -8.758  10.307  67.872  1.00  0.00    -0.122 A  
HETATM   12  C   UNL     1      -7.380  10.546  68.066  1.00  0.00    -0.089 A  
HETATM   13  C   UNL     1      -6.711  10.233  69.236  1.00  0.00    -0.063 A  
HETATM   14  F   UNL     1      -6.591  11.072  67.120  1.00  0.00    -0.067 F  
HETATM   15  C   UNL     1      -7.382   9.603  70.274  1.00  0.00    -0.153 A  
HETATM   16  C   UNL     1      -6.560   9.212  71.439  1.00  0.00    -0.059 C  
HETATM   17  C   UNL     1      -7.189   8.435  72.508  1.00  0.00    -0.114 C  
HETATM   18  O   UNL     1      -5.365   9.487  71.507  1.00  0.00    -0.058 OA 
HETATM   19  C   UNL     1      -6.446   7.904  73.664  1.00  0.00    -0.093 C  
HETATM   20  C   UNL     1      -8.508   8.219  72.384  1.00  0.00    -0.190 C  
HETATM   21  O   UNL     1      -5.129   8.198  73.679  1.00  0.00    -0.041 OA 
HETATM   22  N   UNL     1      -9.344   8.682  71.374  1.00  0.00    -0.212 NA 
HETATM   23  O   UNL     1      -6.973   7.239  74.554  1.00  0.00    -0.098 OA 
HETATM   24  C   UNL     1      -8.770   9.352  70.225  1.00  0.00    -0.230 A  
HETATM   25 CL   UNL     1     -11.187   9.984  69.056  1.00  0.00    -0.215 Cl 
HETATM   26  C   UNL     1      -9.448   9.795  69.036  1.00  0.00    -0.173 A  
BRANCH  22  27
HETATM   27  C   UNL     1     -10.770   8.283  71.467  1.00  0.00    -0.235 C  
HETATM   28  C   UNL     1     -11.231   7.404  72.612  1.00  0.00    -0.379 C  
HETATM   29  C   UNL     1     -11.294   6.879  71.220  1.00  0.00    -0.319 C  
ENDBRANCH  22  27
ENDBRANCH   9  11
TORSDOF 2
ENDMDL
MODEL      128
REMARK 921   NORMALIZED FREE ENERGY PREDICTED BY IDOCK:   -2.85 KCAL/MOL
REMARK 922        TOTAL FREE ENERGY PREDICTED BY IDOCK:   -3.92 KCAL/MOL
REMARK 923 INTER-LIGAND FREE ENERGY PREDICTED BY IDOCK:   -3.15 KCAL/MOL
REMARK 924 INTRA-LIGAND FREE ENERGY PREDICTED BY IDOCK:   -0.77 KCAL/MOL
REMARK 927      BINDING AFFINITY PREDICTED BY RF-SCORE:    0.00 PKD
ROOT
HETATM    1  N   UNL     1     -10.154   9.789  64.010  1.00  0.00    -0.273 NA 
HETATM    2  C   UNL     1      -9.243  10.946  63.994  1.00  0.00    -0.197 C  
HETATM    3  H1  UNL     1     -10.676   9.744  64.885  1.00  0.00     0.000 HD 
HETATM    4  H2  UNL     1      -9.657   8.917  63.823  1.00  0.00     0.000 HD 
HETATM    5  C   UNL     1      -8.457  11.014  62.675  1.00  0.00    -0.213 C  
HETATM    6  C   UNL     1      -7.345   9.971  62.492  1.00  0.00    -0.134 C  
HETATM    7  C   UNL     1      -6.130  10.208  63.401  1.00  0.00    -0.143 C  
HETATM    8  C   UNL     1      -6.225   9.657  64.837  1.00  0.00    -0.085 C  
HETATM    9  N   UNL     1      -7.609   9.641  65.348  1.00  0.00    -0.106 NA 
HETATM   10  C   UNL     1      -8.293  10.952  65.213  1.00  0.00    -0.025 C  
ENDROOT
BRANCH   9  11
HETATM   11  C   UNL     1      -8.010   8.674  66.299  1.00  0.00    -0.102 A  
HETATM   12  C   UNL     1      -8.341   9.023  67.626  1.00  0.00    -0.117 A  
HETATM   13  C   UNL     1      -8.707   8.098  68.587  1.00  0.00    -0.134 A  
HETATM   14  F   UNL     1      -8.302  10.282  68.081  1.00  0.00    -0.112 F  
HETATM   15  C   UNL     1      -8.709   6.744  68.285  1.00  0.00    -0.123 A  
HETATM   16  C   UNL     1      -9.009   5.826  69.404  1.00  0.00    -0.116 C  
HETATM   17  C   UNL     1      -8.904   4.384  69.173  1.00  0.00    -0.132 C  
HETATM   18  O   UNL     1      -9.301   6.245  70.522  1.00  0.00    -0.160 OA 
HETATM   19  C   UNL     1      -9.079   3.381  70.238  1.00  0.00    -0.131 C  
HETATM   20  C   UNL     1      -8.631   4.007  67.915  1.00  0.00    -0.097 C  
HETATM   21  O   UNL     1      -9.361   3.887  71.457  1.00  0.00    -0.117 OA 
HETATM   22  N   UNL     1      -8.474   4.830  66.805  1.00  0.00    -0.106 NA 
HETATM   23  O   UNL     1      -8.976   2.171  70.045  1.00  0.00    -0.071 OA 
HETATM   24  C   UNL     1      -8.445   6.267  66.983  1.00  0.00    -0.108 A  
HETATM   25 CL   UNL     1      -8.317   6.861  64.293  1.00  0.00     0.056 Cl 
HETATM   26  C   UNL     1      -8.179   7.271  65.987  1.00  0.00    -0.138 A  
BRANCH  22  27
HETATM   27  C   UNL     1      -8.158   4.152  65.523  1.00  0.00    -0.101 C  
HETATM   28  C   UNL     1      -8.586   2.715  65.308  1.00  0.00    -0.105 C  
HETATM   29  C   UNL     1      -7.135   3.041  65.361  1.00  0.00    -0.061 C  
ENDBRANCH  22  27
ENDBRANCH   9  11
TORSDOF 2
ENDMDL
MODEL      129
REMARK 921   NORMALIZED FREE ENERGY PREDICTED BY IDOCK:   -2.79 KCAL/MOL
REMARK 922        TOTAL FREE ENERGY PREDICTED BY IDOCK:   -3.85 KCAL/MOL
REMARK 923 INTER-LIGAND FREE ENERGY PREDICTED BY IDOCK:   -3.79 KCAL/MOL
REMARK 924 INTRA-LIGAND FREE ENERGY PREDICTED BY IDOCK:   -0.06 KCAL/MOL
REMARK 927      BINDING AFFINITY PREDICTED BY RF-SCORE:    0.00 PKD
ROOT
HETATM    1  N   UNL     1      -7.154  19.485  70.523  1.00  0.00     0.441 NA 
HETATM    2  C   UNL     1      -5.769  19.775  70.114  1.00  0.00    -0.278 C  
HETATM    3  H1  UNL     1      -7.203  18.627  71.074  1.00  0.00     0.000 HD 
HETATM    4  H2  UNL     1      -7.784  19.453  69.721  1.00  0.00     0.000 HD 
HETATM    5  C   UNL     1      -5.695  21.067  69.286  1.00  0.00    -0.266 C  
HETATM    6  C   UNL     1      -6.239  20.986  67.852  1.00  0.00    -0.406 C  
HETATM    7  C   UNL     1      -5.358  20.155  66.909  1.00  0.00    -0.172 C  
HETATM    8  C   UNL     1      -5.571  18.628  66.932  1.00  0.00    -0.143 C  
HETATM    9  N   UNL     1      -6.008  18.136  68.252  1.00  0.00    -0.173 NA 
HETATM   10  C   UNL     1      -5.128  18.587  69.360  1.00  0.00    -0.179 C  
ENDROOT
BRANCH   9  11
HETATM   11  C   UNL     1      -6.820  16.983  68.354  1.00  0.00    -0.170 A  
HETATM   12  C   UNL     1      -6.366  15.803  68.983  1.00  0.00    -0.126 A  
HETATM   13  C   UNL     1      -7.124  14.648  69.071  1.00  0.00    -0.128 A  
HETATM   14  F   UNL     1      -5.148  15.687  69.525  1.00  0.00    -0.097 F  
HETATM   15  C   UNL     1      -8.377  14.592  68.478  1.00  0.00    -0.160 A  
HETATM   16  C   UNL     1      -9.065  13.284  68.533  1.00  0.00    -0.064 C  
HETATM   17  C   UNL     1     -10.333  13.132  67.817  1.00  0.00    -0.230 C  
HETATM   18  O   UNL     1      -8.580  12.323  69.125  1.00  0.00     0.329 OA 
HETATM   19  C   UNL     1     -11.054  11.851  67.716  1.00  0.00    -0.239 C  
HETATM   20  C   UNL     1     -10.821  14.240  67.239  1.00  0.00    -0.284 C  
HETATM   21  O   UNL     1     -10.466  10.814  68.349  1.00  0.00    -0.166 OA 
HETATM   22  N   UNL     1     -10.275  15.518  67.276  1.00  0.00    -0.255 NA 
HETATM   23  O   UNL     1     -12.111  11.722  67.102  1.00  0.00    -0.592 OA 
HETATM   24  C   UNL     1      -8.966  15.716  67.861  1.00  0.00    -0.180 A  
HETATM   25 CL   UNL     1      -8.978  18.462  67.608  1.00  0.00    -0.276 Cl 
HETATM   26  C   UNL     1      -8.189  16.927  67.890  1.00  0.00    -0.197 A  
BRANCH  22  27
HETATM   27  C   UNL     1     -11.013  16.570  66.533  1.00  0.00     0.071 C  
HETATM   28  C   UNL     1     -11.459  16.311  65.108  1.00  0.00     0.163 C  
HETATM   29  C   UNL     1     -10.447  17.370  65.373  1.00  0.00    -0.012 C  
ENDBRANCH  22  27
ENDBRANCH   9  11
TORSDOF 2
ENDMDL
MODEL      130
REMARK 921   NORMALIZED FREE ENERGY PREDICTED BY IDOCK:   -2.66 KCAL/MOL
REMARK 922        TOTAL FREE ENERGY PREDICTED BY IDOCK:   -3.71 KCAL/MOL
REMARK 923 INTER-LIGAND FREE ENERGY PREDICTED BY IDOCK:   -4.23 KCAL/MOL
REMARK 924 INTRA-LIGAND FREE ENERGY PREDICTED BY IDOCK:    0.52 KCAL/MOL
REMARK 927      BINDING AFFINITY PREDICTED BY RF-SCORE:    0.00 PKD
ROOT
HETATM    1  N   UNL     1     -10.406   4.146  74.557  1.00  0.00    -0.223 NA 
HETATM    2  C   UNL     1     -10.327   2.897  73.779  1.00  0.00    -0.139 C  
HETATM    3  H1  UNL     1     -11.271   4.648  74.359  1.00  0.00     0.000 HD 
HETATM    4  H2  UNL     1      -9.586   4.735  74.407  1.00  0.00     0.000 HD 
HETATM    5  C   UNL     1      -9.023   2.140  74.078  1.00  0.00    -0.072 C  
HETATM    6  C   UNL     1      -7.738   2.741  73.489  1.00  0.00    -0.052 C  
HETATM    7  C   UNL     1      -7.643   2.604  71.963  1.00  0.00    -0.048 C  
HETATM    8  C   UNL     1      -8.367   3.678  71.127  1.00  0.00    -0.067 C  
HETATM    9  N   UNL     1      -9.564   4.212  71.805  1.00  0.00    -0.147 NA 
HETATM   10  C   UNL     1     -10.494   3.149  72.263  1.00  0.00     0.043 C  
ENDROOT
BRANCH   9  11
HETATM   11  C   UNL     1      -9.993   5.538  71.563  1.00  0.00    -0.177 A  
HETATM   12  C   UNL     1     -11.301   5.969  71.874  1.00  0.00    -0.279 A  
HETATM   13  C   UNL     1     -11.760   7.250  71.621  1.00  0.00    -0.316 A  
HETATM   14  F   UNL     1     -12.224   5.166  72.417  1.00  0.00    -0.087 F  
HETATM   15  C   UNL     1     -10.941   8.169  70.982  1.00  0.00    -0.273 A  
HETATM   16  C   UNL     1     -11.554   9.475  70.658  1.00  0.00    -0.283 C  
HETATM   17  C   UNL     1     -10.777  10.436  69.875  1.00  0.00    -0.331 C  
HETATM   18  O   UNL     1     -12.704   9.748  70.994  1.00  0.00    -0.322 OA 
HETATM   19  C   UNL     1     -11.321  11.724  69.407  1.00  0.00    -0.272 C  
HETATM   20  C   UNL     1      -9.514  10.083  69.591  1.00  0.00    -0.223 C  
HETATM   21  O   UNL     1     -12.599  11.967  69.767  1.00  0.00    -0.001 OA 
HETATM   22  N   UNL     1      -8.855   8.925  69.989  1.00  0.00    -0.150 NA 
HETATM   23  O   UNL     1     -10.672  12.524  68.737  1.00  0.00    -0.228 OA 
HETATM   24  C   UNL     1      -9.597   7.879  70.661  1.00  0.00    -0.166 A  
HETATM   25 CL   UNL     1      -7.407   6.275  71.145  1.00  0.00    -0.079 Cl 
HETATM   26  C   UNL     1      -9.127   6.574  71.042  1.00  0.00    -0.150 A  
BRANCH  22  27
HETATM   27  C   UNL     1      -7.455   8.772  69.521  1.00  0.00    -0.075 C  
HETATM   28  C   UNL     1      -6.402   9.768  69.963  1.00  0.00    -0.064 C  
HETATM   29  C   UNL     1      -6.771   9.689  68.523  1.00  0.00    -0.052 C  
ENDBRANCH  22  27
ENDBRANCH   9  11
TORSDOF 2
ENDMDL
MODEL      131
REMARK 921   NORMALIZED FREE ENERGY PREDICTED BY IDOCK:   -2.65 KCAL/MOL
REMARK 922        TOTAL FREE ENERGY PREDICTED BY IDOCK:   -3.70 KCAL/MOL
REMARK 923 INTER-LIGAND FREE ENERGY PREDICTED BY IDOCK:   -2.89 KCAL/MOL
REMARK 924 INTRA-LIGAND FREE ENERGY PREDICTED BY IDOCK:   -0.80 KCAL/MOL
REMARK 927      BINDING AFFINITY PREDICTED BY RF-SCORE:    0.00 PKD
ROOT
HETATM    1  N   UNL     1      -8.769  11.477  68.427  1.00  0.00    -0.158 NA 
HETATM    2  C   UNL     1      -7.452  12.135  68.404  1.00  0.00    -0.114 C  
HETATM    3  H1  UNL     1      -9.110  11.368  69.382  1.00  0.00     0.000 HD 
HETATM    4  H2  UNL     1      -8.753  10.586  67.930  1.00  0.00     0.000 HD 
HETATM    5  C   UNL     1      -6.940  12.300  66.964  1.00  0.00    -0.036 C  
HETATM    6  C   UNL     1      -6.457  11.020  66.265  1.00  0.00    -0.112 C  
HETATM    7  C   UNL     1      -5.138  10.475  66.830  1.00  0.00    -0.042 C  
HETATM    8  C   UNL     1      -5.240   9.588  68.086  1.00  0.00    -0.036 C  
HETATM    9  N   UNL     1      -6.384   9.950  68.945  1.00  0.00    -0.041 NA 
HETATM   10  C   UNL     1      -6.420  11.395  69.285  1.00  0.00    -0.096 C  
ENDROOT
BRANCH   9  11
HETATM   11  C   UNL     1      -7.020   8.970  69.743  1.00  0.00    -0.054 A  
HETATM   12  C   UNL     1      -6.874   8.940  71.147  1.00  0.00    -0.085 A  
HETATM   13  C   UNL     1      -7.457   7.977  71.952  1.00  0.00    -0.093 A  
HETATM   14  F   UNL     1      -6.132   9.827  71.822  1.00  0.00    -0.047 F  
HETATM   15  C   UNL     1      -8.185   6.942  71.383  1.00  0.00    -0.110 A  
HETATM   16  C   UNL     1      -8.678   5.904  72.312  1.00  0.00    -0.128 C  
HETATM   17  C   UNL     1      -9.344   4.726  71.754  1.00  0.00    -0.186 C  
HETATM   18  O   UNL     1      -8.504   5.989  73.526  1.00  0.00    -0.119 OA 
HETATM   19  C   UNL     1      -9.784   3.583  72.574  1.00  0.00    -0.147 C  
HETATM   20  C   UNL     1      -9.540   4.732  70.427  1.00  0.00    -0.197 C  
HETATM   21  O   UNL     1      -9.539   3.702  73.896  1.00  0.00    -0.095 OA 
HETATM   22  N   UNL     1      -9.213   5.747  69.533  1.00  0.00    -0.129 NA 
HETATM   23  O   UNL     1     -10.330   2.588  72.101  1.00  0.00    -0.139 OA 
HETATM   24  C   UNL     1      -8.445   6.884  69.997  1.00  0.00    -0.140 A  
HETATM   25 CL   UNL     1      -8.559   8.265  67.613  1.00  0.00    -0.130 Cl 
HETATM   26  C   UNL     1      -7.915   7.966  69.211  1.00  0.00    -0.117 A  
BRANCH  22  27
HETATM   27  C   UNL     1      -9.525   5.490  68.105  1.00  0.00    -0.114 C  
HETATM   28  C   UNL     1      -9.911   4.094  67.659  1.00  0.00    -0.122 C  
HETATM   29  C   UNL     1      -8.646   4.696  67.156  1.00  0.00    -0.104 C  
ENDBRANCH  22  27
ENDBRANCH   9  11
TORSDOF 2
ENDMDL
MODEL      132
REMARK 921   NORMALIZED FREE ENERGY PREDICTED BY IDOCK:   -2.65 KCAL/MOL
REMARK 922        TOTAL FREE ENERGY PREDICTED BY IDOCK:   -3.69 KCAL/MOL
REMARK 923 INTER-LIGAND FREE ENERGY PREDICTED BY IDOCK:   -2.91 KCAL/MOL
REMARK 924 INTRA-LIGAND FREE ENERGY PREDICTED BY IDOCK:   -0.78 KCAL/MOL
REMARK 927      BINDING AFFINITY PREDICTED BY RF-SCORE:    0.00 PKD
ROOT
HETATM    1  N   UNL     1     -10.424   5.302  67.668  1.00  0.00    -0.149 NA 
HETATM    2  C   UNL     1     -10.088   4.587  66.424  1.00  0.00    -0.244 C  
HETATM    3  H1  UNL     1     -10.856   6.204  67.468  1.00  0.00     0.000 HD 
HETATM    4  H2  UNL     1      -9.611   5.401  68.276  1.00  0.00     0.000 HD 
HETATM    5  C   UNL     1      -9.438   3.228  66.725  1.00  0.00    -0.132 C  
HETATM    6  C   UNL     1      -7.994   3.266  67.247  1.00  0.00    -0.078 C  
HETATM    7  C   UNL     1      -6.971   3.688  66.183  1.00  0.00    -0.062 C  
HETATM    8  C   UNL     1      -6.788   5.202  65.962  1.00  0.00    -0.061 C  
HETATM    9  N   UNL     1      -8.023   5.966  66.226  1.00  0.00    -0.101 NA 
HETATM   10  C   UNL     1      -9.200   5.439  65.489  1.00  0.00    -0.081 C  
ENDROOT
BRANCH   9  11
HETATM   11  C   UNL     1      -7.954   7.303  66.682  1.00  0.00    -0.114 A  
HETATM   12  C   UNL     1      -8.314   8.393  65.861  1.00  0.00    -0.134 A  
HETATM   13  C   UNL     1      -8.228   9.713  66.268  1.00  0.00    -0.116 A  
HETATM   14  F   UNL     1      -8.743   8.247  64.601  1.00  0.00    -0.154 F  
HETATM   15  C   UNL     1      -7.718  10.023  67.520  1.00  0.00    -0.091 A  
HETATM   16  C   UNL     1      -7.565  11.462  67.823  1.00  0.00    -0.105 C  
HETATM   17  C   UNL     1      -6.918  11.847  69.078  1.00  0.00    -0.098 C  
HETATM   18  O   UNL     1      -7.929  12.330  67.033  1.00  0.00    -0.169 OA 
HETATM   19  C   UNL     1      -6.621  13.245  69.438  1.00  0.00    -0.069 C  
HETATM   20  C   UNL     1      -6.596  10.843  69.908  1.00  0.00    -0.148 C  
HETATM   21  O   UNL     1      -7.003  14.162  68.525  1.00  0.00    -0.090 OA 
HETATM   22  N   UNL     1      -6.842   9.487  69.723  1.00  0.00    -0.057 NA 
HETATM   23  O   UNL     1      -6.063  13.564  70.486  1.00  0.00    -0.154 OA 
HETATM   24  C   UNL     1      -7.368   9.026  68.455  1.00  0.00    -0.078 A  
HETATM   25 CL   UNL     1      -7.648   6.394  69.229  1.00  0.00    -0.097 Cl 
HETATM   26  C   UNL     1      -7.578   7.666  68.032  1.00  0.00    -0.110 A  
BRANCH  22  27
HETATM   27  C   UNL     1      -6.365   8.579  70.795  1.00  0.00    -0.039 C  
HETATM   28  C   UNL     1      -7.161   8.448  72.078  1.00  0.00    -0.107 C  
HETATM   29  C   UNL     1      -5.795   9.037  72.126  1.00  0.00    -0.072 C  
ENDBRANCH  22  27
ENDBRANCH   9  11
TORSDOF 2
ENDMDL
MODEL      133
REMARK 921   NORMALIZED FREE ENERGY PREDICTED BY IDOCK:   -2.55 KCAL/MOL
REMARK 922        TOTAL FREE ENERGY PREDICTED BY IDOCK:   -3.59 KCAL/MOL
REMARK 923 INTER-LIGAND FREE ENERGY PREDICTED BY IDOCK:   -3.51 KCAL/MOL
REMARK 924 INTRA-LIGAND FREE ENERGY PREDICTED BY IDOCK:   -0.08 KCAL/MOL
REMARK 927      BINDING AFFINITY PREDICTED BY RF-SCORE:    0.00 PKD
ROOT
HETATM    1  N   UNL     1      -8.602   9.072  65.514  1.00  0.00    -0.157 NA 
HETATM    2  C   UNL     1      -9.973   9.612  65.510  1.00  0.00    -0.209 C  
HETATM    3  H1  UNL     1      -8.595   8.090  65.789  1.00  0.00     0.000 HD 
HETATM    4  H2  UNL     1      -7.980   9.631  66.099  1.00  0.00     0.000 HD 
HETATM    5  C   UNL     1      -9.984  11.091  65.095  1.00  0.00    -0.333 C  
HETATM    6  C   UNL     1      -9.455  12.092  66.133  1.00  0.00    -0.241 C  
HETATM    7  C   UNL     1     -10.386  12.269  67.341  1.00  0.00    -0.219 C  
HETATM    8  C   UNL     1     -10.253  11.231  68.473  1.00  0.00    -0.205 C  
HETATM    9  N   UNL     1      -9.833   9.905  67.980  1.00  0.00    -0.144 NA 
HETATM   10  C   UNL     1     -10.681   9.404  66.868  1.00  0.00    -0.104 C  
ENDROOT
BRANCH   9  11
HETATM   11  C   UNL     1      -9.083   9.038  68.807  1.00  0.00    -0.137 A  
HETATM   12  C   UNL     1      -7.707   8.803  68.592  1.00  0.00    -0.098 A  
HETATM   13  C   UNL     1      -6.954   7.937  69.364  1.00  0.00    -0.059 A  
HETATM   14  F   UNL     1      -7.016   9.377  67.599  1.00  0.00    -0.076 F  
HETATM   15  C   UNL     1      -7.555   7.204  70.376  1.00  0.00    -0.089 A  
HETATM   16  C   UNL     1      -6.693   6.226  71.074  1.00  0.00    -0.058 C  
HETATM   17  C   UNL     1      -7.303   5.340  72.066  1.00  0.00    -0.088 C  
HETATM   18  O   UNL     1      -5.498   6.118  70.812  1.00  0.00    -0.017 OA 
HETATM   19  C   UNL     1      -6.565   4.261  72.748  1.00  0.00    -0.045 C  
HETATM   20  C   UNL     1      -8.601   5.555  72.331  1.00  0.00    -0.118 C  
HETATM   21  O   UNL     1      -5.265   4.154  72.402  1.00  0.00     0.000 OA 
HETATM   22  N   UNL     1      -9.415   6.548  71.797  1.00  0.00    -0.153 NA 
HETATM   23  O   UNL     1      -7.084   3.508  73.569  1.00  0.00    -0.047 OA 
HETATM   24  C   UNL     1      -8.911   7.381  70.725  1.00  0.00    -0.151 A  
HETATM   25 CL   UNL     1     -11.127   9.019  70.604  1.00  0.00    -0.296 Cl 
HETATM   26  C   UNL     1      -9.630   8.372  69.970  1.00  0.00    -0.168 A  
BRANCH  22  27
HETATM   27  C   UNL     1     -10.828   6.554  72.251  1.00  0.00    -0.232 C  
HETATM   28  C   UNL     1     -11.160   6.173  73.680  1.00  0.00     0.102 C  
HETATM   29  C   UNL     1     -11.642   5.312  72.566  1.00  0.00    -0.166 C  
ENDBRANCH  22  27
ENDBRANCH   9  11
TORSDOF 2
ENDMDL
MODEL      134
REMARK 921   NORMALIZED FREE ENERGY PREDICTED BY IDOCK:   -2.32 KCAL/MOL
REMARK 922        TOTAL FREE ENERGY PREDICTED BY IDOCK:   -3.32 KCAL/MOL
REMARK 923 INTER-LIGAND FREE ENERGY PREDICTED BY IDOCK:   -3.63 KCAL/MOL
REMARK 924 INTRA-LIGAND FREE ENERGY PREDICTED BY IDOCK:    0.30 KCAL/MOL
REMARK 927      BINDING AFFINITY PREDICTED BY RF-SCORE:    0.00 PKD
ROOT
HETATM    1  N   UNL     1      -9.451   8.245  65.872  1.00  0.00    -0.430 NA 
HETATM    2  C   UNL     1      -8.645   8.044  64.655  1.00  0.00     0.111 C  
HETATM    3  H1  UNL     1     -10.117   9.009  65.750  1.00  0.00     0.000 HD 
HETATM    4  H2  UNL     1      -8.863   8.386  66.693  1.00  0.00     0.000 HD 
HETATM    5  C   UNL     1      -7.643   6.894  64.838  1.00  0.00    -0.106 C  
HETATM    6  C   UNL     1      -6.438   7.180  65.745  1.00  0.00    -0.047 C  
HETATM    7  C   UNL     1      -5.429   8.159  65.131  1.00  0.00    -0.039 C  
HETATM    8  C   UNL     1      -5.737   9.661  65.293  1.00  0.00    -0.064 C  
HETATM    9  N   UNL     1      -7.184   9.940  65.347  1.00  0.00    -0.118 NA 
HETATM   10  C   UNL     1      -7.933   9.343  64.212  1.00  0.00    -0.133 C  
ENDROOT
BRANCH   9  11
HETATM   11  C   UNL     1      -7.673  11.051  66.073  1.00  0.00    -0.059 A  
HETATM   12  C   UNL     1      -7.032  11.522  67.240  1.00  0.00    -0.125 A  
HETATM   13  C   UNL     1      -7.503  12.585  67.990  1.00  0.00    -0.117 A  
HETATM   14  F   UNL     1      -5.925  10.960  67.742  1.00  0.00    -0.043 F  
HETATM   15  C   UNL     1      -8.690  13.212  67.639  1.00  0.00    -0.192 A  
HETATM   16  C   UNL     1      -9.167  14.266  68.560  1.00  0.00    -0.197 C  
HETATM   17  C   UNL     1     -10.474  14.875  68.308  1.00  0.00    -0.239 C  
HETATM   18  O   UNL     1      -8.515  14.607  69.544  1.00  0.00     0.014 OA 
HETATM   19  C   UNL     1     -11.095  15.858  69.213  1.00  0.00    -0.312 C  
HETATM   20  C   UNL     1     -11.100  14.485  67.187  1.00  0.00    -0.321 C  
HETATM   21  O   UNL     1     -10.361  16.175  70.300  1.00  0.00    -0.143 OA 
HETATM   22  N   UNL     1     -10.629  13.598  66.225  1.00  0.00    -0.286 NA 
HETATM   23  O   UNL     1     -12.200  16.357  69.006  1.00  0.00     0.089 OA 
HETATM   24  C   UNL     1      -9.401  12.869  66.470  1.00  0.00    -0.222 A  
HETATM   25 CL   UNL     1      -9.317  11.660  63.992  1.00  0.00    -0.041 Cl 
HETATM   26  C   UNL     1      -8.818  11.834  65.659  1.00  0.00     0.123 A  
BRANCH  22  27
HETATM   27  C   UNL     1     -11.534  13.326  65.081  1.00  0.00    -0.295 C  
HETATM   28  C   UNL     1     -13.010  13.648  65.199  1.00  0.00    -0.277 C  
HETATM   29  C   UNL     1     -12.584  12.230  65.050  1.00  0.00    -0.157 C  
ENDBRANCH  22  27
ENDBRANCH   9  11
TORSDOF 2
ENDMDL
MODEL      135
REMARK 921   NORMALIZED FREE ENERGY PREDICTED BY IDOCK:   -2.25 KCAL/MOL
REMARK 922        TOTAL FREE ENERGY PREDICTED BY IDOCK:   -3.25 KCAL/MOL
REMARK 923 INTER-LIGAND FREE ENERGY PREDICTED BY IDOCK:   -3.19 KCAL/MOL
REMARK 924 INTRA-LIGAND FREE ENERGY PREDICTED BY IDOCK:   -0.06 KCAL/MOL
REMARK 927      BINDING AFFINITY PREDICTED BY RF-SCORE:    0.00 PKD
ROOT
HETATM    1  N   UNL     1      -8.249   7.396  63.984  1.00  0.00    -0.349 NA 
HETATM    2  C   UNL     1      -6.856   7.097  63.612  1.00  0.00    -0.052 C  
HETATM    3  H1  UNL     1      -8.288   8.012  64.797  1.00  0.00     0.000 HD 
HETATM    4  H2  UNL     1      -8.790   6.544  64.133  1.00  0.00     0.000 HD 
HETATM    5  C   UNL     1      -6.798   6.170  62.387  1.00  0.00    -0.037 C  
HETATM    6  C   UNL     1      -7.186   4.703  62.626  1.00  0.00    -0.039 C  
HETATM    7  C   UNL     1      -6.152   3.924  63.452  1.00  0.00    -0.018 C  
HETATM    8  C   UNL     1      -6.250   4.059  64.984  1.00  0.00    -0.027 C  
HETATM    9  N   UNL     1      -6.779   5.370  65.406  1.00  0.00    -0.040 NA 
HETATM   10  C   UNL     1      -6.053   6.513  64.796  1.00  0.00    -0.037 C  
ENDROOT
BRANCH   9  11
HETATM   11  C   UNL     1      -7.506   5.494  66.612  1.00  0.00    -0.087 A  
HETATM   12  C   UNL     1      -8.524   4.583  66.970  1.00  0.00    -0.104 A  
HETATM   13  C   UNL     1      -9.274   4.696  68.127  1.00  0.00    -0.162 A  
HETATM   14  F   UNL     1      -8.874   3.543  66.202  1.00  0.00    -0.110 F  
HETATM   15  C   UNL     1      -9.082   5.774  68.978  1.00  0.00    -0.123 A  
HETATM   16  C   UNL     1     -10.002   5.866  70.132  1.00  0.00    -0.191 C  
HETATM   17  C   UNL     1      -9.927   7.047  70.993  1.00  0.00    -0.196 C  
HETATM   18  O   UNL     1     -10.846   5.001  70.355  1.00  0.00    -0.086 OA 
HETATM   19  C   UNL     1     -10.859   7.294  72.107  1.00  0.00    -0.229 C  
HETATM   20  C   UNL     1      -8.947   7.920  70.714  1.00  0.00    -0.140 C  
HETATM   21  O   UNL     1     -11.793   6.337  72.292  1.00  0.00    -0.311 OA 
HETATM   22  N   UNL     1      -7.977   7.807  69.723  1.00  0.00    -0.113 NA 
HETATM   23  O   UNL     1     -10.804   8.294  72.820  1.00  0.00    -0.347 OA 
HETATM   24  C   UNL     1      -8.065   6.728  68.761  1.00  0.00    -0.120 A  
HETATM   25 CL   UNL     1      -5.684   7.311  67.497  1.00  0.00    -0.028 Cl 
HETATM   26  C   UNL     1      -7.235   6.511  67.606  1.00  0.00    -0.090 A  
BRANCH  22  27
HETATM   27  C   UNL     1      -7.013   8.930  69.617  1.00  0.00    -0.054 C  
HETATM   28  C   UNL     1      -5.962   9.122  70.691  1.00  0.00    -0.044 C  
HETATM   29  C   UNL     1      -7.014  10.159  70.508  1.00  0.00    -0.059 C  
ENDBRANCH  22  27
ENDBRANCH   9  11
TORSDOF 2
ENDMDL
MODEL      136
REMARK 921   NORMALIZED FREE ENERGY PREDICTED BY IDOCK:   -2.16 KCAL/MOL
REMARK 922        TOTAL FREE ENERGY PREDICTED BY IDOCK:   -3.15 KCAL/MOL
REMARK 923 INTER-LIGAND FREE ENERGY PREDICTED BY IDOCK:   -2.76 KCAL/MOL
REMARK 924 INTRA-LIGAND FREE ENERGY PREDICTED BY IDOCK:   -0.38 KCAL/MOL
REMARK 927      BINDING AFFINITY PREDICTED BY RF-SCORE:    0.00 PKD
ROOT
HETATM    1  N   UNL     1      -5.885  10.304  70.266  1.00  0.00    -0.068 NA 
HETATM    2  C   UNL     1      -5.396  11.247  69.246  1.00  0.00    -0.044 C  
HETATM    3  H1  UNL     1      -5.327   9.449  70.275  1.00  0.00     0.000 HD 
HETATM    4  H2  UNL     1      -6.878  10.103  70.147  1.00  0.00     0.000 HD 
HETATM    5  C   UNL     1      -6.235  12.534  69.233  1.00  0.00    -0.105 C  
HETATM    6  C   UNL     1      -7.646  12.419  68.638  1.00  0.00    -0.082 C  
HETATM    7  C   UNL     1      -7.653  12.223  67.115  1.00  0.00    -0.118 C  
HETATM    8  C   UNL     1      -7.466  10.781  66.604  1.00  0.00    -0.135 C  
HETATM    9  N   UNL     1      -6.636   9.962  67.508  1.00  0.00    -0.068 NA 
HETATM   10  C   UNL     1      -5.338  10.601  67.842  1.00  0.00    -0.036 C  
ENDROOT
BRANCH   9  11
HETATM   11  C   UNL     1      -6.833   8.564  67.592  1.00  0.00    -0.071 A  
HETATM   12  C   UNL     1      -6.090   7.655  66.807  1.00  0.00    -0.048 A  
HETATM   13  C   UNL     1      -6.281   6.286  66.843  1.00  0.00    -0.039 A  
HETATM   14  F   UNL     1      -5.153   8.044  65.933  1.00  0.00    -0.024 F  
HETATM   15  C   UNL     1      -7.279   5.743  67.640  1.00  0.00    -0.076 A  
HETATM   16  C   UNL     1      -7.478   4.282  67.531  1.00  0.00    -0.069 C  
HETATM   17  C   UNL     1      -8.596   3.674  68.253  1.00  0.00    -0.117 C  
HETATM   18  O   UNL     1      -6.757   3.584  66.822  1.00  0.00    -0.047 OA 
HETATM   19  C   UNL     1      -8.952   2.248  68.138  1.00  0.00    -0.148 C  
HETATM   20  C   UNL     1      -9.305   4.494  69.044  1.00  0.00    -0.148 C  
HETATM   21  O   UNL     1      -8.157   1.527  67.320  1.00  0.00    -0.064 OA 
HETATM   22  N   UNL     1      -9.070   5.845  69.279  1.00  0.00    -0.123 NA 
HETATM   23  O   UNL     1      -9.900   1.742  68.734  1.00  0.00    -0.056 OA 
HETATM   24  C   UNL     1      -8.059   6.537  68.508  1.00  0.00    -0.114 A  
HETATM   25 CL   UNL     1      -8.287   8.928  69.863  1.00  0.00    -0.120 Cl 
HETATM   26  C   UNL     1      -7.752   7.942  68.521  1.00  0.00    -0.114 A  
BRANCH  22  27
HETATM   27  C   UNL     1     -10.021   6.527  70.192  1.00  0.00    -0.167 C  
HETATM   28  C   UNL     1     -10.279   5.957  71.572  1.00  0.00    -0.254 C  
HETATM   29  C   UNL     1     -11.387   5.989  70.579  1.00  0.00    -0.310 C  
ENDBRANCH  22  27
ENDBRANCH   9  11
TORSDOF 2
ENDMDL
MODEL      137
REMARK 921   NORMALIZED FREE ENERGY PREDICTED BY IDOCK:   -1.85 KCAL/MOL
REMARK 922        TOTAL FREE ENERGY PREDICTED BY IDOCK:   -2.81 KCAL/MOL
REMARK 923 INTER-LIGAND FREE ENERGY PREDICTED BY IDOCK:   -5.56 KCAL/MOL
REMARK 924 INTRA-LIGAND FREE ENERGY PREDICTED BY IDOCK:    2.75 KCAL/MOL
REMARK 927      BINDING AFFINITY PREDICTED BY RF-SCORE:    0.00 PKD
ROOT
HETATM    1  N   UNL     1      -7.442   7.628  63.723  1.00  0.00    -0.097 NA 
HETATM    2  C   UNL     1      -7.040   6.245  64.032  1.00  0.00    -0.057 C  
HETATM    3  H1  UNL     1      -7.054   8.284  64.402  1.00  0.00     0.000 HD 
HETATM    4  H2  UNL     1      -8.456   7.718  63.651  1.00  0.00     0.000 HD 
HETATM    5  C   UNL     1      -7.623   5.257  63.010  1.00  0.00    -0.066 C  
HETATM    6  C   UNL     1      -9.130   4.981  63.115  1.00  0.00     0.086 C  
HETATM    7  C   UNL     1      -9.515   4.158  64.353  1.00  0.00    -0.163 C  
HETATM    8  C   UNL     1      -9.702   4.937  65.669  1.00  0.00    -0.145 C  
HETATM    9  N   UNL     1      -8.845   6.135  65.746  1.00  0.00    -0.150 NA 
HETATM   10  C   UNL     1      -7.414   5.843  65.477  1.00  0.00    -0.082 C  
ENDROOT
BRANCH   9  11
HETATM   11  C   UNL     1      -9.258   7.266  66.489  1.00  0.00    -0.157 A  
HETATM   12  C   UNL     1      -9.561   7.186  67.866  1.00  0.00    -0.133 A  
HETATM   13  C   UNL     1      -9.997   8.266  68.612  1.00  0.00    -0.203 A  
HETATM   14  F   UNL     1      -9.481   6.047  68.565  1.00  0.00    -0.120 F  
HETATM   15  C   UNL     1     -10.210   9.494  68.001  1.00  0.00    -0.244 A  
HETATM   16  C   UNL     1     -10.778  10.558  68.857  1.00  0.00    -0.220 C  
HETATM   17  C   UNL     1     -11.139  11.834  68.237  1.00  0.00    -0.291 C  
HETATM   18  O   UNL     1     -10.989  10.379  70.054  1.00  0.00    -0.276 OA 
HETATM   19  C   UNL     1     -11.805  12.926  68.968  1.00  0.00    -0.306 C  
HETATM   20  C   UNL     1     -10.831  11.967  66.938  1.00  0.00    -0.259 C  
HETATM   21  O   UNL     1     -12.052  12.673  70.271  1.00  0.00    -0.349 OA 
HETATM   22  N   UNL     1     -10.176  11.044  66.130  1.00  0.00    -0.240 NA 
HETATM   23  O   UNL     1     -12.121  13.992  68.442  1.00  0.00    -0.354 OA 
HETATM   24  C   UNL     1      -9.900   9.718  66.643  1.00  0.00    -0.215 A  
HETATM   25 CL   UNL     1      -8.486   8.871  64.431  1.00  0.00    -0.181 Cl 
HETATM   26  C   UNL     1      -9.343   8.599  65.931  1.00  0.00    -0.195 A  
BRANCH  22  27
HETATM   27  C   UNL     1      -9.973  11.438  64.713  1.00  0.00    -0.267 C  
HETATM   28  C   UNL     1     -10.648  12.684  64.176  1.00  0.00    -0.434 C  
HETATM   29  C   UNL     1     -11.034  11.354  63.630  1.00  0.00    -0.443 C  
ENDBRANCH  22  27
ENDBRANCH   9  11
TORSDOF 2
ENDMDL
MODEL      138
REMARK 921   NORMALIZED FREE ENERGY PREDICTED BY IDOCK:   -1.23 KCAL/MOL
REMARK 922        TOTAL FREE ENERGY PREDICTED BY IDOCK:   -2.11 KCAL/MOL
REMARK 923 INTER-LIGAND FREE ENERGY PREDICTED BY IDOCK:   -5.58 KCAL/MOL
REMARK 924 INTRA-LIGAND FREE ENERGY PREDICTED BY IDOCK:    3.48 KCAL/MOL
REMARK 927      BINDING AFFINITY PREDICTED BY RF-SCORE:    0.00 PKD
ROOT
HETATM    1  N   UNL     1      -7.578   5.226  66.516  1.00  0.00    -0.087 NA 
HETATM    2  C   UNL     1      -7.153   4.610  67.785  1.00  0.00    -0.065 C  
HETATM    3  H1  UNL     1      -7.240   6.186  66.442  1.00  0.00     0.000 HD 
HETATM    4  H2  UNL     1      -8.589   5.173  66.393  1.00  0.00     0.000 HD 
HETATM    5  C   UNL     1      -7.662   3.164  67.897  1.00  0.00    -0.063 C  
HETATM    6  C   UNL     1      -9.164   2.991  68.165  1.00  0.00    -0.248 C  
HETATM    7  C   UNL     1      -9.583   3.406  69.583  1.00  0.00    -0.160 C  
HETATM    8  C   UNL     1      -9.852   4.906  69.812  1.00  0.00    -0.221 C  
HETATM    9  N   UNL     1      -9.032   5.769  68.942  1.00  0.00    -0.113 NA 
HETATM   10  C   UNL     1      -7.582   5.451  69.009  1.00  0.00    -0.085 C  
ENDROOT
BRANCH   9  11
HETATM   11  C   UNL     1      -9.509   7.036  68.534  1.00  0.00    -0.134 A  
HETATM   12  C   UNL     1     -10.472   7.749  69.282  1.00  0.00    -0.217 A  
HETATM   13  C   UNL     1     -10.981   8.975  68.894  1.00  0.00     0.019 A  
HETATM   14  F   UNL     1     -10.999   7.284  70.421  1.00  0.00    -0.236 F  
HETATM   15  C   UNL     1     -10.590   9.541  67.689  1.00  0.00    -0.329 A  
HETATM   16  C   UNL     1     -11.268  10.799  67.310  1.00  0.00    -0.197 C  
HETATM   17  C   UNL     1     -10.986  11.375  65.994  1.00  0.00    -0.286 C  
HETATM   18  O   UNL     1     -12.084  11.342  68.051  1.00  0.00    -0.638 OA 
HETATM   19  C   UNL     1     -11.677  12.566  65.469  1.00  0.00    -0.409 C  
HETATM   20  C   UNL     1     -10.047  10.752  65.265  1.00  0.00    -0.290 C  
HETATM   21  O   UNL     1     -12.592  13.107  66.301  1.00  0.00    -0.366 OA 
HETATM   22  N   UNL     1      -9.290   9.646  65.638  1.00  0.00    -0.217 NA 
HETATM   23  O   UNL     1     -11.450  13.039  64.357  1.00  0.00    -0.332 OA 
HETATM   24  C   UNL     1      -9.599   8.955  66.872  1.00  0.00    -0.190 A  
HETATM   25 CL   UNL     1      -7.486   7.190  66.720  1.00  0.00    -0.087 Cl 
HETATM   26  C   UNL     1      -9.016   7.737  67.368  1.00  0.00    -0.123 A  
BRANCH  22  27
HETATM   27  C   UNL     1      -8.324   9.142  64.631  1.00  0.00    -0.172 C  
HETATM   28  C   UNL     1      -7.510  10.124  63.812  1.00  0.00    -0.126 C  
HETATM   29  C   UNL     1      -8.504   9.253  63.127  1.00  0.00    -0.212 C  
ENDBRANCH  22  27
ENDBRANCH   9  11
TORSDOF 2
ENDMDL
MODEL      139
REMARK 921   NORMALIZED FREE ENERGY PREDICTED BY IDOCK:   -1.21 KCAL/MOL
REMARK 922        TOTAL FREE ENERGY PREDICTED BY IDOCK:   -2.09 KCAL/MOL
REMARK 923 INTER-LIGAND FREE ENERGY PREDICTED BY IDOCK:   -1.85 KCAL/MOL
REMARK 924 INTRA-LIGAND FREE ENERGY PREDICTED BY IDOCK:   -0.23 KCAL/MOL
REMARK 927      BINDING AFFINITY PREDICTED BY RF-SCORE:    0.00 PKD
ROOT
HETATM    1  N   UNL     1      -5.925   7.045  70.947  1.00  0.00    -0.031 NA 
HETATM    2  C   UNL     1      -6.372   8.447  71.013  1.00  0.00    -0.040 C  
HETATM    3  H1  UNL     1      -5.203   6.923  70.236  1.00  0.00     0.000 HD 
HETATM    4  H2  UNL     1      -6.708   6.408  70.802  1.00  0.00     0.000 HD 
HETATM    5  C   UNL     1      -7.458   8.633  72.085  1.00  0.00    -0.059 C  
HETATM    6  C   UNL     1      -8.847   8.070  71.749  1.00  0.00    -0.184 C  
HETATM    7  C   UNL     1      -9.579   8.861  70.656  1.00  0.00    -0.262 C  
HETATM    8  C   UNL     1      -9.232   8.508  69.197  1.00  0.00    -0.150 C  
HETATM    9  N   UNL     1      -7.841   8.040  69.043  1.00  0.00    -0.107 NA 
HETATM   10  C   UNL     1      -6.847   8.969  69.637  1.00  0.00    -0.050 C  
ENDROOT
BRANCH   9  11
HETATM   11  C   UNL     1      -7.502   7.126  68.018  1.00  0.00    -0.099 A  
HETATM   12  C   UNL     1      -6.530   7.427  67.038  1.00  0.00    -0.060 A  
HETATM   13  C   UNL     1      -6.199   6.568  66.006  1.00  0.00    -0.038 A  
HETATM   14  F   UNL     1      -5.863   8.587  67.006  1.00  0.00    -0.039 F  
HETATM   15  C   UNL     1      -6.871   5.363  65.861  1.00  0.00    -0.058 A  
HETATM   16  C   UNL     1      -6.524   4.562  64.668  1.00  0.00    -0.039 C  
HETATM   17  C   UNL     1      -7.287   3.343  64.398  1.00  0.00    -0.070 C  
HETATM   18  O   UNL     1      -5.644   4.917  63.886  1.00  0.00    -0.016 OA 
HETATM   19  C   UNL     1      -7.099   2.523  63.188  1.00  0.00    -0.037 C  
HETATM   20  C   UNL     1      -8.195   2.997  65.324  1.00  0.00    -0.091 C  
HETATM   21  O   UNL     1      -6.150   2.970  62.339  1.00  0.00    -0.012 OA 
HETATM   22  N   UNL     1      -8.460   3.647  66.525  1.00  0.00    -0.105 NA 
HETATM   23  O   UNL     1      -7.752   1.508  62.956  1.00  0.00    -0.051 OA 
HETATM   24  C   UNL     1      -7.830   4.922  66.799  1.00  0.00    -0.099 A  
HETATM   25 CL   UNL     1      -8.834   5.166  69.356  1.00  0.00    -0.112 Cl 
HETATM   26  C   UNL     1      -8.063   5.796  67.918  1.00  0.00    -0.098 A  
BRANCH  22  27
HETATM   27  C   UNL     1      -9.533   3.061  67.366  1.00  0.00    -0.111 C  
HETATM   28  C   UNL     1      -9.167   2.253  68.594  1.00  0.00    -0.227 C  
HETATM   29  C   UNL     1      -9.850   1.579  67.456  1.00  0.00     0.388 C  
ENDBRANCH  22  27
ENDBRANCH   9  11
TORSDOF 2
ENDMDL
MODEL      140
REMARK 921   NORMALIZED FREE ENERGY PREDICTED BY IDOCK:   -1.20 KCAL/MOL
REMARK 922        TOTAL FREE ENERGY PREDICTED BY IDOCK:   -2.07 KCAL/MOL
REMARK 923 INTER-LIGAND FREE ENERGY PREDICTED BY IDOCK:   -1.30 KCAL/MOL
REMARK 924 INTRA-LIGAND FREE ENERGY PREDICTED BY IDOCK:   -0.77 KCAL/MOL
REMARK 927      BINDING AFFINITY PREDICTED BY RF-SCORE:    0.00 PKD
ROOT
HETATM    1  N   UNL     1      -7.233   6.276  63.103  1.00  0.00    -0.053 NA 
HETATM    2  C   UNL     1      -7.516   4.868  63.431  1.00  0.00    -0.055 C  
HETATM    3  H1  UNL     1      -6.343   6.575  63.502  1.00  0.00     0.000 HD 
HETATM    4  H2  UNL     1      -7.997   6.889  63.388  1.00  0.00     0.000 HD 
HETATM    5  C   UNL     1      -8.857   4.418  62.830  1.00  0.00    -0.118 C  
HETATM    6  C   UNL     1     -10.122   4.965  63.507  1.00  0.00     0.725 C  
HETATM    7  C   UNL     1     -10.377   4.371  64.899  1.00  0.00    -0.130 C  
HETATM    8  C   UNL     1      -9.628   5.026  66.076  1.00  0.00    -0.168 C  
HETATM    9  N   UNL     1      -8.322   5.585  65.677  1.00  0.00    -0.127 NA 
HETATM   10  C   UNL     1      -7.468   4.608  64.955  1.00  0.00    -0.073 C  
ENDROOT
BRANCH   9  11
HETATM   11  C   UNL     1      -7.783   6.701  66.358  1.00  0.00    -0.102 A  
HETATM   12  C   UNL     1      -6.642   6.594  67.183  1.00  0.00    -0.051 A  
HETATM   13  C   UNL     1      -6.109   7.660  67.886  1.00  0.00    -0.044 A  
HETATM   14  F   UNL     1      -5.991   5.441  67.381  1.00  0.00    -0.021 F  
HETATM   15  C   UNL     1      -6.729   8.900  67.846  1.00  0.00    -0.069 A  
HETATM   16  C   UNL     1      -6.149   9.947  68.714  1.00  0.00    -0.041 C  
HETATM   17  C   UNL     1      -6.835  11.237  68.806  1.00  0.00    -0.082 C  
HETATM   18  O   UNL     1      -5.138   9.745  69.382  1.00  0.00    -0.036 OA 
HETATM   19  C   UNL     1      -6.408  12.316  69.714  1.00  0.00    -0.091 C  
HETATM   20  C   UNL     1      -7.902  11.396  68.008  1.00  0.00    -0.121 C  
HETATM   21  O   UNL     1      -5.316  12.036  70.456  1.00  0.00    -0.112 OA 
HETATM   22  N   UNL     1      -8.402  10.488  67.081  1.00  0.00    -0.126 NA 
HETATM   23  O   UNL     1      -6.994  13.392  69.801  1.00  0.00     0.108 OA 
HETATM   24  C   UNL     1      -7.848   9.152  67.023  1.00  0.00    -0.102 A  
HETATM   25 CL   UNL     1      -9.332   8.347  64.842  1.00  0.00     0.426 Cl 
HETATM   26  C   UNL     1      -8.302   8.045  66.223  1.00  0.00    -0.121 A  
BRANCH  22  27
HETATM   27  C   UNL     1      -9.613  10.911  66.334  1.00  0.00    -0.197 C  
HETATM   28  C   UNL     1      -9.748  12.349  65.874  1.00  0.00    -0.237 C  
HETATM   29  C   UNL     1     -10.699  11.816  66.887  1.00  0.00    -0.288 C  
ENDBRANCH  22  27
ENDBRANCH   9  11
TORSDOF 2
ENDMDL
MODEL      141
REMARK 921   NORMALIZED FREE ENERGY PREDICTED BY IDOCK:   -0.87 KCAL/MOL
REMARK 922        TOTAL FREE ENERGY PREDICTED BY IDOCK:   -1.71 KCAL/MOL
REMARK 923 INTER-LIGAND FREE ENERGY PREDICTED BY IDOCK:   -2.50 KCAL/MOL
REMARK 924 INTRA-LIGAND FREE ENERGY PREDICTED BY IDOCK:    0.79 KCAL/MOL
REMARK 927      BINDING AFFINITY PREDICTED BY RF-SCORE:    0.00 PKD
ROOT
HETATM    1  N   UNL     1      -7.215  11.778  66.450  1.00  0.00    -0.370 NA 
HETATM    2  C   UNL     1      -8.026  11.982  67.662  1.00  0.00    -0.150 C  
HETATM    3  H1  UNL     1      -7.730  11.246  65.748  1.00  0.00     0.000 HD 
HETATM    4  H2  UNL     1      -6.317  11.344  66.667  1.00  0.00     0.000 HD 
HETATM    5  C   UNL     1      -7.251  12.784  68.719  1.00  0.00    -0.077 C  
HETATM    6  C   UNL     1      -6.122  12.038  69.444  1.00  0.00    -0.098 C  
HETATM    7  C   UNL     1      -6.625  10.960  70.415  1.00  0.00     0.033 C  
HETATM    8  C   UNL     1      -6.960   9.585  69.806  1.00  0.00    -0.071 C  
HETATM    9  N   UNL     1      -7.431   9.682  68.411  1.00  0.00    -0.080 NA 
HETATM   10  C   UNL     1      -8.547  10.647  68.241  1.00  0.00    -0.128 C  
ENDROOT
BRANCH   9  11
HETATM   11  C   UNL     1      -7.205   8.621  67.503  1.00  0.00    -0.081 A  
HETATM   12  C   UNL     1      -6.385   8.774  66.364  1.00  0.00    -0.061 A  
HETATM   13  C   UNL     1      -6.169   7.766  65.441  1.00  0.00    -0.038 A  
HETATM   14  F   UNL     1      -5.764   9.921  66.061  1.00  0.00    -0.051 F  
HETATM   15  C   UNL     1      -6.817   6.547  65.578  1.00  0.00    -0.048 A  
HETATM   16  C   UNL     1      -6.608   5.571  64.487  1.00  0.00    -0.042 C  
HETATM   17  C   UNL     1      -7.363   4.318  64.517  1.00  0.00    -0.071 C  
HETATM   18  O   UNL     1      -5.854   5.807  63.546  1.00  0.00    -0.020 OA 
HETATM   19  C   UNL     1      -7.314   3.320  63.434  1.00  0.00    -0.054 C  
HETATM   20  C   UNL     1      -8.126   4.113  65.602  1.00  0.00    -0.101 C  
HETATM   21  O   UNL     1      -6.502   3.637  62.403  1.00  0.00    -0.021 OA 
HETATM   22  N   UNL     1      -8.247   4.942  66.712  1.00  0.00    -0.107 NA 
HETATM   23  O   UNL     1      -7.960   2.274  63.454  1.00  0.00    -0.069 OA 
HETATM   24  C   UNL     1      -7.625   6.249  66.696  1.00  0.00    -0.095 A  
HETATM   25 CL   UNL     1      -8.282   6.883  69.299  1.00  0.00    -0.123 Cl 
HETATM   26  C   UNL     1      -7.733   7.286  67.688  1.00  0.00    -0.112 A  
BRANCH  22  27
HETATM   27  C   UNL     1      -9.178   4.485  67.774  1.00  0.00    -0.131 C  
HETATM   28  C   UNL     1      -8.628   3.821  69.020  1.00  0.00    -0.115 C  
HETATM   29  C   UNL     1      -9.482   3.032  68.092  1.00  0.00    -0.219 C  
ENDBRANCH  22  27
ENDBRANCH   9  11
TORSDOF 2
ENDMDL
MODEL      142
REMARK 921   NORMALIZED FREE ENERGY PREDICTED BY IDOCK:   -0.82 KCAL/MOL
REMARK 922        TOTAL FREE ENERGY PREDICTED BY IDOCK:   -1.65 KCAL/MOL
REMARK 923 INTER-LIGAND FREE ENERGY PREDICTED BY IDOCK:   -2.06 KCAL/MOL
REMARK 924 INTRA-LIGAND FREE ENERGY PREDICTED BY IDOCK:    0.41 KCAL/MOL
REMARK 927      BINDING AFFINITY PREDICTED BY RF-SCORE:    0.00 PKD
ROOT
HETATM    1  N   UNL     1      -9.195   9.876  66.364  1.00  0.00    -0.153 NA 
HETATM    2  C   UNL     1      -8.488   9.285  65.214  1.00  0.00    -0.154 C  
HETATM    3  H1  UNL     1      -8.835  10.806  66.578  1.00  0.00     0.000 HD 
HETATM    4  H2  UNL     1      -9.164   9.264  67.179  1.00  0.00     0.000 HD 
HETATM    5  C   UNL     1      -9.030   7.884  64.891  1.00  0.00     0.387 C  
HETATM    6  C   UNL     1      -8.645   6.764  65.869  1.00  0.00    -0.153 C  
HETATM    7  C   UNL     1      -7.163   6.371  65.795  1.00  0.00    -0.078 C  
HETATM    8  C   UNL     1      -6.178   7.235  66.607  1.00  0.00    -0.043 C  
HETATM    9  N   UNL     1      -6.624   8.635  66.734  1.00  0.00    -0.060 NA 
HETATM   10  C   UNL     1      -6.957   9.259  65.428  1.00  0.00    -0.085 C  
ENDROOT
BRANCH   9  11
HETATM   11  C   UNL     1      -6.264   9.402  67.866  1.00  0.00    -0.053 A  
HETATM   12  C   UNL     1      -5.999   8.806  69.119  1.00  0.00    -0.042 A  
HETATM   13  C   UNL     1      -5.675   9.531  70.252  1.00  0.00    -0.039 A  
HETATM   14  F   UNL     1      -6.067   7.485  69.327  1.00  0.00    -0.028 F  
HETATM   15  C   UNL     1      -5.652  10.917  70.209  1.00  0.00    -0.089 A  
HETATM   16  C   UNL     1      -5.402  11.605  71.493  1.00  0.00     0.107 C  
HETATM   17  C   UNL     1      -5.488  13.066  71.532  1.00  0.00    -0.058 C  
HETATM   18  O   UNL     1      -5.166  10.981  72.525  1.00  0.00    -0.318 OA 
HETATM   19  C   UNL     1      -5.360  13.850  72.773  1.00  0.00    -0.157 C  
HETATM   20  C   UNL     1      -5.699  13.676  70.355  1.00  0.00    -0.156 C  
HETATM   21  O   UNL     1      -5.140  13.121  73.887  1.00  0.00    -0.376 OA 
HETATM   22  N   UNL     1      -5.806  13.077  69.105  1.00  0.00    -0.076 NA 
HETATM   23  O   UNL     1      -5.448  15.076  72.805  1.00  0.00     0.064 OA 
HETATM   24  C   UNL     1      -5.851  11.633  69.009  1.00  0.00    -0.053 A  
HETATM   25 CL   UNL     1      -5.851  11.554  66.252  1.00  0.00    -0.067 Cl 
HETATM   26  C   UNL     1      -6.074  10.836  67.831  1.00  0.00    -0.046 A  
BRANCH  22  27
HETATM   27  C   UNL     1      -6.057  13.987  67.959  1.00  0.00    -0.141 C  
HETATM   28  C   UNL     1      -5.154  15.184  67.739  1.00  0.00    -0.051 C  
HETATM   29  C   UNL     1      -6.586  15.405  68.080  1.00  0.00    -0.141 C  
ENDBRANCH  22  27
ENDBRANCH   9  11
TORSDOF 2
ENDMDL
MODEL      143
REMARK 921   NORMALIZED FREE ENERGY PREDICTED BY IDOCK:   -0.78 KCAL/MOL
REMARK 922        TOTAL FREE ENERGY PREDICTED BY IDOCK:   -1.61 KCAL/MOL
REMARK 923 INTER-LIGAND FREE ENERGY PREDICTED BY IDOCK:   -2.15 KCAL/MOL
REMARK 924 INTRA-LIGAND FREE ENERGY PREDICTED BY IDOCK:    0.54 KCAL/MOL
REMARK 927      BINDING AFFINITY PREDICTED BY RF-SCORE:    0.00 PKD
ROOT
HETATM    1  N   UNL     1      -7.876  11.606  65.083  1.00  0.00     0.448 NA 
HETATM    2  C   UNL     1      -9.248  12.036  65.404  1.00  0.00     0.107 C  
HETATM    3  H1  UNL     1      -7.860  11.026  64.243  1.00  0.00     0.000 HD 
HETATM    4  H2  UNL     1      -7.436  11.135  65.873  1.00  0.00     0.000 HD 
HETATM    5  C   UNL     1      -9.273  12.910  66.668  1.00  0.00    -0.222 C  
HETATM    6  C   UNL     1      -9.050  12.182  68.002  1.00  0.00    -0.190 C  
HETATM    7  C   UNL     1     -10.229  11.290  68.415  1.00  0.00    -0.205 C  
HETATM    8  C   UNL     1     -10.271   9.875  67.804  1.00  0.00    -0.197 C  
HETATM    9  N   UNL     1      -9.664   9.819  66.461  1.00  0.00    -0.195 NA 
HETATM   10  C   UNL     1     -10.216  10.838  65.532  1.00  0.00    -0.266 C  
ENDROOT
BRANCH   9  11
HETATM   11  C   UNL     1      -9.051   8.630  66.001  1.00  0.00    -0.204 A  
HETATM   12  C   UNL     1      -8.796   8.403  64.631  1.00  0.00     0.176 A  
HETATM   13  C   UNL     1      -8.226   7.239  64.147  1.00  0.00     0.044 A  
HETATM   14  F   UNL     1      -9.110   9.285  63.674  1.00  0.00    -0.238 F  
HETATM   15  C   UNL     1      -7.927   6.198  65.013  1.00  0.00    -0.123 A  
HETATM   16  C   UNL     1      -7.422   4.955  64.390  1.00  0.00    -0.068 C  
HETATM   17  C   UNL     1      -7.207   3.784  65.242  1.00  0.00    -0.067 C  
HETATM   18  O   UNL     1      -7.222   4.875  63.181  1.00  0.00    -0.045 OA 
HETATM   19  C   UNL     1      -6.806   2.467  64.717  1.00  0.00    -0.047 C  
HETATM   20  C   UNL     1      -7.400   3.967  66.557  1.00  0.00    -0.076 C  
HETATM   21  O   UNL     1      -6.634   2.415  63.379  1.00  0.00    -0.024 OA 
HETATM   22  N   UNL     1      -7.744   5.152  67.200  1.00  0.00    -0.092 NA 
HETATM   23  O   UNL     1      -6.641   1.481  65.432  1.00  0.00    -0.022 OA 
HETATM   24  C   UNL     1      -8.089   6.316  66.411  1.00  0.00    -0.112 A  
HETATM   25 CL   UNL     1      -8.366   8.018  68.562  1.00  0.00    -0.126 Cl 
HETATM   26  C   UNL     1      -8.579   7.584  66.882  1.00  0.00    -0.124 A  
BRANCH  22  27
HETATM   27  C   UNL     1      -7.912   5.076  68.673  1.00  0.00    -0.085 C  
HETATM   28  C   UNL     1      -7.429   3.850  69.421  1.00  0.00    -0.053 C  
HETATM   29  C   UNL     1      -8.885   4.154  69.386  1.00  0.00    -0.142 C  
ENDBRANCH  22  27
ENDBRANCH   9  11
TORSDOF 2
ENDMDL
MODEL      144
REMARK 921   NORMALIZED FREE ENERGY PREDICTED BY IDOCK:   -0.18 KCAL/MOL
REMARK 922        TOTAL FREE ENERGY PREDICTED BY IDOCK:   -0.93 KCAL/MOL
REMARK 923 INTER-LIGAND FREE ENERGY PREDICTED BY IDOCK:   -1.58 KCAL/MOL
REMARK 924 INTRA-LIGAND FREE ENERGY PREDICTED BY IDOCK:    0.64 KCAL/MOL
REMARK 927      BINDING AFFINITY PREDICTED BY RF-SCORE:    0.00 PKD
ROOT
HETATM    1  N   UNL     1      -8.990  10.448  66.498  1.00  0.00    -0.144 NA 
HETATM    2  C   UNL     1      -8.030  11.030  65.545  1.00  0.00     0.086 C  
HETATM    3  H1  UNL     1      -8.513  10.071  67.317  1.00  0.00     0.000 HD 
HETATM    4  H2  UNL     1      -9.582   9.746  66.053  1.00  0.00     0.000 HD 
HETATM    5  C   UNL     1      -8.749  11.598  64.311  1.00  0.00     0.685 C  
HETATM    6  C   UNL     1      -9.308  10.569  63.318  1.00  0.00    -0.342 C  
HETATM    7  C   UNL     1      -8.220   9.828  62.528  1.00  0.00    -0.146 C  
HETATM    8  C   UNL     1      -7.574   8.610  63.218  1.00  0.00    -0.116 C  
HETATM    9  N   UNL     1      -7.539   8.744  64.687  1.00  0.00    -0.104 NA 
HETATM   10  C   UNL     1      -6.931  10.021  65.140  1.00  0.00    -0.134 C  
ENDROOT
BRANCH   9  11
HETATM   11  C   UNL     1      -7.586   7.596  65.512  1.00  0.00    -0.092 A  
HETATM   12  C   UNL     1      -8.073   6.357  65.042  1.00  0.00    -0.135 A  
HETATM   13  C   UNL     1      -8.161   5.225  65.833  1.00  0.00    -0.117 A  
HETATM   14  F   UNL     1      -8.522   6.176  63.794  1.00  0.00    -0.088 F  
HETATM   15  C   UNL     1      -7.813   5.284  67.174  1.00  0.00    -0.100 A  
HETATM   16  C   UNL     1      -8.042   4.054  67.962  1.00  0.00    -0.088 C  
HETATM   17  C   UNL     1      -7.808   4.097  69.407  1.00  0.00    -0.056 C  
HETATM   18  O   UNL     1      -8.458   3.022  67.442  1.00  0.00    -0.085 OA 
HETATM   19  C   UNL     1      -8.100   2.966  70.305  1.00  0.00    -0.041 C  
HETATM   20  C   UNL     1      -7.307   5.244  69.890  1.00  0.00    -0.064 C  
HETATM   21  O   UNL     1      -8.592   1.866  69.696  1.00  0.00    -0.046 OA 
HETATM   22  N   UNL     1      -6.951   6.377  69.167  1.00  0.00    -0.065 NA 
HETATM   23  O   UNL     1      -7.918   3.009  71.520  1.00  0.00    -0.054 OA 
HETATM   24  C   UNL     1      -7.266   6.448  67.755  1.00  0.00    -0.087 A  
HETATM   25 CL   UNL     1      -6.004   8.863  67.328  1.00  0.00    -0.049 Cl 
HETATM   26  C   UNL     1      -7.088   7.569  66.870  1.00  0.00    -0.084 A  
BRANCH  22  27
HETATM   27  C   UNL     1      -6.431   7.523  69.954  1.00  0.00    -0.034 C  
HETATM   28  C   UNL     1      -5.499   7.270  71.122  1.00  0.00    -0.027 C  
HETATM   29  C   UNL     1      -6.845   7.854  71.377  1.00  0.00    -0.047 C  
ENDBRANCH  22  27
ENDBRANCH   9  11
TORSDOF 2
ENDMDL
MODEL      145
REMARK 921   NORMALIZED FREE ENERGY PREDICTED BY IDOCK:    0.37 KCAL/MOL
REMARK 922        TOTAL FREE ENERGY PREDICTED BY IDOCK:   -0.32 KCAL/MOL
REMARK 923 INTER-LIGAND FREE ENERGY PREDICTED BY IDOCK:   -0.98 KCAL/MOL
REMARK 924 INTRA-LIGAND FREE ENERGY PREDICTED BY IDOCK:    0.66 KCAL/MOL
REMARK 927      BINDING AFFINITY PREDICTED BY RF-SCORE:    0.00 PKD
ROOT
HETATM    1  N   UNL     1     -12.039  14.474  63.744  1.00  0.00    -0.956 NA 
HETATM    2  C   UNL     1     -13.181  14.299  64.658  1.00  0.00     0.812 C  
HETATM    3  H1  UNL     1     -11.992  13.714  63.065  1.00  0.00     0.000 HD 
HETATM    4  H2  UNL     1     -11.161  14.576  64.254  1.00  0.00     0.000 HD 
HETATM    5  C   UNL     1     -13.251  15.443  65.681  1.00  0.00     1.887 C  
HETATM    6  C   UNL     1     -12.192  15.428  66.793  1.00  0.00     0.782 C  
HETATM    7  C   UNL     1     -12.396  14.301  67.816  1.00  0.00    -0.041 C  
HETATM    8  C   UNL     1     -11.829  12.918  67.442  1.00  0.00    -0.360 C  
HETATM    9  N   UNL     1     -11.831  12.679  65.986  1.00  0.00    -0.426 NA 
HETATM   10  C   UNL     1     -13.155  12.921  65.359  1.00  0.00     0.468 C  
ENDROOT
BRANCH   9  11
HETATM   11  C   UNL     1     -10.859  11.837  65.397  1.00  0.00    -0.295 A  
HETATM   12  C   UNL     1     -11.008  11.323  64.090  1.00  0.00    -0.305 A  
HETATM   13  C   UNL     1     -10.091  10.473  63.498  1.00  0.00    -0.186 A  
HETATM   14  F   UNL     1     -12.068  11.592  63.317  1.00  0.00    -0.549 F  
HETATM   15  C   UNL     1      -8.984  10.038  64.212  1.00  0.00    -0.269 A  
HETATM   16  C   UNL     1      -8.119   9.048  63.534  1.00  0.00    -0.164 C  
HETATM   17  C   UNL     1      -7.008   8.462  64.285  1.00  0.00    -0.081 C  
HETATM   18  O   UNL     1      -8.338   8.682  62.382  1.00  0.00    -0.183 OA 
HETATM   19  C   UNL     1      -6.146   7.394  63.748  1.00  0.00    -0.048 C  
HETATM   20  C   UNL     1      -6.805   8.950  65.518  1.00  0.00    -0.076 C  
HETATM   21  O   UNL     1      -6.445   6.996  62.494  1.00  0.00    -0.050 OA 
HETATM   22  N   UNL     1      -7.509   9.974  66.143  1.00  0.00    -0.104 NA 
HETATM   23  O   UNL     1      -5.222   6.892  64.386  1.00  0.00    -0.026 OA 
HETATM   24  C   UNL     1      -8.694  10.514  65.508  1.00  0.00    -0.185 A  
HETATM   25 CL   UNL     1      -9.121  12.486  67.388  1.00  0.00    -0.178 Cl 
HETATM   26  C   UNL     1      -9.613  11.483  66.043  1.00  0.00    -0.228 A  
BRANCH  22  27
HETATM   27  C   UNL     1      -7.089  10.312  67.526  1.00  0.00    -0.086 C  
HETATM   28  C   UNL     1      -6.268   9.320  68.325  1.00  0.00    -0.053 C  
HETATM   29  C   UNL     1      -7.642   9.664  68.782  1.00  0.00    -0.076 C  
ENDBRANCH  22  27
ENDBRANCH   9  11
TORSDOF 2
ENDMDL
MODEL      146
REMARK 921   NORMALIZED FREE ENERGY PREDICTED BY IDOCK:    0.54 KCAL/MOL
REMARK 922        TOTAL FREE ENERGY PREDICTED BY IDOCK:   -0.14 KCAL/MOL
REMARK 923 INTER-LIGAND FREE ENERGY PREDICTED BY IDOCK:   -2.57 KCAL/MOL
REMARK 924 INTRA-LIGAND FREE ENERGY PREDICTED BY IDOCK:    2.43 KCAL/MOL
REMARK 927      BINDING AFFINITY PREDICTED BY RF-SCORE:    0.00 PKD
ROOT
HETATM    1  N   UNL     1      -6.133  11.952  68.709  1.00  0.00    -0.052 NA 
HETATM    2  C   UNL     1      -6.480  12.536  67.402  1.00  0.00    -0.153 C  
HETATM    3  H1  UNL     1      -6.286  10.943  68.714  1.00  0.00     0.000 HD 
HETATM    4  H2  UNL     1      -6.634  12.411  69.471  1.00  0.00     0.000 HD 
HETATM    5  C   UNL     1      -6.250  14.055  67.396  1.00  0.00     0.172 C  
HETATM    6  C   UNL     1      -7.261  14.899  68.187  1.00  0.00    -0.124 C  
HETATM    7  C   UNL     1      -8.650  14.957  67.537  1.00  0.00    -0.195 C  
HETATM    8  C   UNL     1      -9.601  13.781  67.836  1.00  0.00    -0.222 C  
HETATM    9  N   UNL     1      -8.882  12.514  68.064  1.00  0.00    -0.181 NA 
HETATM   10  C   UNL     1      -7.925  12.186  66.977  1.00  0.00    -0.138 C  
ENDROOT
BRANCH   9  11
HETATM   11  C   UNL     1      -9.427  11.524  68.915  1.00  0.00    -0.013 A  
HETATM   12  C   UNL     1     -10.721  11.643  69.468  1.00  0.00     0.052 A  
HETATM   13  C   UNL     1     -11.270  10.708  70.327  1.00  0.00    -0.365 A  
HETATM   14  F   UNL     1     -11.521  12.690  69.232  1.00  0.00    -0.289 F  
HETATM   15  C   UNL     1     -10.523   9.611  70.731  1.00  0.00    -0.375 A  
HETATM   16  C   UNL     1     -11.154   8.725  71.733  1.00  0.00    -0.347 C  
HETATM   17  C   UNL     1     -10.365   7.624  72.287  1.00  0.00    -0.277 C  
HETATM   18  O   UNL     1     -12.299   8.918  72.135  1.00  0.00    -0.357 OA 
HETATM   19  C   UNL     1     -10.853   6.742  73.362  1.00  0.00    -0.253 C  
HETATM   20  C   UNL     1      -9.143   7.449  71.760  1.00  0.00    -0.129 C  
HETATM   21  O   UNL     1     -12.101   7.014  73.799  1.00  0.00     1.639 OA 
HETATM   22  N   UNL     1      -8.562   8.174  70.725  1.00  0.00    -0.130 NA 
HETATM   23  O   UNL     1     -10.183   5.827  73.836  1.00  0.00    -0.207 OA 
HETATM   24  C   UNL     1      -9.235   9.350  70.214  1.00  0.00    -0.245 A  
HETATM   25 CL   UNL     1      -7.423   9.831  68.192  1.00  0.00    -0.081 Cl 
HETATM   26  C   UNL     1      -8.747  10.288  69.239  1.00  0.00    -0.174 A  
BRANCH  22  27
HETATM   27  C   UNL     1      -7.183   7.783  70.342  1.00  0.00    -0.058 C  
HETATM   28  C   UNL     1      -6.237   7.241  71.395  1.00  0.00    -0.036 C  
HETATM   29  C   UNL     1      -5.927   8.540  70.738  1.00  0.00    -0.033 C  
ENDBRANCH  22  27
ENDBRANCH   9  11
TORSDOF 2
ENDMDL
MODEL      147
REMARK 921   NORMALIZED FREE ENERGY PREDICTED BY IDOCK:    0.64 KCAL/MOL
REMARK 922        TOTAL FREE ENERGY PREDICTED BY IDOCK:   -0.02 KCAL/MOL
REMARK 923 INTER-LIGAND FREE ENERGY PREDICTED BY IDOCK:   -0.12 KCAL/MOL
REMARK 924 INTRA-LIGAND FREE ENERGY PREDICTED BY IDOCK:    0.10 KCAL/MOL
REMARK 927      BINDING AFFINITY PREDICTED BY RF-SCORE:    0.00 PKD
ROOT
HETATM    1  N   UNL     1     -10.441   8.580  71.696  1.00  0.00    -0.250 NA 
HETATM    2  C   UNL     1     -10.954   9.960  71.653  1.00  0.00     0.296 C  
HETATM    3  H1  UNL     1      -9.425   8.563  71.599  1.00  0.00     0.000 HD 
HETATM    4  H2  UNL     1     -10.895   7.988  71.001  1.00  0.00     0.000 HD 
HETATM    5  C   UNL     1     -12.484   9.987  71.800  1.00  0.00    -0.475 C  
HETATM    6  C   UNL     1     -13.292   9.509  70.585  1.00  0.00     0.123 C  
HETATM    7  C   UNL     1     -13.241  10.481  69.397  1.00  0.00     1.584 C  
HETATM    8  C   UNL     1     -12.021  10.364  68.462  1.00  0.00     0.372 C  
HETATM    9  N   UNL     1     -10.809   9.904  69.166  1.00  0.00    -0.223 NA 
HETATM   10  C   UNL     1     -10.501  10.707  70.377  1.00  0.00     0.372 C  
ENDROOT
BRANCH   9  11
HETATM   11  C   UNL     1      -9.819   9.164  68.479  1.00  0.00    -0.164 A  
HETATM   12  C   UNL     1      -8.793   9.793  67.740  1.00  0.00    -0.129 A  
HETATM   13  C   UNL     1      -7.829   9.096  67.033  1.00  0.00    -0.102 A  
HETATM   14  F   UNL     1      -8.680  11.122  67.636  1.00  0.00    -0.125 F  
HETATM   15  C   UNL     1      -7.870   7.711  66.979  1.00  0.00    -0.112 A  
HETATM   16  C   UNL     1      -6.864   7.062  66.111  1.00  0.00    -0.057 C  
HETATM   17  C   UNL     1      -6.938   5.613  65.919  1.00  0.00    -0.066 C  
HETATM   18  O   UNL     1      -6.003   7.712  65.524  1.00  0.00    -0.037 OA 
HETATM   19  C   UNL     1      -6.054   4.874  64.999  1.00  0.00    -0.030 C  
HETATM   20  C   UNL     1      -7.873   4.969  66.634  1.00  0.00    -0.100 C  
HETATM   21  O   UNL     1      -5.149   5.633  64.346  1.00  0.00    -0.009 OA 
HETATM   22  N   UNL     1      -8.751   5.522  67.561  1.00  0.00    -0.108 NA 
HETATM   23  O   UNL     1      -6.128   3.659  64.828  1.00  0.00    -0.022 OA 
HETATM   24  C   UNL     1      -8.815   6.960  67.711  1.00  0.00    -0.119 A  
HETATM   25 CL   UNL     1     -10.598   6.924  69.815  1.00  0.00    -0.244 Cl 
HETATM   26  C   UNL     1      -9.729   7.720  68.523  1.00  0.00    -0.160 A  
BRANCH  22  27
HETATM   27  C   UNL     1      -9.704   4.583  68.204  1.00  0.00    -0.127 C  
HETATM   28  C   UNL     1      -9.194   3.560  69.199  1.00  0.00    -0.225 C  
HETATM   29  C   UNL     1      -9.782   3.095  67.913  1.00  0.00     0.013 C  
ENDBRANCH  22  27
ENDBRANCH   9  11
TORSDOF 2
ENDMDL
MODEL      148
REMARK 921   NORMALIZED FREE ENERGY PREDICTED BY IDOCK:    0.68 KCAL/MOL
REMARK 922        TOTAL FREE ENERGY PREDICTED BY IDOCK:    0.02 KCAL/MOL
REMARK 923 INTER-LIGAND FREE ENERGY PREDICTED BY IDOCK:   -3.15 KCAL/MOL
REMARK 924 INTRA-LIGAND FREE ENERGY PREDICTED BY IDOCK:    3.17 KCAL/MOL
REMARK 927      BINDING AFFINITY PREDICTED BY RF-SCORE:    0.00 PKD
ROOT
HETATM    1  N   UNL     1     -10.835  15.891  64.948  1.00  0.00    -0.616 NA 
HETATM    2  C   UNL     1     -10.953  16.763  66.129  1.00  0.00     0.132 C  
HETATM    3  H1  UNL     1     -11.287  14.991  65.108  1.00  0.00     0.000 HD 
HETATM    4  H2  UNL     1      -9.862  15.776  64.661  1.00  0.00     0.000 HD 
HETATM    5  C   UNL     1     -10.272  18.119  65.887  1.00  0.00    -0.239 C  
HETATM    6  C   UNL     1      -8.736  18.116  65.882  1.00  0.00     0.170 C  
HETATM    7  C   UNL     1      -8.121  17.886  67.270  1.00  0.00    -0.222 C  
HETATM    8  C   UNL     1      -7.988  16.421  67.732  1.00  0.00    -0.149 C  
HETATM    9  N   UNL     1      -9.043  15.553  67.176  1.00  0.00    -0.208 NA 
HETATM   10  C   UNL     1     -10.411  16.083  67.407  1.00  0.00    -0.308 C  
ENDROOT
BRANCH   9  11
HETATM   11  C   UNL     1      -8.794  14.181  66.944  1.00  0.00    -0.203 A  
HETATM   12  C   UNL     1      -7.560  13.578  67.276  1.00  0.00    -0.058 A  
HETATM   13  C   UNL     1      -7.275  12.246  67.033  1.00  0.00    -0.039 A  
HETATM   14  F   UNL     1      -6.545  14.253  67.829  1.00  0.00    -0.121 F  
HETATM   15  C   UNL     1      -8.201  11.443  66.384  1.00  0.00    -0.124 A  
HETATM   16  C   UNL     1      -7.765  10.065  66.074  1.00  0.00    -0.110 C  
HETATM   17  C   UNL     1      -8.653   9.213  65.282  1.00  0.00    -0.191 C  
HETATM   18  O   UNL     1      -6.667   9.641  66.427  1.00  0.00    -0.073 OA 
HETATM   19  C   UNL     1      -8.281   7.862  64.826  1.00  0.00    -0.108 C  
HETATM   20  C   UNL     1      -9.853   9.731  64.979  1.00  0.00    -0.173 C  
HETATM   21  O   UNL     1      -7.053   7.451  65.205  1.00  0.00    -0.060 OA 
HETATM   22  N   UNL     1     -10.356  10.969  65.365  1.00  0.00    -0.270 NA 
HETATM   23  O   UNL     1      -9.024   7.153  64.149  1.00  0.00     0.721 OA 
HETATM   24  C   UNL     1      -9.489  11.910  66.044  1.00  0.00    -0.229 A  
HETATM   25 CL   UNL     1     -11.449  13.797  66.492  1.00  0.00    -0.345 Cl 
HETATM   26  C   UNL     1      -9.784  13.268  66.415  1.00  0.00    -0.276 A  
BRANCH  22  27
HETATM   27  C   UNL     1     -11.716  11.307  64.876  1.00  0.00     0.373 C  
HETATM   28  C   UNL     1     -11.976  11.409  63.387  1.00  0.00     0.077 C  
HETATM   29  C   UNL     1     -12.102  12.627  64.233  1.00  0.00    -0.502 C  
ENDBRANCH  22  27
ENDBRANCH   9  11
TORSDOF 2
ENDMDL
MODEL      149
REMARK 921   NORMALIZED FREE ENERGY PREDICTED BY IDOCK:    1.13 KCAL/MOL
REMARK 922        TOTAL FREE ENERGY PREDICTED BY IDOCK:    0.52 KCAL/MOL
REMARK 923 INTER-LIGAND FREE ENERGY PREDICTED BY IDOCK:   -1.24 KCAL/MOL
REMARK 924 INTRA-LIGAND FREE ENERGY PREDICTED BY IDOCK:    1.76 KCAL/MOL
REMARK 927      BINDING AFFINITY PREDICTED BY RF-SCORE:    0.00 PKD
ROOT
HETATM    1  N   UNL     1      -5.709  10.532  70.857  1.00  0.00    -0.184 NA 
HETATM    2  C   UNL     1      -5.186  11.657  70.064  1.00  0.00    -0.079 C  
HETATM    3  H1  UNL     1      -5.182   9.677  70.674  1.00  0.00     0.000 HD 
HETATM    4  H2  UNL     1      -6.709  10.397  70.703  1.00  0.00     0.000 HD 
HETATM    5  C   UNL     1      -5.979  12.945  70.339  1.00  0.00    -0.105 C  
HETATM    6  C   UNL     1      -7.393  13.012  69.742  1.00  0.00     0.807 C  
HETATM    7  C   UNL     1      -7.405  13.154  68.214  1.00  0.00    -0.116 C  
HETATM    8  C   UNL     1      -7.269  11.853  67.398  1.00  0.00    -0.142 C  
HETATM    9  N   UNL     1      -6.469  10.828  68.095  1.00  0.00    -0.058 NA 
HETATM   10  C   UNL     1      -5.149  11.334  68.552  1.00  0.00    -0.039 C  
ENDROOT
BRANCH   9  11
HETATM   11  C   UNL     1      -6.715   9.454  67.873  1.00  0.00    -0.067 A  
HETATM   12  C   UNL     1      -6.860   8.538  68.938  1.00  0.00    -0.061 A  
HETATM   13  C   UNL     1      -7.070   7.183  68.753  1.00  0.00    -0.088 A  
HETATM   14  F   UNL     1      -6.776   8.897  70.225  1.00  0.00    -0.036 F  
HETATM   15  C   UNL     1      -7.093   6.651  67.472  1.00  0.00    -0.084 A  
HETATM   16  C   UNL     1      -7.216   5.180  67.379  1.00  0.00    -0.074 C  
HETATM   17  C   UNL     1      -7.121   4.554  66.060  1.00  0.00    -0.071 C  
HETATM   18  O   UNL     1      -7.353   4.480  68.379  1.00  0.00    -0.063 OA 
HETATM   19  C   UNL     1      -7.127   3.094  65.857  1.00  0.00    -0.065 C  
HETATM   20  C   UNL     1      -7.024   5.390  65.014  1.00  0.00    -0.053 C  
HETATM   21  O   UNL     1      -7.241   2.363  66.985  1.00  0.00    -0.054 OA 
HETATM   22  N   UNL     1      -7.039   6.780  65.045  1.00  0.00    -0.061 NA 
HETATM   23  O   UNL     1      -7.032   2.570  64.749  1.00  0.00    -0.046 OA 
HETATM   24  C   UNL     1      -7.009   7.464  66.321  1.00  0.00    -0.069 A  
HETATM   25 CL   UNL     1      -7.275   9.998  65.266  1.00  0.00    -0.131 Cl 
HETATM   26  C   UNL     1      -6.903   8.879  66.558  1.00  0.00    -0.079 A  
BRANCH  22  27
HETATM   27  C   UNL     1      -6.898   7.468  63.738  1.00  0.00    -0.054 C  
HETATM   28  C   UNL     1      -8.136   7.891  62.974  1.00  0.00    -0.108 C  
HETATM   29  C   UNL     1      -7.242   6.852  62.394  1.00  0.00    -0.060 C  
ENDBRANCH  22  27
ENDBRANCH   9  11
TORSDOF 2
ENDMDL
MODEL      150
REMARK 921   NORMALIZED FREE ENERGY PREDICTED BY IDOCK:    2.25 KCAL/MOL
REMARK 922        TOTAL FREE ENERGY PREDICTED BY IDOCK:    1.78 KCAL/MOL
REMARK 923 INTER-LIGAND FREE ENERGY PREDICTED BY IDOCK:    1.17 KCAL/MOL
REMARK 924 INTRA-LIGAND FREE ENERGY PREDICTED BY IDOCK:    0.61 KCAL/MOL
REMARK 927      BINDING AFFINITY PREDICTED BY RF-SCORE:    0.00 PKD
ROOT
HETATM    1  N   UNL     1      -9.293  18.896  69.956  1.00  0.00     0.991 NA 
HETATM    2  C   UNL     1      -8.793  20.019  69.145  1.00  0.00     0.288 C  
HETATM    3  H1  UNL     1      -8.580  18.174  70.064  1.00  0.00     0.000 HD 
HETATM    4  H2  UNL     1     -10.159  18.514  69.576  1.00  0.00     0.000 HD 
HETATM    5  C   UNL     1      -9.866  21.107  68.983  1.00  0.00     1.342 C  
HETATM    6  C   UNL     1     -11.032  20.775  68.040  1.00  0.00     1.165 C  
HETATM    7  C   UNL     1     -10.630  20.742  66.558  1.00  0.00     0.824 C  
HETATM    8  C   UNL     1     -10.013  19.428  66.040  1.00  0.00    -0.367 C  
HETATM    9  N   UNL     1      -9.265  18.702  67.084  1.00  0.00    -0.283 NA 
HETATM   10  C   UNL     1      -8.259  19.549  67.772  1.00  0.00    -0.298 C  
ENDROOT
BRANCH   9  11
HETATM   11  C   UNL     1      -9.164  17.292  67.043  1.00  0.00    -0.243 A  
HETATM   12  C   UNL     1      -8.148  16.635  66.314  1.00  0.00    -0.326 A  
HETATM   13  C   UNL     1      -8.041  15.258  66.230  1.00  0.00     0.480 A  
HETATM   14  F   UNL     1      -7.213  17.290  65.615  1.00  0.00    -0.269 F  
HETATM   15  C   UNL     1      -8.992  14.448  66.833  1.00  0.00    -0.263 A  
HETATM   16  C   UNL     1      -8.854  12.995  66.598  1.00  0.00    -0.073 C  
HETATM   17  C   UNL     1      -9.897  12.103  67.106  1.00  0.00    -0.205 C  
HETATM   18  O   UNL     1      -7.914  12.532  65.956  1.00  0.00     0.741 OA 
HETATM   19  C   UNL     1      -9.918  10.653  66.844  1.00  0.00    -0.202 C  
HETATM   20  C   UNL     1     -10.862  12.680  67.839  1.00  0.00    -0.219 C  
HETATM   21  O   UNL     1      -8.888  10.193  66.103  1.00  0.00    -0.141 OA 
HETATM   22  N   UNL     1     -10.958  14.021  68.197  1.00  0.00    -0.246 NA 
HETATM   23  O   UNL     1     -10.804   9.908  67.259  1.00  0.00    -0.267 OA 
HETATM   24  C   UNL     1     -10.030  14.977  67.630  1.00  0.00    -0.225 A  
HETATM   25 CL   UNL     1     -10.942  17.127  69.097  1.00  0.00    -0.073 Cl 
HETATM   26  C   UNL     1     -10.038  16.407  67.784  1.00  0.00    -0.262 A  
BRANCH  22  27
HETATM   27  C   UNL     1     -12.143  14.402  69.005  1.00  0.00    -0.263 C  
HETATM   28  C   UNL     1     -11.962  14.828  70.448  1.00  0.00    -0.368 C  
HETATM   29  C   UNL     1     -12.713  13.579  70.147  1.00  0.00    -0.066 C  
ENDBRANCH  22  27
ENDBRANCH   9  11
TORSDOF 2
ENDMDL
MODEL      151
REMARK 921   NORMALIZED FREE ENERGY PREDICTED BY IDOCK:    2.61 KCAL/MOL
REMARK 922        TOTAL FREE ENERGY PREDICTED BY IDOCK:    2.18 KCAL/MOL
REMARK 923 INTER-LIGAND FREE ENERGY PREDICTED BY IDOCK:   -1.86 KCAL/MOL
REMARK 924 INTRA-LIGAND FREE ENERGY PREDICTED BY IDOCK:    4.04 KCAL/MOL
REMARK 927      BINDING AFFINITY PREDICTED BY RF-SCORE:    0.00 PKD
ROOT
HETATM    1  N   UNL     1      -6.570   9.949  70.393  1.00  0.00    -0.110 NA 
HETATM    2  C   UNL     1      -7.082   8.781  69.655  1.00  0.00    -0.054 C  
HETATM    3  H1  UNL     1      -7.335  10.520  70.753  1.00  0.00     0.000 HD 
HETATM    4  H2  UNL     1      -5.925  10.499  69.825  1.00  0.00     0.000 HD 
HETATM    5  C   UNL     1      -5.931   7.920  69.113  1.00  0.00    -0.034 C  
HETATM    6  C   UNL     1      -5.154   8.497  67.920  1.00  0.00    -0.034 C  
HETATM    7  C   UNL     1      -5.960   8.506  66.613  1.00  0.00    -0.053 C  
HETATM    8  C   UNL     1      -6.912   9.699  66.398  1.00  0.00    -0.088 C  
HETATM    9  N   UNL     1      -7.445  10.235  67.665  1.00  0.00    -0.089 NA 
HETATM   10  C   UNL     1      -8.056   9.191  68.526  1.00  0.00    -0.103 C  
ENDROOT
BRANCH   9  11
HETATM   11  C   UNL     1      -7.791  11.602  67.775  1.00  0.00    -0.129 A  
HETATM   12  C   UNL     1      -6.946  12.629  67.299  1.00  0.00    -0.100 A  
HETATM   13  C   UNL     1      -7.242  13.975  67.420  1.00  0.00    -0.117 A  
HETATM   14  F   UNL     1      -5.767  12.388  66.712  1.00  0.00    -0.118 F  
HETATM   15  C   UNL     1      -8.391  14.378  68.083  1.00  0.00    -0.158 A  
HETATM   16  C   UNL     1      -8.567  15.836  68.256  1.00  0.00    -0.170 C  
HETATM   17  C   UNL     1      -9.696  16.313  69.055  1.00  0.00    -0.252 C  
HETATM   18  O   UNL     1      -7.770  16.642  67.782  1.00  0.00    -0.158 OA 
HETATM   19  C   UNL     1      -9.912  17.734  69.380  1.00  0.00     0.020 C  
HETATM   20  C   UNL     1     -10.548  15.374  69.495  1.00  0.00    -0.268 C  
HETATM   21  O   UNL     1      -8.993  18.581  68.871  1.00  0.00    -0.273 OA 
HETATM   22  N   UNL     1     -10.495  14.007  69.243  1.00  0.00    -0.092 NA 
HETATM   23  O   UNL     1     -10.854  18.132  70.064  1.00  0.00     0.991 OA 
HETATM   24  C   UNL     1      -9.343  13.452  68.564  1.00  0.00    -0.097 A  
HETATM   25 CL   UNL     1     -10.336  10.884  68.419  1.00  0.00    -0.184 Cl 
HETATM   26  C   UNL     1      -9.050  12.065  68.318  1.00  0.00    -0.190 A  
BRANCH  22  27
HETATM   27  C   UNL     1     -11.560  13.182  69.867  1.00  0.00    -0.185 C  
HETATM   28  C   UNL     1     -11.266  11.748  70.260  1.00  0.00     0.295 C  
HETATM   29  C   UNL     1     -12.263  12.020  69.189  1.00  0.00    -0.106 C  
ENDBRANCH  22  27
ENDBRANCH   9  11
TORSDOF 2
ENDMDL
MODEL      152
REMARK 921   NORMALIZED FREE ENERGY PREDICTED BY IDOCK:    3.31 KCAL/MOL
REMARK 922        TOTAL FREE ENERGY PREDICTED BY IDOCK:    2.96 KCAL/MOL
REMARK 923 INTER-LIGAND FREE ENERGY PREDICTED BY IDOCK:    0.03 KCAL/MOL
REMARK 924 INTRA-LIGAND FREE ENERGY PREDICTED BY IDOCK:    2.93 KCAL/MOL
REMARK 927      BINDING AFFINITY PREDICTED BY RF-SCORE:    0.00 PKD
ROOT
HETATM    1  N   UNL     1      -5.944  12.634  66.054  1.00  0.00     1.549 NA 
HETATM    2  C   UNL     1      -5.316  11.306  66.156  1.00  0.00    -0.116 C  
HETATM    3  H1  UNL     1      -5.925  13.120  66.951  1.00  0.00     0.000 HD 
HETATM    4  H2  UNL     1      -6.892  12.574  65.679  1.00  0.00     0.000 HD 
HETATM    5  C   UNL     1      -5.345  10.574  64.805  1.00  0.00    -0.148 C  
HETATM    6  C   UNL     1      -6.711  10.037  64.352  1.00  0.00    -0.128 C  
HETATM    7  C   UNL     1      -7.202   8.841  65.179  1.00  0.00    -0.087 C  
HETATM    8  C   UNL     1      -7.920   9.165  66.504  1.00  0.00    -0.100 C  
HETATM    9  N   UNL     1      -7.432  10.413  67.122  1.00  0.00    -0.091 NA 
HETATM   10  C   UNL     1      -5.955  10.447  67.272  1.00  0.00    -0.053 C  
ENDROOT
BRANCH   9  11
HETATM   11  C   UNL     1      -8.291  11.198  67.926  1.00  0.00    -0.129 A  
HETATM   12  C   UNL     1      -9.510  10.694  68.430  1.00  0.00    -0.165 A  
HETATM   13  C   UNL     1     -10.386  11.446  69.193  1.00  0.00    -0.122 A  
HETATM   14  F   UNL     1      -9.940   9.449  68.190  1.00  0.00    -0.167 F  
HETATM   15  C   UNL     1     -10.114  12.782  69.451  1.00  0.00     0.688 A  
HETATM   16  C   UNL     1     -11.159  13.531  70.181  1.00  0.00     0.412 C  
HETATM   17  C   UNL     1     -10.981  14.971  70.373  1.00  0.00    -0.222 C  
HETATM   18  O   UNL     1     -12.180  12.982  70.589  1.00  0.00    -0.364 OA 
HETATM   19  C   UNL     1     -12.001  15.835  70.994  1.00  0.00    -0.419 C  
HETATM   20  C   UNL     1      -9.818  15.484  69.944  1.00  0.00    -0.198 C  
HETATM   21  O   UNL     1     -13.122  15.197  71.392  1.00  0.00    -0.354 OA 
HETATM   22  N   UNL     1      -8.754  14.795  69.374  1.00  0.00    -0.034 NA 
HETATM   23  O   UNL     1     -11.856  17.047  71.140  1.00  0.00     0.689 OA 
HETATM   24  C   UNL     1      -8.908  13.393  69.045  1.00  0.00     0.418 A  
HETATM   25 CL   UNL     1      -6.299  13.025  68.233  1.00  0.00    -0.079 Cl 
HETATM   26  C   UNL     1      -7.976  12.544  68.352  1.00  0.00    -0.139 A  
BRANCH  22  27
HETATM   27  C   UNL     1      -7.582  15.611  68.970  1.00  0.00    -0.187 C  
HETATM   28  C   UNL     1      -7.754  17.094  68.709  1.00  0.00    -0.259 C  
HETATM   29  C   UNL     1      -7.371  16.196  67.585  1.00  0.00    -0.164 C  
ENDBRANCH  22  27
ENDBRANCH   9  11
TORSDOF 2
ENDMDL
MODEL      153
REMARK 921   NORMALIZED FREE ENERGY PREDICTED BY IDOCK:    3.35 KCAL/MOL
REMARK 922        TOTAL FREE ENERGY PREDICTED BY IDOCK:    3.01 KCAL/MOL
REMARK 923 INTER-LIGAND FREE ENERGY PREDICTED BY IDOCK:    2.13 KCAL/MOL
REMARK 924 INTRA-LIGAND FREE ENERGY PREDICTED BY IDOCK:    0.87 KCAL/MOL
REMARK 927      BINDING AFFINITY PREDICTED BY RF-SCORE:    0.00 PKD
ROOT
HETATM    1  N   UNL     1      -6.986  11.090  71.884  1.00  0.00     2.862 NA 
HETATM    2  C   UNL     1      -5.803  11.657  71.216  1.00  0.00     0.440 C  
HETATM    3  H1  UNL     1      -6.754  10.222  72.368  1.00  0.00     0.000 HD 
HETATM    4  H2  UNL     1      -7.760  10.962  71.233  1.00  0.00     0.000 HD 
HETATM    5  C   UNL     1      -6.152  12.965  70.488  1.00  0.00     0.018 C  
HETATM    6  C   UNL     1      -6.975  12.827  69.199  1.00  0.00    -0.015 C  
HETATM    7  C   UNL     1      -6.186  12.215  68.033  1.00  0.00    -0.065 C  
HETATM    8  C   UNL     1      -6.105  10.676  67.987  1.00  0.00    -0.046 C  
HETATM    9  N   UNL     1      -6.142  10.066  69.329  1.00  0.00    -0.040 NA 
HETATM   10  C   UNL     1      -5.137  10.643  70.257  1.00  0.00    -0.047 C  
ENDROOT
BRANCH   9  11
HETATM   11  C   UNL     1      -6.685   8.773  69.514  1.00  0.00    -0.047 A  
HETATM   12  C   UNL     1      -6.272   7.932  70.570  1.00  0.00    -0.036 A  
HETATM   13  C   UNL     1      -6.761   6.651  70.759  1.00  0.00    -0.054 A  
HETATM   14  F   UNL     1      -5.345   8.290  71.467  1.00  0.00    -0.033 F  
HETATM   15  C   UNL     1      -7.665   6.112  69.856  1.00  0.00    -0.100 A  
HETATM   16  C   UNL     1      -8.048   4.702  70.080  1.00  0.00    -0.068 C  
HETATM   17  C   UNL     1      -8.902   4.043  69.090  1.00  0.00    -0.147 C  
HETATM   18  O   UNL     1      -7.636   4.067  71.048  1.00  0.00    -0.046 OA 
HETATM   19  C   UNL     1      -9.262   2.616  69.156  1.00  0.00    -0.142 C  
HETATM   20  C   UNL     1      -9.351   4.817  68.090  1.00  0.00    -0.134 C  
HETATM   21  O   UNL     1      -8.757   1.949  70.215  1.00  0.00    -0.054 OA 
HETATM   22  N   UNL     1      -9.125   6.178  67.914  1.00  0.00    -0.118 NA 
HETATM   23  O   UNL     1      -9.967   2.062  68.315  1.00  0.00     0.137 OA 
HETATM   24  C   UNL     1      -8.195   6.864  68.785  1.00  0.00    -0.121 A  
HETATM   25 CL   UNL     1      -8.661   9.374  67.742  1.00  0.00    -0.117 Cl 
HETATM   26  C   UNL     1      -7.744   8.227  68.691  1.00  0.00    -0.114 A  
BRANCH  22  27
HETATM   27  C   UNL     1      -9.729   6.793  66.705  1.00  0.00    -0.171 C  
HETATM   28  C   UNL     1      -9.536   6.138  65.353  1.00  0.00     0.406 C  
HETATM   29  C   UNL     1      -8.946   7.482  65.602  1.00  0.00    -0.012 C  
ENDBRANCH  22  27
ENDBRANCH   9  11
TORSDOF 2
ENDMDL
MODEL      154
REMARK 921   NORMALIZED FREE ENERGY PREDICTED BY IDOCK:    3.36 KCAL/MOL
REMARK 922        TOTAL FREE ENERGY PREDICTED BY IDOCK:    3.02 KCAL/MOL
REMARK 923 INTER-LIGAND FREE ENERGY PREDICTED BY IDOCK:    3.50 KCAL/MOL
REMARK 924 INTRA-LIGAND FREE ENERGY PREDICTED BY IDOCK:   -0.48 KCAL/MOL
REMARK 927      BINDING AFFINITY PREDICTED BY RF-SCORE:    0.00 PKD
ROOT
HETATM    1  N   UNL     1      -9.487   4.496  70.285  1.00  0.00    -0.152 NA 
HETATM    2  C   UNL     1      -8.941   3.177  69.923  1.00  0.00    -0.105 C  
HETATM    3  H1  UNL     1     -10.227   4.777  69.641  1.00  0.00     0.000 HD 
HETATM    4  H2  UNL     1      -8.754   5.203  70.346  1.00  0.00     0.000 HD 
HETATM    5  C   UNL     1      -7.826   2.754  70.892  1.00  0.00    -0.047 C  
HETATM    6  C   UNL     1      -6.487   3.492  70.752  1.00  0.00    -0.031 C  
HETATM    7  C   UNL     1      -5.718   3.127  69.474  1.00  0.00    -0.018 C  
HETATM    8  C   UNL     1      -6.115   3.882  68.191  1.00  0.00    -0.032 C  
HETATM    9  N   UNL     1      -7.538   4.272  68.179  1.00  0.00    -0.068 NA 
HETATM   10  C   UNL     1      -8.453   3.136  68.456  1.00  0.00    -0.079 C  
ENDROOT
BRANCH   9  11
HETATM   11  C   UNL     1      -7.958   5.427  67.480  1.00  0.00    -0.101 A  
HETATM   12  C   UNL     1      -8.995   5.386  66.522  1.00  0.00    -0.120 A  
HETATM   13  C   UNL     1      -9.407   6.492  65.800  1.00  0.00     0.115 A  
HETATM   14  F   UNL     1      -9.652   4.263  66.207  1.00  0.00    -0.142 F  
HETATM   15  C   UNL     1      -8.759   7.708  65.958  1.00  0.00    -0.178 A  
HETATM   16  C   UNL     1      -9.199   8.802  65.067  1.00  0.00     0.114 C  
HETATM   17  C   UNL     1      -8.468  10.070  65.103  1.00  0.00    -0.160 C  
HETATM   18  O   UNL     1     -10.129   8.657  64.277  1.00  0.00     2.524 OA 
HETATM   19  C   UNL     1      -8.751  11.192  64.191  1.00  0.00     0.194 C  
HETATM   20  C   UNL     1      -7.500  10.167  66.027  1.00  0.00    -0.118 C  
HETATM   21  O   UNL     1      -9.755  10.974  63.315  1.00  0.00    -0.292 OA 
HETATM   22  N   UNL     1      -7.142   9.212  66.973  1.00  0.00    -0.085 NA 
HETATM   23  O   UNL     1      -8.126  12.250  64.213  1.00  0.00     2.653 OA 
HETATM   24  C   UNL     1      -7.740   7.894  66.917  1.00  0.00    -0.099 A  
HETATM   25 CL   UNL     1      -6.552   6.969  69.227  1.00  0.00    -0.043 Cl 
HETATM   26  C   UNL     1      -7.418   6.748  67.724  1.00  0.00    -0.098 A  
BRANCH  22  27
HETATM   27  C   UNL     1      -6.017   9.569  67.874  1.00  0.00    -0.051 C  
HETATM   28  C   UNL     1      -6.142  10.766  68.794  1.00  0.00    -0.040 C  
HETATM   29  C   UNL     1      -5.127  10.787  67.706  1.00  0.00    -0.039 C  
ENDBRANCH  22  27
ENDBRANCH   9  11
TORSDOF 2
ENDMDL
MODEL      155
REMARK 921   NORMALIZED FREE ENERGY PREDICTED BY IDOCK:    4.03 KCAL/MOL
REMARK 922        TOTAL FREE ENERGY PREDICTED BY IDOCK:    3.77 KCAL/MOL
REMARK 923 INTER-LIGAND FREE ENERGY PREDICTED BY IDOCK:    3.33 KCAL/MOL
REMARK 924 INTRA-LIGAND FREE ENERGY PREDICTED BY IDOCK:    0.44 KCAL/MOL
REMARK 927      BINDING AFFINITY PREDICTED BY RF-SCORE:    0.00 PKD
ROOT
HETATM    1  N   UNL     1      -7.180  10.246  71.560  1.00  0.00     0.685 NA 
HETATM    2  C   UNL     1      -5.982  11.103  71.530  1.00  0.00     0.769 C  
HETATM    3  H1  UNL     1      -6.931   9.263  71.445  1.00  0.00     0.000 HD 
HETATM    4  H2  UNL     1      -7.871  10.542  70.870  1.00  0.00     0.000 HD 
HETATM    5  C   UNL     1      -6.357  12.584  71.704  1.00  0.00     2.570 C  
HETATM    6  C   UNL     1      -7.029  13.260  70.501  1.00  0.00     1.416 C  
HETATM    7  C   UNL     1      -6.079  13.485  69.316  1.00  0.00    -0.097 C  
HETATM    8  C   UNL     1      -5.874  12.294  68.360  1.00  0.00    -0.054 C  
HETATM    9  N   UNL     1      -6.000  10.992  69.041  1.00  0.00    -0.040 NA 
HETATM   10  C   UNL     1      -5.144  10.883  70.250  1.00  0.00    -0.058 C  
ENDROOT
BRANCH   9  11
HETATM   11  C   UNL     1      -6.456   9.855  68.335  1.00  0.00    -0.054 A  
HETATM   12  C   UNL     1      -6.213   8.541  68.794  1.00  0.00    -0.045 A  
HETATM   13  C   UNL     1      -6.619   7.409  68.110  1.00  0.00    -0.050 A  
HETATM   14  F   UNL     1      -5.541   8.276  69.921  1.00  0.00    -0.025 F  
HETATM   15  C   UNL     1      -7.252   7.528  66.882  1.00  0.00    -0.085 A  
HETATM   16  C   UNL     1      -7.551   6.263  66.177  1.00  0.00    -0.090 C  
HETATM   17  C   UNL     1      -8.105   6.330  64.824  1.00  0.00    -0.127 C  
HETATM   18  O   UNL     1      -7.308   5.170  66.683  1.00  0.00    -0.083 OA 
HETATM   19  C   UNL     1      -8.346   5.140  63.990  1.00  0.00    -0.132 C  
HETATM   20  C   UNL     1      -8.389   7.558  64.363  1.00  0.00     0.074 C  
HETATM   21  O   UNL     1      -8.029   3.964  64.571  1.00  0.00    -0.085 OA 
HETATM   22  N   UNL     1      -8.250   8.764  65.042  1.00  0.00    -0.147 NA 
HETATM   23  O   UNL     1      -8.798   5.200  62.848  1.00  0.00    -0.110 OA 
HETATM   24  C   UNL     1      -7.597   8.782  66.334  1.00  0.00    -0.091 A  
HETATM   25 CL   UNL     1      -8.039  11.462  66.813  1.00  0.00    -0.158 Cl 
HETATM   26  C   UNL     1      -7.256   9.931  67.131  1.00  0.00    -0.086 A  
BRANCH  22  27
HETATM   27  C   UNL     1      -8.624   9.988  64.291  1.00  0.00    -0.189 C  
HETATM   28  C   UNL     1     -10.082  10.265  63.985  1.00  0.00    -0.076 C  
HETATM   29  C   UNL     1      -9.140  10.003  62.863  1.00  0.00    -0.301 C  
ENDBRANCH  22  27
ENDBRANCH   9  11
TORSDOF 2
ENDMDL
MODEL      156
REMARK 921   NORMALIZED FREE ENERGY PREDICTED BY IDOCK:    6.41 KCAL/MOL
REMARK 922        TOTAL FREE ENERGY PREDICTED BY IDOCK:    6.43 KCAL/MOL
REMARK 923 INTER-LIGAND FREE ENERGY PREDICTED BY IDOCK:    3.15 KCAL/MOL
REMARK 924 INTRA-LIGAND FREE ENERGY PREDICTED BY IDOCK:    3.28 KCAL/MOL
REMARK 927      BINDING AFFINITY PREDICTED BY RF-SCORE:    0.00 PKD
ROOT
HETATM    1  N   UNL     1     -13.466  13.248  69.255  1.00  0.00     2.268 NA 
HETATM    2  C   UNL     1     -12.893  14.521  69.725  1.00  0.00     0.148 C  
HETATM    3  H1  UNL     1     -13.542  12.575  70.018  1.00  0.00     0.000 HD 
HETATM    4  H2  UNL     1     -12.940  12.866  68.469  1.00  0.00     0.000 HD 
HETATM    5  C   UNL     1     -12.779  15.534  68.575  1.00  0.00     1.097 C  
HETATM    6  C   UNL     1     -11.675  15.269  67.542  1.00  0.00    -0.153 C  
HETATM    7  C   UNL     1     -10.259  15.503  68.087  1.00  0.00    -0.227 C  
HETATM    8  C   UNL     1      -9.619  14.340  68.870  1.00  0.00    -0.084 C  
HETATM    9  N   UNL     1     -10.618  13.516  69.578  1.00  0.00     0.175 NA 
HETATM   10  C   UNL     1     -11.532  14.318  70.430  1.00  0.00    -0.128 C  
ENDROOT
BRANCH   9  11
HETATM   11  C   UNL     1     -10.377  12.143  69.813  1.00  0.00     1.063 A  
HETATM   12  C   UNL     1      -9.161  11.523  69.448  1.00  0.00     0.634 A  
HETATM   13  C   UNL     1      -8.907  10.176  69.636  1.00  0.00    -0.184 A  
HETATM   14  F   UNL     1      -8.155  12.182  68.859  1.00  0.00    -0.110 F  
HETATM   15  C   UNL     1      -9.891   9.349  70.158  1.00  0.00    -0.272 A  
HETATM   16  C   UNL     1      -9.565   7.908  70.221  1.00  0.00    -0.171 C  
HETATM   17  C   UNL     1     -10.608   6.974  70.646  1.00  0.00    -0.246 C  
HETATM   18  O   UNL     1      -8.462   7.481  69.889  1.00  0.00    -0.135 OA 
HETATM   19  C   UNL     1     -10.430   5.511  70.650  1.00  0.00    -0.272 C  
HETATM   20  C   UNL     1     -11.768   7.523  71.041  1.00  0.00    -0.292 C  
HETATM   21  O   UNL     1      -9.217   5.084  70.241  1.00  0.00    -0.128 OA 
HETATM   22  N   UNL     1     -12.071   8.878  71.124  1.00  0.00    -0.291 NA 
HETATM   23  O   UNL     1     -11.313   4.728  70.993  1.00  0.00     0.816 OA 
HETATM   24  C   UNL     1     -11.132   9.851  70.607  1.00  0.00    -0.340 A  
HETATM   25 CL   UNL     1     -12.560  12.059  71.436  1.00  0.00    -0.390 Cl 
HETATM   26  C   UNL     1     -11.311  11.274  70.496  1.00  0.00     0.182 A  
BRANCH  22  27
HETATM   27  C   UNL     1     -13.442   9.217  71.579  1.00  0.00    -0.370 C  
HETATM   28  C   UNL     1     -13.634  10.159  72.750  1.00  0.00     0.575 C  
HETATM   29  C   UNL     1     -14.066   8.741  72.879  1.00  0.00    -0.017 C  
ENDBRANCH  22  27
ENDBRANCH   9  11
TORSDOF 2
ENDMDL
MODEL      157
REMARK 921   NORMALIZED FREE ENERGY PREDICTED BY IDOCK:    6.93 KCAL/MOL
REMARK 922        TOTAL FREE ENERGY PREDICTED BY IDOCK:    7.00 KCAL/MOL
REMARK 923 INTER-LIGAND FREE ENERGY PREDICTED BY IDOCK:    7.09 KCAL/MOL
REMARK 924 INTRA-LIGAND FREE ENERGY PREDICTED BY IDOCK:   -0.09 KCAL/MOL
REMARK 927      BINDING AFFINITY PREDICTED BY RF-SCORE:    0.00 PKD
ROOT
HETATM    1  N   UNL     1      -5.665  15.263  69.043  1.00  0.00    -0.097 NA 
HETATM    2  C   UNL     1      -6.632  16.366  69.168  1.00  0.00    -0.195 C  
HETATM    3  H1  UNL     1      -5.391  15.122  68.070  1.00  0.00     0.000 HD 
HETATM    4  H2  UNL     1      -6.019  14.402  69.462  1.00  0.00     0.000 HD 
HETATM    5  C   UNL     1      -7.044  16.578  70.634  1.00  0.00     2.194 C  
HETATM    6  C   UNL     1      -7.977  15.518  71.238  1.00  0.00     3.661 C  
HETATM    7  C   UNL     1      -9.404  15.568  70.675  1.00  0.00     1.358 C  
HETATM    8  C   UNL     1      -9.647  14.829  69.344  1.00  0.00    -0.003 C  
HETATM    9  N   UNL     1      -8.452  14.808  68.480  1.00  0.00    -0.153 NA 
HETATM   10  C   UNL     1      -7.869  16.157  68.264  1.00  0.00    -0.153 C  
ENDROOT
BRANCH   9  11
HETATM   11  C   UNL     1      -8.237  13.739  67.579  1.00  0.00    -0.188 A  
HETATM   12  C   UNL     1      -8.766  13.747  66.270  1.00  0.00     0.398 A  
HETATM   13  C   UNL     1      -8.600  12.703  65.377  1.00  0.00     1.491 A  
HETATM   14  F   UNL     1      -9.502  14.755  65.787  1.00  0.00    -0.324 F  
HETATM   15  C   UNL     1      -7.931  11.553  65.768  1.00  0.00     0.359 A  
HETATM   16  C   UNL     1      -7.897  10.451  64.782  1.00  0.00    -0.086 C  
HETATM   17  C   UNL     1      -7.314   9.171  65.184  1.00  0.00    -0.096 C  
HETATM   18  O   UNL     1      -8.380  10.576  63.659  1.00  0.00    -0.166 OA 
HETATM   19  C   UNL     1      -7.318   7.975  64.323  1.00  0.00    -0.095 C  
HETATM   20  C   UNL     1      -6.763   9.131  66.407  1.00  0.00    -0.071 C  
HETATM   21  O   UNL     1      -7.893   8.146  63.113  1.00  0.00    -0.135 OA 
HETATM   22  N   UNL     1      -6.654  10.180  67.314  1.00  0.00    -0.068 NA 
HETATM   23  O   UNL     1      -6.841   6.896  64.668  1.00  0.00    -0.044 OA 
HETATM   24  C   UNL     1      -7.313  11.437  67.032  1.00  0.00    -0.144 A  
HETATM   25 CL   UNL     1      -6.315  12.758  69.237  1.00  0.00    -0.103 Cl 
HETATM   26  C   UNL     1      -7.415  12.589  67.888  1.00  0.00    -0.120 A  
BRANCH  22  27
HETATM   27  C   UNL     1      -6.010   9.861  68.613  1.00  0.00    -0.038 C  
HETATM   28  C   UNL     1      -5.640   8.427  68.936  1.00  0.00    -0.039 C  
HETATM   29  C   UNL     1      -6.680   9.112  69.751  1.00  0.00    -0.050 C  
ENDBRANCH  22  27
ENDBRANCH   9  11
TORSDOF 2
ENDMDL
MODEL      158
REMARK 921   NORMALIZED FREE ENERGY PREDICTED BY IDOCK:    8.33 KCAL/MOL
REMARK 922        TOTAL FREE ENERGY PREDICTED BY IDOCK:    8.57 KCAL/MOL
REMARK 923 INTER-LIGAND FREE ENERGY PREDICTED BY IDOCK:    7.16 KCAL/MOL
REMARK 924 INTRA-LIGAND FREE ENERGY PREDICTED BY IDOCK:    1.41 KCAL/MOL
REMARK 927      BINDING AFFINITY PREDICTED BY RF-SCORE:    0.00 PKD
ROOT
HETATM    1  N   UNL     1     -11.422  19.293  68.215  1.00  0.00     0.547 NA 
HETATM    2  C   UNL     1     -10.688  20.531  67.901  1.00  0.00     0.359 C  
HETATM    3  H1  UNL     1     -10.977  18.786  68.980  1.00  0.00     0.000 HD 
HETATM    4  H2  UNL     1     -11.536  18.704  67.390  1.00  0.00     0.000 HD 
HETATM    5  C   UNL     1     -11.358  21.296  66.749  1.00  0.00     5.195 C  
HETATM    6  C   UNL     1     -11.196  20.690  65.347  1.00  0.00     1.313 C  
HETATM    7  C   UNL     1      -9.769  20.806  64.792  1.00  0.00     1.964 C  
HETATM    8  C   UNL     1      -8.768  19.720  65.230  1.00  0.00     1.063 C  
HETATM    9  N   UNL     1      -9.057  19.192  66.577  1.00  0.00    -0.331 NA 
HETATM   10  C   UNL     1      -9.196  20.259  67.601  1.00  0.00    -0.328 C  
ENDROOT
BRANCH   9  11
HETATM   11  C   UNL     1      -8.714  17.862  66.914  1.00  0.00    -0.246 A  
HETATM   12  C   UNL     1      -9.439  16.755  66.421  1.00  0.00    -0.282 A  
HETATM   13  C   UNL     1      -9.147  15.445  66.757  1.00  0.00    -0.286 A  
HETATM   14  F   UNL     1     -10.493  16.878  65.606  1.00  0.00    -0.338 F  
HETATM   15  C   UNL     1      -8.134  15.167  67.663  1.00  0.00    -0.177 A  
HETATM   16  C   UNL     1      -7.968  13.748  68.041  1.00  0.00    -0.156 C  
HETATM   17  C   UNL     1      -6.998  13.411  69.084  1.00  0.00    -0.044 C  
HETATM   18  O   UNL     1      -8.650  12.861  67.533  1.00  0.00    -0.166 OA 
HETATM   19  C   UNL     1      -6.821  12.047  69.613  1.00  0.00     0.085 C  
HETATM   20  C   UNL     1      -6.258  14.428  69.552  1.00  0.00    -0.121 C  
HETATM   21  O   UNL     1      -7.617  11.112  69.053  1.00  0.00    -0.123 OA 
HETATM   22  N   UNL     1      -6.287  15.753  69.131  1.00  0.00    -0.126 NA 
HETATM   23  O   UNL     1      -6.016  11.770  70.500  1.00  0.00    -0.224 OA 
HETATM   24  C   UNL     1      -7.303  16.179  68.191  1.00  0.00    -0.132 A  
HETATM   25 CL   UNL     1      -6.345  18.750  67.916  1.00  0.00    -0.205 Cl 
HETATM   26  C   UNL     1      -7.569  17.515  67.729  1.00  0.00    -0.193 A  
BRANCH  22  27
HETATM   27  C   UNL     1      -5.370  16.686  69.832  1.00  0.00    -0.180 C  
HETATM   28  C   UNL     1      -5.776  17.277  71.167  1.00  0.00     0.531 C  
HETATM   29  C   UNL     1      -5.609  18.177  69.993  1.00  0.00    -0.243 C  
ENDBRANCH  22  27
ENDBRANCH   9  11
TORSDOF 2
ENDMDL
MODEL      159
REMARK 921   NORMALIZED FREE ENERGY PREDICTED BY IDOCK:    9.91 KCAL/MOL
REMARK 922        TOTAL FREE ENERGY PREDICTED BY IDOCK:   10.33 KCAL/MOL
REMARK 923 INTER-LIGAND FREE ENERGY PREDICTED BY IDOCK:    5.26 KCAL/MOL
REMARK 924 INTRA-LIGAND FREE ENERGY PREDICTED BY IDOCK:    5.06 KCAL/MOL
REMARK 927      BINDING AFFINITY PREDICTED BY RF-SCORE:    0.00 PKD
ROOT
HETATM    1  N   UNL     1     -12.207   5.478  66.315  1.00  0.00     2.401 NA 
HETATM    2  C   UNL     1     -11.226   5.030  65.311  1.00  0.00     0.618 C  
HETATM    3  H1  UNL     1     -12.499   6.439  66.140  1.00  0.00     0.000 HD 
HETATM    4  H2  UNL     1     -11.852   5.360  67.265  1.00  0.00     0.000 HD 
HETATM    5  C   UNL     1     -10.786   3.582  65.574  1.00  0.00     1.060 C  
HETATM    6  C   UNL     1      -9.851   3.363  66.773  1.00  0.00     0.186 C  
HETATM    7  C   UNL     1      -8.434   3.912  66.552  1.00  0.00    -0.105 C  
HETATM    8  C   UNL     1      -8.223   5.413  66.833  1.00  0.00    -0.104 C  
HETATM    9  N   UNL     1      -9.435   6.214  66.576  1.00  0.00    -0.153 NA 
HETATM   10  C   UNL     1     -10.010   5.980  65.226  1.00  0.00     1.108 C  
ENDROOT
BRANCH   9  11
HETATM   11  C   UNL     1      -9.677   7.401  67.304  1.00  0.00    -0.157 A  
HETATM   12  C   UNL     1     -10.851   7.585  68.067  1.00  0.00    -0.030 A  
HETATM   13  C   UNL     1     -11.131   8.747  68.765  1.00  0.00     0.215 A  
HETATM   14  F   UNL     1     -11.813   6.659  68.158  1.00  0.00    -0.022 F  
HETATM   15  C   UNL     1     -10.264   9.827  68.693  1.00  0.00    -0.210 A  
HETATM   16  C   UNL     1     -10.700  11.060  69.384  1.00  0.00    -0.205 C  
HETATM   17  C   UNL     1      -9.886  12.267  69.238  1.00  0.00     0.562 C  
HETATM   18  O   UNL     1     -11.741  11.100  70.035  1.00  0.00    -0.298 OA 
HETATM   19  C   UNL     1     -10.275  13.575  69.795  1.00  0.00     1.030 C  
HETATM   20  C   UNL     1      -8.740  12.128  68.554  1.00  0.00    -0.079 C  
HETATM   21  O   UNL     1     -11.444  13.582  70.470  1.00  0.00    -0.030 OA 
HETATM   22  N   UNL     1      -8.227  10.959  68.003  1.00  0.00    -0.117 NA 
HETATM   23  O   UNL     1      -9.597  14.592  69.659  1.00  0.00     0.145 OA 
HETATM   24  C   UNL     1      -9.034   9.757  68.004  1.00  0.00    -0.118 A  
HETATM   25 CL   UNL     1      -7.080   8.129  66.938  1.00  0.00    -0.077 Cl 
HETATM   26  C   UNL     1      -8.731   8.493  67.386  1.00  0.00    -0.134 A  
BRANCH  22  27
HETATM   27  C   UNL     1      -6.938  11.085  67.278  1.00  0.00    -0.096 C  
HETATM   28  C   UNL     1      -6.531  10.021  66.279  1.00  0.00    -0.081 C  
HETATM   29  C   UNL     1      -5.722  10.207  67.514  1.00  0.00    -0.045 C  
ENDBRANCH  22  27
ENDBRANCH   9  11
TORSDOF 2
ENDMDL
MODEL      160
REMARK 921   NORMALIZED FREE ENERGY PREDICTED BY IDOCK:   13.13 KCAL/MOL
REMARK 922        TOTAL FREE ENERGY PREDICTED BY IDOCK:   13.93 KCAL/MOL
REMARK 923 INTER-LIGAND FREE ENERGY PREDICTED BY IDOCK:   11.85 KCAL/MOL
REMARK 924 INTRA-LIGAND FREE ENERGY PREDICTED BY IDOCK:    2.08 KCAL/MOL
REMARK 927      BINDING AFFINITY PREDICTED BY RF-SCORE:    0.00 PKD
ROOT
HETATM    1  N   UNL     1      -6.468   8.385  70.832  1.00  0.00    -0.037 NA 
HETATM    2  C   UNL     1      -6.401   9.847  70.660  1.00  0.00    -0.104 C  
HETATM    3  H1  UNL     1      -5.960   7.904  70.090  1.00  0.00     0.000 HD 
HETATM    4  H2  UNL     1      -7.433   8.059  70.900  1.00  0.00     0.000 HD 
HETATM    5  C   UNL     1      -7.166  10.572  71.777  1.00  0.00     3.373 C  
HETATM    6  C   UNL     1      -8.699  10.504  71.706  1.00  0.00     6.495 C  
HETATM    7  C   UNL     1      -9.295  11.330  70.558  1.00  0.00     3.659 C  
HETATM    8  C   UNL     1      -9.335  10.658  69.172  1.00  0.00    -0.160 C  
HETATM    9  N   UNL     1      -8.229   9.702  68.973  1.00  0.00    -0.107 NA 
HETATM   10  C   UNL     1      -6.896  10.288  69.263  1.00  0.00    -0.068 C  
ENDROOT
BRANCH   9  11
HETATM   11  C   UNL     1      -8.393   8.583  68.124  1.00  0.00    -0.127 A  
HETATM   12  C   UNL     1      -8.603   8.722  66.735  1.00  0.00    -0.115 A  
HETATM   13  C   UNL     1      -8.798   7.649  65.883  1.00  0.00    -0.163 A  
HETATM   14  F   UNL     1      -8.661   9.911  66.122  1.00  0.00    -0.129 F  
HETATM   15  C   UNL     1      -8.849   6.359  66.390  1.00  0.00    -0.146 A  
HETATM   16  C   UNL     1      -9.168   5.289  65.421  1.00  0.00    -0.080 C  
HETATM   17  C   UNL     1      -9.357   3.927  65.920  1.00  0.00    -0.165 C  
HETATM   18  O   UNL     1      -9.316   5.527  64.224  1.00  0.00     0.356 OA 
HETATM   19  C   UNL     1      -9.778   2.804  65.064  1.00  0.00     0.055 C  
HETATM   20  C   UNL     1      -9.129   3.741  67.230  1.00  0.00    -0.159 C  
HETATM   21  O   UNL     1      -9.966   3.117  63.765  1.00  0.00    -0.142 OA 
HETATM   22  N   UNL     1      -8.698   4.690  68.151  1.00  0.00    -0.102 NA 
HETATM   23  O   UNL     1      -9.950   1.663  65.489  1.00  0.00     0.475 OA 
HETATM   24  C   UNL     1      -8.607   6.079  67.753  1.00  0.00    -0.106 A  
HETATM   25 CL   UNL     1      -7.521   6.962  70.129  1.00  0.00    -0.088 Cl 
HETATM   26  C   UNL     1      -8.298   7.213  68.582  1.00  0.00    -0.125 A  
BRANCH  22  27
HETATM   27  C   UNL     1      -8.537   4.222  69.550  1.00  0.00    -0.076 C  
HETATM   28  C   UNL     1      -8.544   2.736  69.851  1.00  0.00    -0.109 C  
HETATM   29  C   UNL     1      -9.639   3.592  70.384  1.00  0.00    -0.254 C  
ENDBRANCH  22  27
ENDBRANCH   9  11
TORSDOF 2
ENDMDL
MODEL      161
REMARK 921   NORMALIZED FREE ENERGY PREDICTED BY IDOCK:   13.86 KCAL/MOL
REMARK 922        TOTAL FREE ENERGY PREDICTED BY IDOCK:   14.75 KCAL/MOL
REMARK 923 INTER-LIGAND FREE ENERGY PREDICTED BY IDOCK:   15.52 KCAL/MOL
REMARK 924 INTRA-LIGAND FREE ENERGY PREDICTED BY IDOCK:   -0.78 KCAL/MOL
REMARK 927      BINDING AFFINITY PREDICTED BY RF-SCORE:    0.00 PKD
ROOT
HETATM    1  N   UNL     1     -11.864  16.821  64.976  1.00  0.00     0.662 NA 
HETATM    2  C   UNL     1     -10.536  16.870  64.341  1.00  0.00     1.602 C  
HETATM    3  H1  UNL     1     -12.010  17.627  65.585  1.00  0.00     0.000 HD 
HETATM    4  H2  UNL     1     -12.011  15.943  65.473  1.00  0.00     0.000 HD 
HETATM    5  C   UNL     1     -10.317  15.658  63.422  1.00  0.00     6.490 C  
HETATM    6  C   UNL     1     -10.077  14.311  64.120  1.00  0.00     1.402 C  
HETATM    7  C   UNL     1      -8.712  14.218  64.817  1.00  0.00     4.602 C  
HETATM    8  C   UNL     1      -8.619  14.816  66.234  1.00  0.00     0.232 C  
HETATM    9  N   UNL     1      -9.536  15.955  66.431  1.00  0.00    -0.270 NA 
HETATM   10  C   UNL     1      -9.400  16.997  65.382  1.00  0.00     0.858 C  
ENDROOT
BRANCH   9  11
HETATM   11  C   UNL     1     -10.063  16.237  67.713  1.00  0.00    -0.252 A  
HETATM   12  C   UNL     1      -9.665  17.373  68.451  1.00  0.00    -0.304 A  
HETATM   13  C   UNL     1     -10.138  17.660  69.719  1.00  0.00     0.418 A  
HETATM   14  F   UNL     1      -8.770  18.260  67.998  1.00  0.00    -0.252 F  
HETATM   15  C   UNL     1     -11.007  16.784  70.352  1.00  0.00     0.135 A  
HETATM   16  C   UNL     1     -11.373  17.121  71.745  1.00  0.00     1.092 C  
HETATM   17  C   UNL     1     -12.187  16.170  72.503  1.00  0.00    -0.609 C  
HETATM   18  O   UNL     1     -10.978  18.151  72.284  1.00  0.00     1.708 OA 
HETATM   19  C   UNL     1     -12.526  16.351  73.925  1.00  0.00    -0.482 C  
HETATM   20  C   UNL     1     -12.621  15.094  71.827  1.00  0.00    -0.347 C  
HETATM   21  O   UNL     1     -12.039  17.477  74.488  1.00  0.00    -0.359 OA 
HETATM   22  N   UNL     1     -12.413  14.805  70.483  1.00  0.00    -0.333 NA 
HETATM   23  O   UNL     1     -13.197  15.543  74.564  1.00  0.00     0.096 OA 
HETATM   24  C   UNL     1     -11.519  15.638  69.706  1.00  0.00    -0.342 A  
HETATM   25 CL   UNL     1     -11.997  14.367  67.306  1.00  0.00    -0.431 Cl 
HETATM   26  C   UNL     1     -11.088  15.437  68.348  1.00  0.00    -0.301 A  
BRANCH  22  27
HETATM   27  C   UNL     1     -12.992  13.532  69.987  1.00  0.00     0.425 C  
HETATM   28  C   UNL     1     -13.369  12.444  70.972  1.00  0.00     0.351 C  
HETATM   29  C   UNL     1     -12.274  12.194  69.995  1.00  0.00    -0.270 C  
ENDBRANCH  22  27
ENDBRANCH   9  11
TORSDOF 2
ENDMDL
MODEL      162
REMARK 921   NORMALIZED FREE ENERGY PREDICTED BY IDOCK:   19.64 KCAL/MOL
REMARK 922        TOTAL FREE ENERGY PREDICTED BY IDOCK:   21.20 KCAL/MOL
REMARK 923 INTER-LIGAND FREE ENERGY PREDICTED BY IDOCK:   18.35 KCAL/MOL
REMARK 924 INTRA-LIGAND FREE ENERGY PREDICTED BY IDOCK:    2.85 KCAL/MOL
REMARK 927      BINDING AFFINITY PREDICTED BY RF-SCORE:    0.00 PKD
ROOT
HETATM    1  N   UNL     1     -10.733  10.413  72.018  1.00  0.00     2.142 NA 
HETATM    2  C   UNL     1     -11.516  11.652  72.157  1.00  0.00     4.894 C  
HETATM    3  H1  UNL     1      -9.795  10.608  71.667  1.00  0.00     0.000 HD 
HETATM    4  H2  UNL     1     -11.216   9.726  71.438  1.00  0.00     0.000 HD 
HETATM    5  C   UNL     1     -12.928  11.359  72.686  1.00  0.00     1.466 C  
HETATM    6  C   UNL     1     -13.902  10.702  71.696  1.00  0.00     0.275 C  
HETATM    7  C   UNL     1     -14.357  11.641  70.571  1.00  0.00     5.297 C  
HETATM    8  C   UNL     1     -13.418  11.768  69.355  1.00  0.00     3.427 C  
HETATM    9  N   UNL     1     -11.999  11.586  69.713  1.00  0.00    -0.334 NA 
HETATM   10  C   UNL     1     -11.567  12.456  70.837  1.00  0.00     1.017 C  
ENDROOT
BRANCH   9  11
HETATM   11  C   UNL     1     -11.084  11.059  68.772  1.00  0.00    -0.239 A  
HETATM   12  C   UNL     1     -10.260  11.891  67.983  1.00  0.00    -0.192 A  
HETATM   13  C   UNL     1      -9.379  11.408  67.032  1.00  0.00    -0.183 A  
HETATM   14  F   UNL     1     -10.281  13.227  68.066  1.00  0.00    -0.214 F  
HETATM   15  C   UNL     1      -9.311  10.047  66.775  1.00  0.00    -0.193 A  
HETATM   16  C   UNL     1      -8.420   9.636  65.669  1.00  0.00    -0.132 C  
HETATM   17  C   UNL     1      -8.403   8.228  65.271  1.00  0.00    -0.175 C  
HETATM   18  O   UNL     1      -7.733  10.451  65.057  1.00  0.00    -0.143 OA 
HETATM   19  C   UNL     1      -7.634   7.722  64.120  1.00  0.00    -0.113 C  
HETATM   20  C   UNL     1      -9.141   7.394  66.020  1.00  0.00    -0.085 C  
HETATM   21  O   UNL     1      -6.924   8.658  63.455  1.00  0.00    -0.089 OA 
HETATM   22  N   UNL     1      -9.887   7.715  67.149  1.00  0.00    -0.183 NA 
HETATM   23  O   UNL     1      -7.633   6.541  63.779  1.00  0.00    -0.082 OA 
HETATM   24  C   UNL     1     -10.046   9.104  67.526  1.00  0.00    -0.228 A  
HETATM   25 CL   UNL     1     -11.425   8.587  69.857  1.00  0.00     0.054 Cl 
HETATM   26  C   UNL     1     -10.866   9.641  68.579  1.00  0.00    -0.161 A  
BRANCH  22  27
HETATM   27  C   UNL     1     -10.630   6.599  67.785  1.00  0.00    -0.252 C  
HETATM   28  C   UNL     1     -12.144   6.576  67.730  1.00  0.00     2.851 C  
HETATM   29  C   UNL     1     -11.466   6.723  69.047  1.00  0.00    -0.072 C  
ENDBRANCH  22  27
ENDBRANCH   9  11
TORSDOF 2
ENDMDL
MODEL      163
REMARK 921   NORMALIZED FREE ENERGY PREDICTED BY IDOCK:   20.85 KCAL/MOL
REMARK 922        TOTAL FREE ENERGY PREDICTED BY IDOCK:   22.56 KCAL/MOL
REMARK 923 INTER-LIGAND FREE ENERGY PREDICTED BY IDOCK:   21.69 KCAL/MOL
REMARK 924 INTRA-LIGAND FREE ENERGY PREDICTED BY IDOCK:    0.87 KCAL/MOL
REMARK 927      BINDING AFFINITY PREDICTED BY RF-SCORE:    0.00 PKD
ROOT
HETATM    1  N   UNL     1      -9.844   9.797  63.985  1.00  0.00    -0.434 NA 
HETATM    2  C   UNL     1      -9.238   9.031  62.882  1.00  0.00     0.495 C  
HETATM    3  H1  UNL     1      -9.231  10.554  64.287  1.00  0.00     0.000 HD 
HETATM    4  H2  UNL     1     -10.106   9.192  64.763  1.00  0.00     0.000 HD 
HETATM    5  C   UNL     1     -10.162   7.891  62.426  1.00  0.00     5.655 C  
HETATM    6  C   UNL     1     -10.274   6.687  63.373  1.00  0.00     6.454 C  
HETATM    7  C   UNL     1      -8.999   5.833  63.428  1.00  0.00     0.518 C  
HETATM    8  C   UNL     1      -7.889   6.310  64.384  1.00  0.00    -0.115 C  
HETATM    9  N   UNL     1      -7.870   7.777  64.544  1.00  0.00    -0.132 NA 
HETATM   10  C   UNL     1      -7.833   8.502  63.248  1.00  0.00    -0.153 C  
ENDROOT
BRANCH   9  11
HETATM   11  C   UNL     1      -7.416   8.361  65.749  1.00  0.00    -0.077 A  
HETATM   12  C   UNL     1      -7.261   7.607  66.934  1.00  0.00    -0.088 A  
HETATM   13  C   UNL     1      -6.848   8.155  68.135  1.00  0.00    -0.076 A  
HETATM   14  F   UNL     1      -7.529   6.297  67.005  1.00  0.00    -0.077 F  
HETATM   15  C   UNL     1      -6.616   9.519  68.235  1.00  0.00    -0.057 A  
HETATM   16  C   UNL     1      -6.284  10.027  69.583  1.00  0.00    -0.049 C  
HETATM   17  C   UNL     1      -6.150  11.472  69.772  1.00  0.00    -0.128 C  
HETATM   18  O   UNL     1      -6.159   9.272  70.545  1.00  0.00    -0.040 OA 
HETATM   19  C   UNL     1      -5.923  12.097  71.087  1.00  0.00     0.592 C  
HETATM   20  C   UNL     1      -6.250  12.224  68.665  1.00  0.00    -0.067 C  
HETATM   21  O   UNL     1      -5.831  11.233  72.120  1.00  0.00     0.279 OA 
HETATM   22  N   UNL     1      -6.429  11.778  67.360  1.00  0.00    -0.102 NA 
HETATM   23  O   UNL     1      -5.826  13.312  71.246  1.00  0.00    -0.311 OA 
HETATM   24  C   UNL     1      -6.688  10.375  67.115  1.00  0.00    -0.078 A  
HETATM   25 CL   UNL     1      -6.662  10.579  64.365  1.00  0.00     0.010 Cl 
HETATM   26  C   UNL     1      -7.012   9.746  65.862  1.00  0.00    -0.101 A  
BRANCH  22  27
HETATM   27  C   UNL     1      -6.524  12.828  66.314  1.00  0.00     2.515 C  
HETATM   28  C   UNL     1      -5.462  13.906  66.234  1.00  0.00     4.654 C  
HETATM   29  C   UNL     1      -6.860  14.285  66.579  1.00  0.00     2.603 C  
ENDBRANCH  22  27
ENDBRANCH   9  11
TORSDOF 2
ENDMDL
MODEL      164
REMARK 921   NORMALIZED FREE ENERGY PREDICTED BY IDOCK:   21.51 KCAL/MOL
REMARK 922        TOTAL FREE ENERGY PREDICTED BY IDOCK:   23.28 KCAL/MOL
REMARK 923 INTER-LIGAND FREE ENERGY PREDICTED BY IDOCK:   18.61 KCAL/MOL
REMARK 924 INTRA-LIGAND FREE ENERGY PREDICTED BY IDOCK:    4.67 KCAL/MOL
REMARK 927      BINDING AFFINITY PREDICTED BY RF-SCORE:    0.00 PKD
ROOT
HETATM    1  N   UNL     1      -8.706  11.193  66.406  1.00  0.00    -0.173 NA 
HETATM    2  C   UNL     1      -9.479  11.448  65.179  1.00  0.00    -0.199 C  
HETATM    3  H1  UNL     1      -8.078  10.398  66.286  1.00  0.00     0.000 HD 
HETATM    4  H2  UNL     1      -9.315  11.071  67.216  1.00  0.00     0.000 HD 
HETATM    5  C   UNL     1     -10.426  12.645  65.359  1.00  0.00    -0.306 C  
HETATM    6  C   UNL     1     -11.660  12.408  66.242  1.00  0.00    -0.449 C  
HETATM    7  C   UNL     1     -12.706  11.487  65.597  1.00  0.00     2.962 C  
HETATM    8  C   UNL     1     -12.476   9.971  65.746  1.00  0.00     8.832 C  
HETATM    9  N   UNL     1     -11.045   9.619  65.821  1.00  0.00     1.255 NA 
HETATM   10  C   UNL     1     -10.247  10.191  64.707  1.00  0.00    -0.051 C  
ENDROOT
BRANCH   9  11
HETATM   11  C   UNL     1     -10.625   8.477  66.541  1.00  0.00     0.124 A  
HETATM   12  C   UNL     1     -11.544   7.531  67.047  1.00  0.00     1.726 A  
HETATM   13  C   UNL     1     -11.167   6.421  67.781  1.00  0.00    -0.258 A  
HETATM   14  F   UNL     1     -12.868   7.643  66.884  1.00  0.00     6.043 F  
HETATM   15  C   UNL     1      -9.833   6.221  68.104  1.00  0.00    -0.133 A  
HETATM   16  C   UNL     1      -9.540   5.067  68.982  1.00  0.00    -0.150 C  
HETATM   17  C   UNL     1      -8.168   4.880  69.454  1.00  0.00    -0.081 C  
HETATM   18  O   UNL     1     -10.424   4.297  69.350  1.00  0.00     0.331 OA 
HETATM   19  C   UNL     1      -7.781   3.829  70.412  1.00  0.00    -0.047 C  
HETATM   20  C   UNL     1      -7.254   5.732  68.967  1.00  0.00    -0.078 C  
HETATM   21  O   UNL     1      -8.789   3.029  70.820  1.00  0.00    -0.071 OA 
HETATM   22  N   UNL     1      -7.460   6.746  68.037  1.00  0.00    -0.096 NA 
HETATM   23  O   UNL     1      -6.630   3.682  70.819  1.00  0.00    -0.030 OA 
HETATM   24  C   UNL     1      -8.810   7.065  67.620  1.00  0.00    -0.119 A  
HETATM   25 CL   UNL     1      -8.066   8.939  65.739  1.00  0.00    -0.104 Cl 
HETATM   26  C   UNL     1      -9.235   8.143  66.767  1.00  0.00    -0.164 A  
BRANCH  22  27
HETATM   27  C   UNL     1      -6.273   7.560  67.678  1.00  0.00    -0.048 C  
HETATM   28  C   UNL     1      -5.839   8.696  68.583  1.00  0.00    -0.044 C  
HETATM   29  C   UNL     1      -6.323   9.003  67.209  1.00  0.00    -0.060 C  
ENDBRANCH  22  27
ENDBRANCH   9  11
TORSDOF 2
ENDMDL
MODEL      165
REMARK 921   NORMALIZED FREE ENERGY PREDICTED BY IDOCK:   22.45 KCAL/MOL
REMARK 922        TOTAL FREE ENERGY PREDICTED BY IDOCK:   24.34 KCAL/MOL
REMARK 923 INTER-LIGAND FREE ENERGY PREDICTED BY IDOCK:   24.67 KCAL/MOL
REMARK 924 INTRA-LIGAND FREE ENERGY PREDICTED BY IDOCK:   -0.32 KCAL/MOL
REMARK 927      BINDING AFFINITY PREDICTED BY RF-SCORE:    0.00 PKD
ROOT
HETATM    1  N   UNL     1      -5.130  14.988  70.684  1.00  0.00    -0.120 NA 
HETATM    2  C   UNL     1      -5.442  15.829  71.853  1.00  0.00     0.415 C  
HETATM    3  H1  UNL     1      -5.187  15.526  69.819  1.00  0.00     0.000 HD 
HETATM    4  H2  UNL     1      -5.721  14.158  70.650  1.00  0.00     0.000 HD 
HETATM    5  C   UNL     1      -5.355  15.019  73.156  1.00  0.00     0.205 C  
HETATM    6  C   UNL     1      -6.491  14.018  73.410  1.00  0.00     1.610 C  
HETATM    7  C   UNL     1      -7.833  14.686  73.740  1.00  0.00     7.687 C  
HETATM    8  C   UNL     1      -8.688  15.145  72.542  1.00  0.00     7.963 C  
HETATM    9  N   UNL     1      -7.870  15.535  71.378  1.00  0.00     3.405 NA 
HETATM   10  C   UNL     1      -6.815  16.525  71.715  1.00  0.00     5.054 C  
ENDROOT
BRANCH   9  11
HETATM   11  C   UNL     1      -8.375  15.388  70.066  1.00  0.00     0.369 A  
HETATM   12  C   UNL     1      -9.004  16.452  69.382  1.00  0.00    -0.014 A  
HETATM   13  C   UNL     1      -9.536  16.331  68.111  1.00  0.00    -0.215 A  
HETATM   14  F   UNL     1      -9.166  17.668  69.918  1.00  0.00     0.521 F  
HETATM   15  C   UNL     1      -9.518  15.104  67.463  1.00  0.00    -0.206 A  
HETATM   16  C   UNL     1     -10.205  15.048  66.155  1.00  0.00    -0.297 C  
HETATM   17  C   UNL     1     -10.325  13.752  65.485  1.00  0.00    -0.333 C  
HETATM   18  O   UNL     1     -10.707  16.047  65.646  1.00  0.00    -0.349 OA 
HETATM   19  C   UNL     1     -11.075  13.558  64.231  1.00  0.00    -0.351 C  
HETATM   20  C   UNL     1      -9.707  12.720  66.079  1.00  0.00    -0.224 C  
HETATM   21  O   UNL     1     -11.642  14.675  63.727  1.00  0.00     0.058 OA 
HETATM   22  N   UNL     1      -8.939  12.754  67.238  1.00  0.00    -0.191 NA 
HETATM   23  O   UNL     1     -11.187  12.466  63.677  1.00  0.00    -0.407 OA 
HETATM   24  C   UNL     1      -8.878  13.974  68.016  1.00  0.00    -0.181 A  
HETATM   25 CL   UNL     1      -7.034  13.031  69.837  1.00  0.00     0.349 Cl 
HETATM   26  C   UNL     1      -8.240  14.173  69.290  1.00  0.00     0.267 A  
BRANCH  22  27
HETATM   27  C   UNL     1      -8.378  11.458  67.693  1.00  0.00    -0.129 C  
HETATM   28  C   UNL     1      -6.993  11.039  67.243  1.00  0.00    -0.096 C  
HETATM   29  C   UNL     1      -8.173  10.244  66.805  1.00  0.00    -0.124 C  
ENDBRANCH  22  27
ENDBRANCH   9  11
TORSDOF 2
ENDMDL
MODEL      166
REMARK 921   NORMALIZED FREE ENERGY PREDICTED BY IDOCK:   25.04 KCAL/MOL
REMARK 922        TOTAL FREE ENERGY PREDICTED BY IDOCK:   27.23 KCAL/MOL
REMARK 923 INTER-LIGAND FREE ENERGY PREDICTED BY IDOCK:   26.91 KCAL/MOL
REMARK 924 INTRA-LIGAND FREE ENERGY PREDICTED BY IDOCK:    0.33 KCAL/MOL
REMARK 927      BINDING AFFINITY PREDICTED BY RF-SCORE:    0.00 PKD
ROOT
HETATM    1  N   UNL     1      -8.726   8.060  64.292  1.00  0.00    -0.351 NA 
HETATM    2  C   UNL     1     -10.145   7.871  63.943  1.00  0.00     6.337 C  
HETATM    3  H1  UNL     1      -8.453   7.449  65.062  1.00  0.00     0.000 HD 
HETATM    4  H2  UNL     1      -8.515   9.037  64.494  1.00  0.00     0.000 HD 
HETATM    5  C   UNL     1     -10.557   8.791  62.783  1.00  0.00     7.109 C  
HETATM    6  C   UNL     1     -10.703  10.282  63.117  1.00  0.00     1.502 C  
HETATM    7  C   UNL     1     -11.923  10.596  63.995  1.00  0.00     2.783 C  
HETATM    8  C   UNL     1     -11.745  10.412  65.515  1.00  0.00     2.605 C  
HETATM    9  N   UNL     1     -10.777   9.349  65.848  1.00  0.00     0.503 NA 
HETATM   10  C   UNL     1     -11.072   8.062  65.166  1.00  0.00     7.959 C  
ENDROOT
BRANCH   9  11
HETATM   11  C   UNL     1     -10.022   9.415  67.041  1.00  0.00    -0.221 A  
HETATM   12  C   UNL     1      -9.642  10.647  67.618  1.00  0.00    -0.161 A  
HETATM   13  C   UNL     1      -8.877  10.745  68.767  1.00  0.00    -0.163 A  
HETATM   14  F   UNL     1      -9.965  11.832  67.085  1.00  0.00    -0.200 F  
HETATM   15  C   UNL     1      -8.395   9.599  69.382  1.00  0.00    -0.145 A  
HETATM   16  C   UNL     1      -7.500   9.808  70.540  1.00  0.00    -0.101 C  
HETATM   17  C   UNL     1      -6.864   8.640  71.151  1.00  0.00    -0.071 C  
HETATM   18  O   UNL     1      -7.249  10.932  70.967  1.00  0.00     0.909 OA 
HETATM   19  C   UNL     1      -5.876   8.736  72.240  1.00  0.00    -0.071 C  
HETATM   20  C   UNL     1      -7.227   7.445  70.659  1.00  0.00    -0.068 C  
HETATM   21  O   UNL     1      -5.603   9.991  72.653  1.00  0.00    -0.307 OA 
HETATM   22  N   UNL     1      -8.165   7.196  69.663  1.00  0.00    -0.129 NA 
HETATM   23  O   UNL     1      -5.332   7.754  72.742  1.00  0.00    -0.036 OA 
HETATM   24  C   UNL     1      -8.742   8.306  68.934  1.00  0.00    -0.137 A  
HETATM   25 CL   UNL     1     -10.500   6.770  67.466  1.00  0.00    -0.262 Cl 
HETATM   26  C   UNL     1      -9.630   8.249  67.804  1.00  0.00    -0.148 A  
BRANCH  22  27
HETATM   27  C   UNL     1      -8.369   5.773  69.294  1.00  0.00    -0.108 C  
HETATM   28  C   UNL     1      -8.061   4.684  70.301  1.00  0.00    -0.067 C  
HETATM   29  C   UNL     1      -7.252   4.772  69.055  1.00  0.00    -0.053 C  
ENDBRANCH  22  27
ENDBRANCH   9  11
TORSDOF 2
ENDMDL
MODEL      167
REMARK 921   NORMALIZED FREE ENERGY PREDICTED BY IDOCK:   32.97 KCAL/MOL
REMARK 922        TOTAL FREE ENERGY PREDICTED BY IDOCK:   36.09 KCAL/MOL
REMARK 923 INTER-LIGAND FREE ENERGY PREDICTED BY IDOCK:   35.01 KCAL/MOL
REMARK 924 INTRA-LIGAND FREE ENERGY PREDICTED BY IDOCK:    1.09 KCAL/MOL
REMARK 927      BINDING AFFINITY PREDICTED BY RF-SCORE:    0.00 PKD
ROOT
HETATM    1  N   UNL     1      -7.209  12.764  64.411  1.00  0.00     7.627 NA 
HETATM    2  C   UNL     1      -7.403  11.337  64.721  1.00  0.00     1.130 C  
HETATM    3  H1  UNL     1      -6.375  13.130  64.871  1.00  0.00     0.000 HD 
HETATM    4  H2  UNL     1      -8.037  13.314  64.642  1.00  0.00     0.000 HD 
HETATM    5  C   UNL     1      -8.660  10.786  64.029  1.00  0.00    -0.028 C  
HETATM    6  C   UNL     1     -10.008  11.229  64.615  1.00  0.00    -0.331 C  
HETATM    7  C   UNL     1     -10.311  10.611  65.987  1.00  0.00    -0.290 C  
HETATM    8  C   UNL     1      -9.699  11.317  67.213  1.00  0.00    -0.174 C  
HETATM    9  N   UNL     1      -8.417  11.979  66.904  1.00  0.00    -0.178 NA 
HETATM   10  C   UNL     1      -7.441  11.075  66.244  1.00  0.00    -0.105 C  
ENDROOT
BRANCH   9  11
HETATM   11  C   UNL     1      -8.015  13.131  67.620  1.00  0.00    -0.174 A  
HETATM   12  C   UNL     1      -7.687  14.340  66.967  1.00  0.00     0.138 A  
HETATM   13  C   UNL     1      -7.261  15.473  67.636  1.00  0.00    -0.203 A  
HETATM   14  F   UNL     1      -7.733  14.486  65.637  1.00  0.00     2.319 F  
HETATM   15  C   UNL     1      -7.083  15.444  69.011  1.00  0.00    -0.144 A  
HETATM   16  C   UNL     1      -6.522  16.668  69.622  1.00  0.00    -0.195 C  
HETATM   17  C   UNL     1      -6.198  16.651  71.049  1.00  0.00     1.323 C  
HETATM   18  O   UNL     1      -6.288  17.673  68.955  1.00  0.00    -0.202 OA 
HETATM   19  C   UNL     1      -5.542  17.775  71.742  1.00  0.00     0.699 C  
HETATM   20  C   UNL     1      -6.529  15.536  71.717  1.00  0.00     1.906 C  
HETATM   21  O   UNL     1      -5.269  18.843  70.963  1.00  0.00    -0.248 OA 
HETATM   22  N   UNL     1      -7.178  14.415  71.211  1.00  0.00     1.492 NA 
HETATM   23  O   UNL     1      -5.256  17.753  72.937  1.00  0.00     1.265 OA 
HETATM   24  C   UNL     1      -7.420  14.314  69.787  1.00  0.00     0.256 A  
HETATM   25 CL   UNL     1      -8.852  11.961  69.930  1.00  0.00     2.054 Cl 
HETATM   26  C   UNL     1      -7.965  13.196  69.065  1.00  0.00     0.281 A  
BRANCH  22  27
HETATM   27  C   UNL     1      -7.413  13.304  72.167  1.00  0.00     8.612 C  
HETATM   28  C   UNL     1      -6.722  13.315  73.516  1.00  0.00     3.906 C  
HETATM   29  C   UNL     1      -6.387  12.247  72.534  1.00  0.00     4.271 C  
ENDBRANCH  22  27
ENDBRANCH   9  11
TORSDOF 2
ENDMDL
MODEL      168
REMARK 921   NORMALIZED FREE ENERGY PREDICTED BY IDOCK:   37.40 KCAL/MOL
REMARK 922        TOTAL FREE ENERGY PREDICTED BY IDOCK:   41.04 KCAL/MOL
REMARK 923 INTER-LIGAND FREE ENERGY PREDICTED BY IDOCK:   41.51 KCAL/MOL
REMARK 924 INTRA-LIGAND FREE ENERGY PREDICTED BY IDOCK:   -0.48 KCAL/MOL
REMARK 927      BINDING AFFINITY PREDICTED BY RF-SCORE:    0.00 PKD
ROOT
HETATM    1  N   UNL     1     -11.650  17.740  65.008  1.00  0.00     0.722 NA 
HETATM    2  C   UNL     1     -10.499  17.490  64.125  1.00  0.00     4.809 C  
HETATM    3  H1  UNL     1     -11.596  18.668  65.429  1.00  0.00     0.000 HD 
HETATM    4  H2  UNL     1     -11.746  17.011  65.717  1.00  0.00     0.000 HD 
HETATM    5  C   UNL     1     -10.580  16.092  63.491  1.00  0.00     4.802 C  
HETATM    6  C   UNL     1     -10.289  14.906  64.422  1.00  0.00     0.528 C  
HETATM    7  C   UNL     1      -8.813  14.798  64.830  1.00  0.00     3.481 C  
HETATM    8  C   UNL     1      -8.360  15.668  66.019  1.00  0.00     0.394 C  
HETATM    9  N   UNL     1      -9.124  16.925  66.125  1.00  0.00    -0.443 NA 
HETATM   10  C   UNL     1      -9.152  17.696  64.856  1.00  0.00     3.822 C  
ENDROOT
BRANCH   9  11
HETATM   11  C   UNL     1      -9.328  17.536  67.384  1.00  0.00    -0.249 A  
HETATM   12  C   UNL     1      -8.493  18.573  67.857  1.00  0.00    -0.275 A  
HETATM   13  C   UNL     1      -8.648  19.169  69.096  1.00  0.00    -0.134 A  
HETATM   14  F   UNL     1      -7.458  19.051  67.156  1.00  0.00    -0.222 F  
HETATM   15  C   UNL     1      -9.627  18.716  69.968  1.00  0.00     1.145 A  
HETATM   16  C   UNL     1      -9.645  19.341  71.308  1.00  0.00     3.302 C  
HETATM   17  C   UNL     1     -10.575  18.818  72.310  1.00  0.00     3.599 C  
HETATM   18  O   UNL     1      -8.876  20.252  71.606  1.00  0.00     1.457 OA 
HETATM   19  C   UNL     1     -10.610  19.292  73.705  1.00  0.00     3.667 C  
HETATM   20  C   UNL     1     -11.415  17.859  71.892  1.00  0.00     3.125 C  
HETATM   21  O   UNL     1      -9.723  20.266  73.998  1.00  0.00     4.706 OA 
HETATM   22  N   UNL     1     -11.523  17.337  70.608  1.00  0.00     1.252 NA 
HETATM   23  O   UNL     1     -11.381  18.841  74.549  1.00  0.00     1.762 OA 
HETATM   24  C   UNL     1     -10.557  17.720  69.600  1.00  0.00     0.562 A  
HETATM   25 CL   UNL     1     -11.775  16.356  67.536  1.00  0.00     0.369 Cl 
HETATM   26  C   UNL     1     -10.431  17.206  68.262  1.00  0.00    -0.373 A  
BRANCH  22  27
HETATM   27  C   UNL     1     -12.531  16.264  70.417  1.00  0.00     0.653 C  
HETATM   28  C   UNL     1     -13.041  15.491  71.616  1.00  0.00    -0.561 C  
HETATM   29  C   UNL     1     -12.254  14.779  70.572  1.00  0.00    -0.385 C  
ENDBRANCH  22  27
ENDBRANCH   9  11
TORSDOF 2
ENDMDL
MODEL      169
REMARK 921   NORMALIZED FREE ENERGY PREDICTED BY IDOCK:   38.37 KCAL/MOL
REMARK 922        TOTAL FREE ENERGY PREDICTED BY IDOCK:   42.12 KCAL/MOL
REMARK 923 INTER-LIGAND FREE ENERGY PREDICTED BY IDOCK:   38.26 KCAL/MOL
REMARK 924 INTRA-LIGAND FREE ENERGY PREDICTED BY IDOCK:    3.87 KCAL/MOL
REMARK 927      BINDING AFFINITY PREDICTED BY RF-SCORE:    0.00 PKD
ROOT
HETATM    1  N   UNL     1     -11.907  19.512  68.167  1.00  0.00     1.441 NA 
HETATM    2  C   UNL     1     -11.335  20.809  67.767  1.00  0.00     2.549 C  
HETATM    3  H1  UNL     1     -11.457  19.156  69.011  1.00  0.00     0.000 HD 
HETATM    4  H2  UNL     1     -11.867  18.833  67.406  1.00  0.00     0.000 HD 
HETATM    5  C   UNL     1     -12.013  21.345  66.496  1.00  0.00     8.428 C  
HETATM    6  C   UNL     1     -11.653  20.634  65.183  1.00  0.00     2.173 C  
HETATM    7  C   UNL     1     -10.217  20.909  64.713  1.00  0.00     2.085 C  
HETATM    8  C   UNL     1      -9.109  20.036  65.333  1.00  0.00     0.686 C  
HETATM    9  N   UNL     1      -9.427  19.607  66.708  1.00  0.00    -0.344 NA 
HETATM   10  C   UNL     1      -9.800  20.737  67.596  1.00  0.00    -0.213 C  
ENDROOT
BRANCH   9  11
HETATM   11  C   UNL     1      -8.924  18.385  67.212  1.00  0.00    -0.263 A  
HETATM   12  C   UNL     1      -8.168  17.501  66.411  1.00  0.00    -0.270 A  
HETATM   13  C   UNL     1      -7.690  16.284  66.865  1.00  0.00    -0.278 A  
HETATM   14  F   UNL     1      -7.871  17.750  65.130  1.00  0.00     0.426 F  
HETATM   15  C   UNL     1      -7.993  15.852  68.148  1.00  0.00    -0.137 A  
HETATM   16  C   UNL     1      -7.529  14.495  68.506  1.00  0.00    -0.123 C  
HETATM   17  C   UNL     1      -7.926  13.939  69.800  1.00  0.00     0.935 C  
HETATM   18  O   UNL     1      -6.860  13.816  67.730  1.00  0.00    -0.144 OA 
HETATM   19  C   UNL     1      -7.610  12.562  70.219  1.00  0.00     2.811 C  
HETATM   20  C   UNL     1      -8.613  14.760  70.610  1.00  0.00     2.041 C  
HETATM   21  O   UNL     1      -6.907  11.841  69.321  1.00  0.00    -0.108 OA 
HETATM   22  N   UNL     1      -8.954  16.087  70.369  1.00  0.00     1.264 NA 
HETATM   23  O   UNL     1      -7.958  12.093  71.301  1.00  0.00     7.184 OA 
HETATM   24  C   UNL     1      -8.699  16.662  69.064  1.00  0.00    -0.193 A  
HETATM   25 CL   UNL     1      -9.512  19.209  69.737  1.00  0.00     0.301 Cl 
HETATM   26  C   UNL     1      -9.081  17.964  68.587  1.00  0.00    -0.257 A  
BRANCH  22  27
HETATM   27  C   UNL     1      -9.735  16.768  71.431  1.00  0.00     5.179 C  
HETATM   28  C   UNL     1     -11.246  16.653  71.443  1.00  0.00     0.262 C  
HETATM   29  C   UNL     1     -10.619  17.983  71.211  1.00  0.00     2.820 C  
ENDBRANCH  22  27
ENDBRANCH   9  11
TORSDOF 2
ENDMDL
MODEL      170
REMARK 921   NORMALIZED FREE ENERGY PREDICTED BY IDOCK:   45.10 KCAL/MOL
REMARK 922        TOTAL FREE ENERGY PREDICTED BY IDOCK:   49.63 KCAL/MOL
REMARK 923 INTER-LIGAND FREE ENERGY PREDICTED BY IDOCK:   45.81 KCAL/MOL
REMARK 924 INTRA-LIGAND FREE ENERGY PREDICTED BY IDOCK:    3.82 KCAL/MOL
REMARK 927      BINDING AFFINITY PREDICTED BY RF-SCORE:    0.00 PKD
ROOT
HETATM    1  N   UNL     1      -7.451  11.651  67.285  1.00  0.00    -0.135 NA 
HETATM    2  C   UNL     1      -7.461  12.041  65.864  1.00  0.00     1.188 C  
HETATM    3  H1  UNL     1      -8.400  11.541  67.643  1.00  0.00     0.000 HD 
HETATM    4  H2  UNL     1      -6.910  12.306  67.850  1.00  0.00     0.000 HD 
HETATM    5  C   UNL     1      -6.032  12.206  65.325  1.00  0.00     3.892 C  
HETATM    6  C   UNL     1      -5.268  13.453  65.796  1.00  0.00     6.387 C  
HETATM    7  C   UNL     1      -5.804  14.761  65.197  1.00  0.00    14.662 C  
HETATM    8  C   UNL     1      -7.014  15.399  65.907  1.00  0.00     4.408 C  
HETATM    9  N   UNL     1      -7.891  14.399  66.545  1.00  0.00     0.596 NA 
HETATM   10  C   UNL     1      -8.304  13.314  65.619  1.00  0.00     2.299 C  
ENDROOT
BRANCH   9  11
HETATM   11  C   UNL     1      -8.638  14.733  67.698  1.00  0.00    -0.174 A  
HETATM   12  C   UNL     1      -8.250  14.312  68.989  1.00  0.00     0.020 A  
HETATM   13  C   UNL     1      -8.976  14.596  70.132  1.00  0.00     1.016 A  
HETATM   14  F   UNL     1      -7.157  13.574  69.217  1.00  0.00    -0.110 F  
HETATM   15  C   UNL     1     -10.179  15.280  70.040  1.00  0.00    -0.216 A  
HETATM   16  C   UNL     1     -10.935  15.442  71.300  1.00  0.00    -0.184 C  
HETATM   17  C   UNL     1     -12.267  16.047  71.243  1.00  0.00    -0.399 C  
HETATM   18  O   UNL     1     -10.490  15.047  72.375  1.00  0.00     1.023 OA 
HETATM   19  C   UNL     1     -13.151  16.165  72.416  1.00  0.00    -0.157 C  
HETATM   20  C   UNL     1     -12.660  16.498  70.042  1.00  0.00     1.923 C  
HETATM   21  O   UNL     1     -12.637  15.684  73.568  1.00  0.00    -0.437 OA 
HETATM   22  N   UNL     1     -11.928  16.487  68.859  1.00  0.00     0.167 NA 
HETATM   23  O   UNL     1     -14.276  16.659  72.363  1.00  0.00     1.038 OA 
HETATM   24  C   UNL     1     -10.655  15.798  68.816  1.00  0.00    -0.239 A  
HETATM   25 CL   UNL     1     -10.035  16.555  66.238  1.00  0.00    -0.324 Cl 
HETATM   26  C   UNL     1      -9.814  15.577  67.670  1.00  0.00    -0.213 A  
BRANCH  22  27
HETATM   27  C   UNL     1     -12.609  17.037  67.660  1.00  0.00     3.676 C  
HETATM   28  C   UNL     1     -12.198  16.564  66.281  1.00  0.00     2.768 C  
HETATM   29  C   UNL     1     -11.970  17.984  66.661  1.00  0.00     3.337 C  
ENDBRANCH  22  27
ENDBRANCH   9  11
TORSDOF 2
ENDMDL
MODEL      171
REMARK 921   NORMALIZED FREE ENERGY PREDICTED BY IDOCK:   49.48 KCAL/MOL
REMARK 922        TOTAL FREE ENERGY PREDICTED BY IDOCK:   54.53 KCAL/MOL
REMARK 923 INTER-LIGAND FREE ENERGY PREDICTED BY IDOCK:   51.91 KCAL/MOL
REMARK 924 INTRA-LIGAND FREE ENERGY PREDICTED BY IDOCK:    2.63 KCAL/MOL
REMARK 927      BINDING AFFINITY PREDICTED BY RF-SCORE:    0.00 PKD
ROOT
HETATM    1  N   UNL     1      -9.316  16.974  66.292  1.00  0.00    -0.357 NA 
HETATM    2  C   UNL     1      -9.035  17.204  67.720  1.00  0.00    -0.226 C  
HETATM    3  H1  UNL     1     -10.224  16.528  66.164  1.00  0.00     0.000 HD 
HETATM    4  H2  UNL     1      -8.570  16.442  65.843  1.00  0.00     0.000 HD 
HETATM    5  C   UNL     1      -7.666  17.876  67.914  1.00  0.00    -0.224 C  
HETATM    6  C   UNL     1      -6.435  16.988  67.680  1.00  0.00    -0.164 C  
HETATM    7  C   UNL     1      -6.233  15.924  68.769  1.00  0.00    -0.109 C  
HETATM    8  C   UNL     1      -7.036  14.618  68.614  1.00  0.00    -0.111 C  
HETATM    9  N   UNL     1      -8.328  14.824  67.933  1.00  0.00    -0.141 NA 
HETATM   10  C   UNL     1      -9.143  15.903  68.548  1.00  0.00    -0.200 C  
ENDROOT
BRANCH   9  11
HETATM   11  C   UNL     1      -8.905  13.788  67.162  1.00  0.00    -0.231 A  
HETATM   12  C   UNL     1      -9.187  13.946  65.788  1.00  0.00     0.300 A  
HETATM   13  C   UNL     1      -9.779  12.964  65.015  1.00  0.00     0.049 A  
HETATM   14  F   UNL     1      -8.932  15.076  65.117  1.00  0.00     0.306 F  
HETATM   15  C   UNL     1     -10.179  11.769  65.594  1.00  0.00    -0.284 A  
HETATM   16  C   UNL     1     -10.899  10.825  64.713  1.00  0.00     0.025 C  
HETATM   17  C   UNL     1     -11.452   9.604  65.300  1.00  0.00     4.574 C  
HETATM   18  O   UNL     1     -11.075  11.062  63.520  1.00  0.00    -0.193 OA 
HETATM   19  C   UNL     1     -12.274   8.644  64.542  1.00  0.00    18.329 C  
HETATM   20  C   UNL     1     -11.174   9.393  66.596  1.00  0.00     0.977 C  
HETATM   21  O   UNL     1     -12.474   8.963  63.246  1.00  0.00    15.659 OA 
HETATM   22  N   UNL     1     -10.390  10.186  67.427  1.00  0.00    -0.222 NA 
HETATM   23  O   UNL     1     -12.750   7.626  65.041  1.00  0.00    14.814 OA 
HETATM   24  C   UNL     1      -9.913  11.466  66.947  1.00  0.00    -0.206 A  
HETATM   25 CL   UNL     1      -8.396  12.034  69.180  1.00  0.00     0.300 Cl 
HETATM   26  C   UNL     1      -9.195  12.470  67.686  1.00  0.00    -0.190 A  
BRANCH  22  27
HETATM   27  C   UNL     1     -10.255   9.731  68.833  1.00  0.00    -0.200 C  
HETATM   28  C   UNL     1      -8.901   9.778  69.512  1.00  0.00    -0.202 C  
HETATM   29  C   UNL     1      -9.547   8.460  69.268  1.00  0.00    -0.164 C  
ENDBRANCH  22  27
ENDBRANCH   9  11
TORSDOF 2
ENDMDL
MODEL      172
REMARK 921   NORMALIZED FREE ENERGY PREDICTED BY IDOCK:   52.20 KCAL/MOL
REMARK 922        TOTAL FREE ENERGY PREDICTED BY IDOCK:   57.57 KCAL/MOL
REMARK 923 INTER-LIGAND FREE ENERGY PREDICTED BY IDOCK:   57.90 KCAL/MOL
REMARK 924 INTRA-LIGAND FREE ENERGY PREDICTED BY IDOCK:   -0.33 KCAL/MOL
REMARK 927      BINDING AFFINITY PREDICTED BY RF-SCORE:    0.00 PKD
ROOT
HETATM    1  N   UNL     1      -6.448  14.164  71.798  1.00  0.00    -0.139 NA 
HETATM    2  C   UNL     1      -5.813  15.408  72.264  1.00  0.00     0.953 C  
HETATM    3  H1  UNL     1      -6.274  14.012  70.804  1.00  0.00     0.000 HD 
HETATM    4  H2  UNL     1      -7.446  14.148  72.011  1.00  0.00     0.000 HD 
HETATM    5  C   UNL     1      -6.075  15.637  73.761  1.00  0.00     2.882 C  
HETATM    6  C   UNL     1      -7.499  16.067  74.144  1.00  0.00    11.819 C  
HETATM    7  C   UNL     1      -7.841  17.500  73.713  1.00  0.00    14.324 C  
HETATM    8  C   UNL     1      -8.319  17.689  72.260  1.00  0.00    15.350 C  
HETATM    9  N   UNL     1      -7.732  16.700  71.337  1.00  0.00     6.229 NA 
HETATM   10  C   UNL     1      -6.251  16.631  71.425  1.00  0.00     1.996 C  
ENDROOT
BRANCH   9  11
HETATM   11  C   UNL     1      -8.439  16.287  70.184  1.00  0.00     1.471 A  
HETATM   12  C   UNL     1      -8.165  16.824  68.907  1.00  0.00    -0.224 A  
HETATM   13  C   UNL     1      -8.860  16.465  67.766  1.00  0.00    -0.189 A  
HETATM   14  F   UNL     1      -7.226  17.754  68.693  1.00  0.00    -0.219 F  
HETATM   15  C   UNL     1      -9.921  15.574  67.848  1.00  0.00    -0.218 A  
HETATM   16  C   UNL     1     -10.670  15.334  66.596  1.00  0.00    -0.309 C  
HETATM   17  C   UNL     1     -11.872  14.501  66.650  1.00  0.00    -0.383 C  
HETATM   18  O   UNL     1     -10.330  15.847  65.533  1.00  0.00    -0.360 OA 
HETATM   19  C   UNL     1     -12.752  14.278  65.489  1.00  0.00    -0.380 C  
HETATM   20  C   UNL     1     -12.147  13.937  67.836  1.00  0.00    -0.283 C  
HETATM   21  O   UNL     1     -12.362  14.890  64.352  1.00  0.00    -0.490 OA 
HETATM   22  N   UNL     1     -11.397  14.028  69.004  1.00  0.00    -0.265 NA 
HETATM   23  O   UNL     1     -13.770  13.590  65.541  1.00  0.00    -0.203 OA 
HETATM   24  C   UNL     1     -10.265  14.930  69.056  1.00  0.00    -0.243 A  
HETATM   25 CL   UNL     1      -9.453  14.186  71.584  1.00  0.00     5.932 Cl 
HETATM   26  C   UNL     1      -9.446  15.248  70.195  1.00  0.00     0.292 A  
BRANCH  22  27
HETATM   27  C   UNL     1     -11.938  13.316  70.189  1.00  0.00    -0.318 C  
HETATM   28  C   UNL     1     -11.370  11.966  70.578  1.00  0.00     0.564 C  
HETATM   29  C   UNL     1     -12.787  12.059  70.130  1.00  0.00     0.315 C  
ENDBRANCH  22  27
ENDBRANCH   9  11
TORSDOF 2
ENDMDL
MODEL      173
REMARK 921   NORMALIZED FREE ENERGY PREDICTED BY IDOCK:   57.73 KCAL/MOL
REMARK 922        TOTAL FREE ENERGY PREDICTED BY IDOCK:   63.75 KCAL/MOL
REMARK 923 INTER-LIGAND FREE ENERGY PREDICTED BY IDOCK:   60.63 KCAL/MOL
REMARK 924 INTRA-LIGAND FREE ENERGY PREDICTED BY IDOCK:    3.11 KCAL/MOL
REMARK 927      BINDING AFFINITY PREDICTED BY RF-SCORE:    0.00 PKD
ROOT
HETATM    1  N   UNL     1      -9.996  10.976  72.481  1.00  0.00    10.515 NA 
HETATM    2  C   UNL     1     -10.368  12.281  73.054  1.00  0.00    19.617 C  
HETATM    3  H1  UNL     1      -9.011  10.958  72.216  1.00  0.00     0.000 HD 
HETATM    4  H2  UNL     1     -10.600  10.724  71.698  1.00  0.00     0.000 HD 
HETATM    5  C   UNL     1     -11.852  12.308  73.453  1.00  0.00     9.291 C  
HETATM    6  C   UNL     1     -12.864  12.380  72.300  1.00  0.00    -0.021 C  
HETATM    7  C   UNL     1     -12.878  13.738  71.583  1.00  0.00    -0.438 C  
HETATM    8  C   UNL     1     -11.817  13.950  70.486  1.00  0.00    -0.247 C  
HETATM    9  N   UNL     1     -10.572  13.203  70.749  1.00  0.00     3.073 NA 
HETATM   10  C   UNL     1     -10.021  13.451  72.105  1.00  0.00    11.951 C  
ENDROOT
BRANCH   9  11
HETATM   11  C   UNL     1      -9.767  12.754  69.676  1.00  0.00     1.675 A  
HETATM   12  C   UNL     1      -8.684  13.515  69.185  1.00  0.00     0.544 A  
HETATM   13  C   UNL     1      -7.897  13.119  68.119  1.00  0.00    -0.145 A  
HETATM   14  F   UNL     1      -8.340  14.706  69.692  1.00  0.00    -0.066 F  
HETATM   15  C   UNL     1      -8.188  11.946  67.438  1.00  0.00    -0.164 A  
HETATM   16  C   UNL     1      -7.359  11.660  66.247  1.00  0.00     0.219 C  
HETATM   17  C   UNL     1      -7.700  10.502  65.420  1.00  0.00    -0.106 C  
HETATM   18  O   UNL     1      -6.426  12.390  65.920  1.00  0.00     1.369 OA 
HETATM   19  C   UNL     1      -7.011  10.180  64.158  1.00  0.00    -0.098 C  
HETATM   20  C   UNL     1      -8.698   9.727  65.871  1.00  0.00    -0.139 C  
HETATM   21  O   UNL     1      -6.019  11.030  63.818  1.00  0.00     0.196 OA 
HETATM   22  N   UNL     1      -9.415   9.883  67.053  1.00  0.00    -0.156 NA 
HETATM   23  O   UNL     1      -7.309   9.215  63.456  1.00  0.00    -0.095 OA 
HETATM   24  C   UNL     1      -9.213  11.071  67.857  1.00  0.00    -0.155 A  
HETATM   25 CL   UNL     1     -10.865  10.276  69.917  1.00  0.00    -0.325 Cl 
HETATM   26  C   UNL     1      -9.934  11.467  69.037  1.00  0.00    -0.067 A  
BRANCH  22  27
HETATM   27  C   UNL     1     -10.486   8.888  67.308  1.00  0.00    -0.277 C  
HETATM   28  C   UNL     1     -11.933   9.336  67.350  1.00  0.00     4.071 C  
HETATM   29  C   UNL     1     -11.301   8.802  68.586  1.00  0.00     0.610 C  
ENDBRANCH  22  27
ENDBRANCH   9  11
TORSDOF 2
ENDMDL
