MODEL        1
REMARK 921   NORMALIZED FREE ENERGY PREDICTED BY IDOCK:   -3.95 KCAL/MOL
REMARK 922        TOTAL FREE ENERGY PREDICTED BY IDOCK:   -4.98 KCAL/MOL
REMARK 923 INTER-LIGAND FREE ENERGY PREDICTED BY IDOCK:   -4.64 KCAL/MOL
REMARK 924 INTRA-LIGAND FREE ENERGY PREDICTED BY IDOCK:   -0.34 KCAL/MOL
REMARK 927      BINDING AFFINITY PREDICTED BY RF-SCORE:    0.00 PKD
ROOT
HETATM    1  C   UNL     1     -12.514  16.191  73.814  1.00  0.00    -0.587 C  
HETATM    2  N   UNL     1     -13.641  15.300  73.574  1.00  0.00    -0.570 NA 
HETATM    3  H   UNL     1     -14.416  15.491  74.210  1.00  0.00     0.000 HD 
ENDROOT
BRANCH   2   4
HETATM    4  C   UNL     1     -14.063  15.362  72.167  1.00  0.00    -0.553 C  
BRANCH   4   5
HETATM    5  C   UNL     1     -12.889  15.046  71.233  1.00  0.00    -0.438 C  
BRANCH   5   6
HETATM    6  C   UNL     1     -12.692  13.558  71.077  1.00  0.00    -0.322 A  
HETATM    7  C   UNL     1     -11.967  13.045  70.005  1.00  0.00    -0.383 A  
HETATM    8  C   UNL     1     -11.824  11.664  69.889  1.00  0.00    -0.434 A  
HETATM    9  C   UNL     1     -12.409  10.836  70.838  1.00  0.00    -0.497 A  
HETATM   10  C   UNL     1     -13.117  11.425  71.869  1.00  0.00    -0.400 A  
HETATM   11  N   UNL     1     -13.270  12.760  72.007  1.00  0.00    -0.457 NA 
ENDBRANCH   5   6
ENDBRANCH   4   5
ENDBRANCH   2   4
TORSDOF 3
ENDMDL
MODEL        2
REMARK 921   NORMALIZED FREE ENERGY PREDICTED BY IDOCK:   -3.88 KCAL/MOL
REMARK 922        TOTAL FREE ENERGY PREDICTED BY IDOCK:   -4.91 KCAL/MOL
REMARK 923 INTER-LIGAND FREE ENERGY PREDICTED BY IDOCK:   -4.63 KCAL/MOL
REMARK 924 INTRA-LIGAND FREE ENERGY PREDICTED BY IDOCK:   -0.28 KCAL/MOL
REMARK 927      BINDING AFFINITY PREDICTED BY RF-SCORE:    0.00 PKD
ROOT
HETATM    1  C   UNL     1     -12.325  11.118  70.649  1.00  0.00    -0.388 C  
HETATM    2  N   UNL     1     -11.912  12.513  70.720  1.00  0.00    -0.462 NA 
HETATM    3  H   UNL     1     -11.052  12.626  71.258  1.00  0.00     0.000 HD 
ENDROOT
BRANCH   2   4
HETATM    4  C   UNL     1     -11.790  13.089  69.372  1.00  0.00    -0.322 C  
BRANCH   4   5
HETATM    5  C   UNL     1     -11.898  14.617  69.422  1.00  0.00    -0.368 C  
BRANCH   5   6
HETATM    6  C   UNL     1     -12.402  15.092  70.763  1.00  0.00    -0.360 A  
HETATM    7  C   UNL     1     -11.561  15.769  71.641  1.00  0.00    -0.537 A  
HETATM    8  C   UNL     1     -12.062  16.175  72.875  1.00  0.00    -0.643 A  
HETATM    9  C   UNL     1     -13.382  15.892  73.202  1.00  0.00    -0.681 A  
HETATM   10  C   UNL     1     -14.150  15.210  72.276  1.00  0.00    -0.534 A  
HETATM   11  N   UNL     1     -13.691  14.807  71.071  1.00  0.00    -0.331 NA 
ENDBRANCH   5   6
ENDBRANCH   4   5
ENDBRANCH   2   4
TORSDOF 3
ENDMDL
MODEL        3
REMARK 921   NORMALIZED FREE ENERGY PREDICTED BY IDOCK:   -3.87 KCAL/MOL
REMARK 922        TOTAL FREE ENERGY PREDICTED BY IDOCK:   -4.89 KCAL/MOL
REMARK 923 INTER-LIGAND FREE ENERGY PREDICTED BY IDOCK:   -4.55 KCAL/MOL
REMARK 924 INTRA-LIGAND FREE ENERGY PREDICTED BY IDOCK:   -0.34 KCAL/MOL
REMARK 927      BINDING AFFINITY PREDICTED BY RF-SCORE:    0.00 PKD
ROOT
HETATM    1  C   UNL     1     -11.873  11.701  69.772  1.00  0.00    -0.357 C  
HETATM    2  N   UNL     1     -12.252  10.903  68.614  1.00  0.00    -0.810 NA 
HETATM    3  H   UNL     1     -12.776  11.452  67.931  1.00  0.00     0.000 HD 
ENDROOT
BRANCH   2   4
HETATM    4  C   UNL     1     -11.071  10.268  68.010  1.00  0.00    -0.274 C  
BRANCH   4   5
HETATM    5  C   UNL     1     -10.248  11.291  67.220  1.00  0.00    -0.226 C  
BRANCH   5   6
HETATM    6  C   UNL     1     -10.908  11.637  65.908  1.00  0.00    -0.287 A  
HETATM    7  C   UNL     1     -10.338  11.247  64.699  1.00  0.00    -0.373 A  
HETATM    8  C   UNL     1     -10.971  11.603  63.510  1.00  0.00    -0.485 A  
HETATM    9  C   UNL     1     -12.148  12.338  63.558  1.00  0.00    -0.649 A  
HETATM   10  C   UNL     1     -12.646  12.690  64.799  1.00  0.00    -0.454 A  
HETATM   11  N   UNL     1     -12.054  12.358  65.967  1.00  0.00    -0.638 NA 
ENDBRANCH   5   6
ENDBRANCH   4   5
ENDBRANCH   2   4
TORSDOF 3
ENDMDL
MODEL        4
REMARK 921   NORMALIZED FREE ENERGY PREDICTED BY IDOCK:   -3.86 KCAL/MOL
REMARK 922        TOTAL FREE ENERGY PREDICTED BY IDOCK:   -4.88 KCAL/MOL
REMARK 923 INTER-LIGAND FREE ENERGY PREDICTED BY IDOCK:   -4.53 KCAL/MOL
REMARK 924 INTRA-LIGAND FREE ENERGY PREDICTED BY IDOCK:   -0.35 KCAL/MOL
REMARK 927      BINDING AFFINITY PREDICTED BY RF-SCORE:    0.00 PKD
ROOT
HETATM    1  C   UNL     1     -12.933  15.840  73.454  1.00  0.00    -0.583 C  
HETATM    2  N   UNL     1     -13.492  15.789  72.110  1.00  0.00    -0.443 NA 
HETATM    3  H   UNL     1     -12.764  15.811  71.396  1.00  0.00     0.000 HD 
ENDROOT
BRANCH   2   4
HETATM    4  C   UNL     1     -14.369  14.619  71.956  1.00  0.00    -0.558 C  
BRANCH   4   5
HETATM    5  C   UNL     1     -13.727  13.373  72.576  1.00  0.00    -0.636 C  
BRANCH   5   6
HETATM    6  C   UNL     1     -12.971  12.570  71.545  1.00  0.00    -0.280 A  
HETATM    7  C   UNL     1     -12.843  11.190  71.671  1.00  0.00    -0.524 A  
HETATM    8  C   UNL     1     -12.122  10.489  70.706  1.00  0.00    -0.470 A  
HETATM    9  C   UNL     1     -11.547  11.182  69.649  1.00  0.00    -0.398 A  
HETATM   10  C   UNL     1     -11.716  12.553  69.600  1.00  0.00    -0.302 A  
HETATM   11  N   UNL     1     -12.411  13.257  70.520  1.00  0.00    -0.339 NA 
ENDBRANCH   5   6
ENDBRANCH   4   5
ENDBRANCH   2   4
TORSDOF 3
ENDMDL
MODEL        5
REMARK 921   NORMALIZED FREE ENERGY PREDICTED BY IDOCK:   -3.84 KCAL/MOL
REMARK 922        TOTAL FREE ENERGY PREDICTED BY IDOCK:   -4.86 KCAL/MOL
REMARK 923 INTER-LIGAND FREE ENERGY PREDICTED BY IDOCK:   -4.55 KCAL/MOL
REMARK 924 INTRA-LIGAND FREE ENERGY PREDICTED BY IDOCK:   -0.31 KCAL/MOL
REMARK 927      BINDING AFFINITY PREDICTED BY RF-SCORE:    0.00 PKD
ROOT
HETATM    1  C   UNL     1     -11.709  12.385  63.943  1.00  0.00    -0.447 C  
HETATM    2  N   UNL     1     -12.899  12.579  64.760  1.00  0.00    -0.820 NA 
HETATM    3  H   UNL     1     -13.000  11.845  65.462  1.00  0.00     0.000 HD 
ENDROOT
BRANCH   2   4
HETATM    4  C   UNL     1     -12.900  13.918  65.367  1.00  0.00    -0.427 C  
BRANCH   4   5
HETATM    5  C   UNL     1     -11.677  14.105  66.273  1.00  0.00    -0.402 C  
BRANCH   5   6
HETATM    6  C   UNL     1     -11.813  13.317  67.553  1.00  0.00    -0.358 A  
HETATM    7  C   UNL     1     -11.928  13.965  68.779  1.00  0.00    -0.393 A  
HETATM    8  C   UNL     1     -12.033  13.200  69.939  1.00  0.00    -0.387 A  
HETATM    9  C   UNL     1     -12.015  11.815  69.845  1.00  0.00    -0.405 A  
HETATM   10  C   UNL     1     -11.892  11.248  68.590  1.00  0.00    -0.300 A  
HETATM   11  N   UNL     1     -11.790  11.966  67.450  1.00  0.00    -0.611 NA 
ENDBRANCH   5   6
ENDBRANCH   4   5
ENDBRANCH   2   4
TORSDOF 3
ENDMDL
MODEL        6
REMARK 921   NORMALIZED FREE ENERGY PREDICTED BY IDOCK:   -3.78 KCAL/MOL
REMARK 922        TOTAL FREE ENERGY PREDICTED BY IDOCK:   -4.78 KCAL/MOL
REMARK 923 INTER-LIGAND FREE ENERGY PREDICTED BY IDOCK:   -4.69 KCAL/MOL
REMARK 924 INTRA-LIGAND FREE ENERGY PREDICTED BY IDOCK:   -0.10 KCAL/MOL
REMARK 927      BINDING AFFINITY PREDICTED BY RF-SCORE:    0.00 PKD
ROOT
HETATM    1  C   UNL     1     -14.344   8.438  71.787  1.00  0.00    -0.472 C  
HETATM    2  N   UNL     1     -13.459   9.299  71.014  1.00  0.00    -0.572 NA 
HETATM    3  H   UNL     1     -13.886   9.588  70.134  1.00  0.00     0.000 HD 
ENDROOT
BRANCH   2   4
HETATM    4  C   UNL     1     -13.029  10.455  71.814  1.00  0.00    -0.475 C  
BRANCH   4   5
HETATM    5  C   UNL     1     -12.305  11.484  70.939  1.00  0.00    -0.460 C  
BRANCH   5   6
HETATM    6  C   UNL     1     -12.764  12.890  71.243  1.00  0.00    -0.278 A  
HETATM    7  C   UNL     1     -12.284  13.970  70.509  1.00  0.00    -0.435 A  
HETATM    8  C   UNL     1     -12.720  15.252  70.835  1.00  0.00    -0.496 A  
HETATM    9  C   UNL     1     -13.615  15.423  71.883  1.00  0.00    -0.590 A  
HETATM   10  C   UNL     1     -14.039  14.298  72.566  1.00  0.00    -0.339 A  
HETATM   11  N   UNL     1     -13.635  13.043  72.270  1.00  0.00    -0.573 NA 
ENDBRANCH   5   6
ENDBRANCH   4   5
ENDBRANCH   2   4
TORSDOF 3
ENDMDL
MODEL        7
REMARK 921   NORMALIZED FREE ENERGY PREDICTED BY IDOCK:   -3.78 KCAL/MOL
REMARK 922        TOTAL FREE ENERGY PREDICTED BY IDOCK:   -4.78 KCAL/MOL
REMARK 923 INTER-LIGAND FREE ENERGY PREDICTED BY IDOCK:   -4.71 KCAL/MOL
REMARK 924 INTRA-LIGAND FREE ENERGY PREDICTED BY IDOCK:   -0.08 KCAL/MOL
REMARK 927      BINDING AFFINITY PREDICTED BY RF-SCORE:    0.00 PKD
ROOT
HETATM    1  C   UNL     1     -11.436  12.687  63.443  1.00  0.00    -0.435 C  
HETATM    2  N   UNL     1     -12.307  13.851  63.516  1.00  0.00    -1.087 NA 
HETATM    3  H   UNL     1     -13.276  13.614  63.301  1.00  0.00     0.000 HD 
ENDROOT
BRANCH   2   4
HETATM    4  C   UNL     1     -12.187  14.509  64.826  1.00  0.00    -0.431 C  
BRANCH   4   5
HETATM    5  C   UNL     1     -10.724  14.856  65.128  1.00  0.00    -0.429 C  
BRANCH   5   6
HETATM    6  C   UNL     1     -10.614  16.112  65.957  1.00  0.00    -0.295 A  
HETATM    7  C   UNL     1     -10.446  16.042  67.337  1.00  0.00    -0.308 A  
HETATM    8  C   UNL     1     -10.367  17.225  68.067  1.00  0.00    -0.353 A  
HETATM    9  C   UNL     1     -10.461  18.442  67.405  1.00  0.00    -0.443 A  
HETATM   10  C   UNL     1     -10.633  18.426  66.033  1.00  0.00    -0.309 A  
HETATM   11  N   UNL     1     -10.711  17.293  65.300  1.00  0.00    -0.617 NA 
ENDBRANCH   5   6
ENDBRANCH   4   5
ENDBRANCH   2   4
TORSDOF 3
ENDMDL
MODEL        8
REMARK 921   NORMALIZED FREE ENERGY PREDICTED BY IDOCK:   -3.77 KCAL/MOL
REMARK 922        TOTAL FREE ENERGY PREDICTED BY IDOCK:   -4.77 KCAL/MOL
REMARK 923 INTER-LIGAND FREE ENERGY PREDICTED BY IDOCK:   -4.60 KCAL/MOL
REMARK 924 INTRA-LIGAND FREE ENERGY PREDICTED BY IDOCK:   -0.17 KCAL/MOL
REMARK 927      BINDING AFFINITY PREDICTED BY RF-SCORE:    0.00 PKD
ROOT
HETATM    1  C   UNL     1      -9.752  10.718  63.375  1.00  0.00    -0.351 C  
HETATM    2  N   UNL     1     -11.123  11.113  63.081  1.00  0.00    -0.809 NA 
HETATM    3  H   UNL     1     -11.799  10.499  63.534  1.00  0.00     0.000 HD 
ENDROOT
BRANCH   2   4
HETATM    4  C   UNL     1     -11.345  12.523  63.435  1.00  0.00    -0.422 C  
BRANCH   4   5
HETATM    5  C   UNL     1     -12.583  12.671  64.327  1.00  0.00    -0.453 C  
BRANCH   5   6
HETATM    6  C   UNL     1     -12.201  12.921  65.766  1.00  0.00    -0.439 A  
HETATM    7  C   UNL     1     -12.227  14.207  66.296  1.00  0.00    -0.474 A  
HETATM    8  C   UNL     1     -11.850  14.396  67.624  1.00  0.00    -0.412 A  
HETATM    9  C   UNL     1     -11.454  13.302  68.382  1.00  0.00    -0.349 A  
HETATM   10  C   UNL     1     -11.450  12.058  67.779  1.00  0.00    -0.325 A  
HETATM   11  N   UNL     1     -11.812  11.846  66.495  1.00  0.00    -0.570 NA 
ENDBRANCH   5   6
ENDBRANCH   4   5
ENDBRANCH   2   4
TORSDOF 3
ENDMDL
MODEL        9
REMARK 921   NORMALIZED FREE ENERGY PREDICTED BY IDOCK:   -3.76 KCAL/MOL
REMARK 922        TOTAL FREE ENERGY PREDICTED BY IDOCK:   -4.77 KCAL/MOL
REMARK 923 INTER-LIGAND FREE ENERGY PREDICTED BY IDOCK:   -4.67 KCAL/MOL
REMARK 924 INTRA-LIGAND FREE ENERGY PREDICTED BY IDOCK:   -0.10 KCAL/MOL
REMARK 927      BINDING AFFINITY PREDICTED BY RF-SCORE:    0.00 PKD
ROOT
HETATM    1  C   UNL     1     -11.288  11.264  67.693  1.00  0.00    -0.282 C  
HETATM    2  N   UNL     1     -12.175  10.790  68.747  1.00  0.00    -0.814 NA 
HETATM    3  H   UNL     1     -12.037   9.798  68.939  1.00  0.00     0.000 HD 
ENDROOT
BRANCH   2   4
HETATM    4  C   UNL     1     -12.022  11.606  69.961  1.00  0.00    -0.351 C  
BRANCH   4   5
HETATM    5  C   UNL     1     -11.904  13.092  69.605  1.00  0.00    -0.390 C  
BRANCH   5   6
HETATM    6  C   UNL     1     -12.292  13.971  70.769  1.00  0.00    -0.373 A  
HETATM    7  C   UNL     1     -11.650  15.187  70.988  1.00  0.00    -0.390 A  
HETATM    8  C   UNL     1     -12.027  15.960  72.084  1.00  0.00    -0.612 A  
HETATM    9  C   UNL     1     -13.026  15.499  72.932  1.00  0.00    -0.583 A  
HETATM   10  C   UNL     1     -13.609  14.277  72.648  1.00  0.00    -0.501 A  
HETATM   11  N   UNL     1     -13.264  13.509  71.592  1.00  0.00    -0.373 NA 
ENDBRANCH   5   6
ENDBRANCH   4   5
ENDBRANCH   2   4
TORSDOF 3
ENDMDL
MODEL       10
REMARK 921   NORMALIZED FREE ENERGY PREDICTED BY IDOCK:   -3.74 KCAL/MOL
REMARK 922        TOTAL FREE ENERGY PREDICTED BY IDOCK:   -4.74 KCAL/MOL
REMARK 923 INTER-LIGAND FREE ENERGY PREDICTED BY IDOCK:   -4.66 KCAL/MOL
REMARK 924 INTRA-LIGAND FREE ENERGY PREDICTED BY IDOCK:   -0.08 KCAL/MOL
REMARK 927      BINDING AFFINITY PREDICTED BY RF-SCORE:    0.00 PKD
ROOT
HETATM    1  C   UNL     1     -11.888   8.349  72.220  1.00  0.00    -0.389 C  
HETATM    2  N   UNL     1     -12.692   8.994  71.191  1.00  0.00    -0.482 NA 
HETATM    3  H   UNL     1     -13.526   8.450  70.966  1.00  0.00     0.000 HD 
ENDROOT
BRANCH   2   4
HETATM    4  C   UNL     1     -13.030  10.370  71.582  1.00  0.00    -0.475 C  
BRANCH   4   5
HETATM    5  C   UNL     1     -12.230  11.383  70.755  1.00  0.00    -0.475 C  
BRANCH   5   6
HETATM    6  C   UNL     1     -12.657  12.799  71.052  1.00  0.00    -0.271 A  
HETATM    7  C   UNL     1     -13.534  13.074  72.097  1.00  0.00    -0.638 A  
HETATM    8  C   UNL     1     -13.917  14.394  72.325  1.00  0.00    -0.610 A  
HETATM    9  C   UNL     1     -13.420  15.400  71.506  1.00  0.00    -0.601 A  
HETATM   10  C   UNL     1     -12.557  15.042  70.486  1.00  0.00    -0.369 A  
HETATM   11  N   UNL     1     -12.169  13.771  70.244  1.00  0.00    -0.347 NA 
ENDBRANCH   5   6
ENDBRANCH   4   5
ENDBRANCH   2   4
TORSDOF 3
ENDMDL
MODEL       11
REMARK 921   NORMALIZED FREE ENERGY PREDICTED BY IDOCK:   -3.74 KCAL/MOL
REMARK 922        TOTAL FREE ENERGY PREDICTED BY IDOCK:   -4.73 KCAL/MOL
REMARK 923 INTER-LIGAND FREE ENERGY PREDICTED BY IDOCK:   -4.65 KCAL/MOL
REMARK 924 INTRA-LIGAND FREE ENERGY PREDICTED BY IDOCK:   -0.09 KCAL/MOL
REMARK 927      BINDING AFFINITY PREDICTED BY RF-SCORE:    0.00 PKD
ROOT
HETATM    1  C   UNL     1     -11.720  13.433  66.233  1.00  0.00    -0.366 C  
HETATM    2  N   UNL     1     -12.455  14.232  67.203  1.00  0.00    -0.537 NA 
HETATM    3  H   UNL     1     -13.437  13.960  67.253  1.00  0.00     0.000 HD 
ENDROOT
BRANCH   2   4
HETATM    4  C   UNL     1     -11.807  14.174  68.522  1.00  0.00    -0.355 C  
BRANCH   4   5
HETATM    5  C   UNL     1     -11.690  15.574  69.134  1.00  0.00    -0.380 C  
BRANCH   5   6
HETATM    6  C   UNL     1     -12.285  15.624  70.520  1.00  0.00    -0.399 A  
HETATM    7  C   UNL     1     -13.604  15.240  70.742  1.00  0.00    -0.313 A  
HETATM    8  C   UNL     1     -14.120  15.318  72.034  1.00  0.00    -0.662 A  
HETATM    9  C   UNL     1     -13.311  15.779  73.064  1.00  0.00    -0.679 A  
HETATM   10  C   UNL     1     -12.013  16.147  72.758  1.00  0.00    -0.536 A  
HETATM   11  N   UNL     1     -11.487  16.079  71.516  1.00  0.00    -0.418 NA 
ENDBRANCH   5   6
ENDBRANCH   4   5
ENDBRANCH   2   4
TORSDOF 3
ENDMDL
MODEL       12
REMARK 921   NORMALIZED FREE ENERGY PREDICTED BY IDOCK:   -3.72 KCAL/MOL
REMARK 922        TOTAL FREE ENERGY PREDICTED BY IDOCK:   -4.72 KCAL/MOL
REMARK 923 INTER-LIGAND FREE ENERGY PREDICTED BY IDOCK:   -4.43 KCAL/MOL
REMARK 924 INTRA-LIGAND FREE ENERGY PREDICTED BY IDOCK:   -0.29 KCAL/MOL
REMARK 927      BINDING AFFINITY PREDICTED BY RF-SCORE:    0.00 PKD
ROOT
HETATM    1  C   UNL     1     -10.862  10.178  68.085  1.00  0.00    -0.262 C  
HETATM    2  N   UNL     1     -12.007  11.055  67.878  1.00  0.00    -0.727 NA 
HETATM    3  H   UNL     1     -12.830  10.729  68.385  1.00  0.00     0.000 HD 
ENDROOT
BRANCH   2   4
HETATM    4  C   UNL     1     -11.668  12.443  68.225  1.00  0.00    -0.345 C  
BRANCH   4   5
HETATM    5  C   UNL     1     -12.238  13.418  67.189  1.00  0.00    -0.306 C  
BRANCH   5   6
HETATM    6  C   UNL     1     -11.838  13.028  65.786  1.00  0.00    -0.404 A  
HETATM    7  C   UNL     1     -10.514  13.127  65.370  1.00  0.00    -0.307 A  
HETATM    8  C   UNL     1     -10.191  12.775  64.062  1.00  0.00    -0.323 A  
HETATM    9  C   UNL     1     -11.194  12.339  63.206  1.00  0.00    -0.399 A  
HETATM   10  C   UNL     1     -12.486  12.274  63.696  1.00  0.00    -0.541 A  
HETATM   11  N   UNL     1     -12.827  12.609  64.959  1.00  0.00    -0.816 NA 
ENDBRANCH   5   6
ENDBRANCH   4   5
ENDBRANCH   2   4
TORSDOF 3
ENDMDL
MODEL       13
REMARK 921   NORMALIZED FREE ENERGY PREDICTED BY IDOCK:   -3.72 KCAL/MOL
REMARK 922        TOTAL FREE ENERGY PREDICTED BY IDOCK:   -4.72 KCAL/MOL
REMARK 923 INTER-LIGAND FREE ENERGY PREDICTED BY IDOCK:   -4.57 KCAL/MOL
REMARK 924 INTRA-LIGAND FREE ENERGY PREDICTED BY IDOCK:   -0.14 KCAL/MOL
REMARK 927      BINDING AFFINITY PREDICTED BY RF-SCORE:    0.00 PKD
ROOT
HETATM    1  C   UNL     1     -12.149  12.411  63.686  1.00  0.00    -0.556 C  
HETATM    2  N   UNL     1     -12.298  13.788  63.234  1.00  0.00    -1.124 NA 
HETATM    3  H   UNL     1     -13.107  13.900  62.623  1.00  0.00     0.000 HD 
ENDROOT
BRANCH   2   4
HETATM    4  C   UNL     1     -12.351  14.708  64.380  1.00  0.00    -0.398 C  
BRANCH   4   5
HETATM    5  C   UNL     1     -10.998  14.759  65.099  1.00  0.00    -0.403 C  
BRANCH   5   6
HETATM    6  C   UNL     1     -11.169  14.748  66.599  1.00  0.00    -0.346 A  
HETATM    7  C   UNL     1     -11.870  13.724  67.228  1.00  0.00    -0.436 A  
HETATM    8  C   UNL     1     -12.020  13.762  68.613  1.00  0.00    -0.401 A  
HETATM    9  C   UNL     1     -11.472  14.818  69.329  1.00  0.00    -0.322 A  
HETATM   10  C   UNL     1     -10.795  15.799  68.627  1.00  0.00    -0.278 A  
HETATM   11  N   UNL     1     -10.634  15.786  67.286  1.00  0.00    -0.310 NA 
ENDBRANCH   5   6
ENDBRANCH   4   5
ENDBRANCH   2   4
TORSDOF 3
ENDMDL
MODEL       14
REMARK 921   NORMALIZED FREE ENERGY PREDICTED BY IDOCK:   -3.69 KCAL/MOL
REMARK 922        TOTAL FREE ENERGY PREDICTED BY IDOCK:   -4.69 KCAL/MOL
REMARK 923 INTER-LIGAND FREE ENERGY PREDICTED BY IDOCK:   -4.38 KCAL/MOL
REMARK 924 INTRA-LIGAND FREE ENERGY PREDICTED BY IDOCK:   -0.31 KCAL/MOL
REMARK 927      BINDING AFFINITY PREDICTED BY RF-SCORE:    0.00 PKD
ROOT
HETATM    1  C   UNL     1     -12.063  14.653  64.209  1.00  0.00    -0.415 C  
HETATM    2  N   UNL     1     -11.248  15.854  64.336  1.00  0.00    -0.869 NA 
HETATM    3  H   UNL     1     -11.810  16.668  64.585  1.00  0.00     0.000 HD 
ENDROOT
BRANCH   2   4
HETATM    4  C   UNL     1     -10.150  15.638  65.290  1.00  0.00    -0.270 C  
BRANCH   4   5
HETATM    5  C   UNL     1     -10.638  15.822  66.731  1.00  0.00    -0.309 C  
BRANCH   5   6
HETATM    6  C   UNL     1     -10.453  17.245  67.201  1.00  0.00    -0.297 A  
HETATM    7  C   UNL     1     -10.119  17.520  68.523  1.00  0.00    -0.363 A  
HETATM    8  C   UNL     1      -9.974  18.848  68.919  1.00  0.00    -0.437 A  
HETATM    9  C   UNL     1     -10.171  19.861  67.990  1.00  0.00    -0.572 A  
HETATM   10  C   UNL     1     -10.507  19.503  66.697  1.00  0.00    -0.488 A  
HETATM   11  N   UNL     1     -10.652  18.225  66.286  1.00  0.00    -0.357 NA 
ENDBRANCH   5   6
ENDBRANCH   4   5
ENDBRANCH   2   4
TORSDOF 3
ENDMDL
MODEL       15
REMARK 921   NORMALIZED FREE ENERGY PREDICTED BY IDOCK:   -3.66 KCAL/MOL
REMARK 922        TOTAL FREE ENERGY PREDICTED BY IDOCK:   -4.65 KCAL/MOL
REMARK 923 INTER-LIGAND FREE ENERGY PREDICTED BY IDOCK:   -4.52 KCAL/MOL
REMARK 924 INTRA-LIGAND FREE ENERGY PREDICTED BY IDOCK:   -0.13 KCAL/MOL
REMARK 927      BINDING AFFINITY PREDICTED BY RF-SCORE:    0.00 PKD
ROOT
HETATM    1  C   UNL     1     -10.174  10.951  64.032  1.00  0.00    -0.357 C  
HETATM    2  N   UNL     1     -11.282  11.267  63.141  1.00  0.00    -0.845 NA 
HETATM    3  H   UNL     1     -11.983  10.525  63.131  1.00  0.00     0.000 HD 
ENDROOT
BRANCH   2   4
HETATM    4  C   UNL     1     -11.873  12.568  63.486  1.00  0.00    -0.534 C  
BRANCH   4   5
HETATM    5  C   UNL     1     -12.307  12.596  64.956  1.00  0.00    -0.561 C  
BRANCH   5   6
HETATM    6  C   UNL     1     -11.725  13.785  65.681  1.00  0.00    -0.347 A  
HETATM    7  C   UNL     1     -10.757  14.583  65.078  1.00  0.00    -0.444 A  
HETATM    8  C   UNL     1     -10.233  15.660  65.790  1.00  0.00    -0.391 A  
HETATM    9  C   UNL     1     -10.683  15.908  67.080  1.00  0.00    -0.301 A  
HETATM   10  C   UNL     1     -11.643  15.064  67.609  1.00  0.00    -0.312 A  
HETATM   11  N   UNL     1     -12.169  14.014  66.941  1.00  0.00    -0.426 NA 
ENDBRANCH   5   6
ENDBRANCH   4   5
ENDBRANCH   2   4
TORSDOF 3
ENDMDL
MODEL       16
REMARK 921   NORMALIZED FREE ENERGY PREDICTED BY IDOCK:   -3.64 KCAL/MOL
REMARK 922        TOTAL FREE ENERGY PREDICTED BY IDOCK:   -4.62 KCAL/MOL
REMARK 923 INTER-LIGAND FREE ENERGY PREDICTED BY IDOCK:   -4.56 KCAL/MOL
REMARK 924 INTRA-LIGAND FREE ENERGY PREDICTED BY IDOCK:   -0.07 KCAL/MOL
REMARK 927      BINDING AFFINITY PREDICTED BY RF-SCORE:    0.00 PKD
ROOT
HETATM    1  C   UNL     1     -12.160  12.314  63.396  1.00  0.00    -0.516 C  
HETATM    2  N   UNL     1     -12.343  13.741  63.167  1.00  0.00    -1.106 NA 
HETATM    3  H   UNL     1     -13.203  13.935  62.655  1.00  0.00     0.000 HD 
ENDROOT
BRANCH   2   4
HETATM    4  C   UNL     1     -12.286  14.483  64.436  1.00  0.00    -0.458 C  
BRANCH   4   5
HETATM    5  C   UNL     1     -10.837  14.632  64.914  1.00  0.00    -0.436 C  
BRANCH   5   6
HETATM    6  C   UNL     1     -10.738  15.571  66.092  1.00  0.00    -0.313 A  
HETATM    7  C   UNL     1     -10.180  16.838  65.947  1.00  0.00    -0.345 A  
HETATM    8  C   UNL     1     -10.092  17.666  67.063  1.00  0.00    -0.330 A  
HETATM    9  C   UNL     1     -10.555  17.209  68.290  1.00  0.00    -0.375 A  
HETATM   10  C   UNL     1     -11.090  15.935  68.350  1.00  0.00    -0.345 A  
HETATM   11  N   UNL     1     -11.190  15.112  67.284  1.00  0.00    -0.334 NA 
ENDBRANCH   5   6
ENDBRANCH   4   5
ENDBRANCH   2   4
TORSDOF 3
ENDMDL
MODEL       17
REMARK 921   NORMALIZED FREE ENERGY PREDICTED BY IDOCK:   -3.61 KCAL/MOL
REMARK 922        TOTAL FREE ENERGY PREDICTED BY IDOCK:   -4.59 KCAL/MOL
REMARK 923 INTER-LIGAND FREE ENERGY PREDICTED BY IDOCK:   -4.47 KCAL/MOL
REMARK 924 INTRA-LIGAND FREE ENERGY PREDICTED BY IDOCK:   -0.12 KCAL/MOL
REMARK 927      BINDING AFFINITY PREDICTED BY RF-SCORE:    0.00 PKD
ROOT
HETATM    1  C   UNL     1     -12.092  14.696  64.449  1.00  0.00    -0.462 C  
HETATM    2  N   UNL     1     -12.383  13.846  63.302  1.00  0.00    -1.148 NA 
HETATM    3  H   UNL     1     -12.072  14.270  62.428  1.00  0.00     0.000 HD 
ENDROOT
BRANCH   2   4
HETATM    4  C   UNL     1     -11.811  12.505  63.490  1.00  0.00    -0.534 C  
BRANCH   4   5
HETATM    5  C   UNL     1     -10.564  12.565  64.379  1.00  0.00    -0.376 C  
BRANCH   5   6
HETATM    6  C   UNL     1     -10.560  11.455  65.402  1.00  0.00    -0.275 A  
HETATM    7  C   UNL     1     -11.154  11.633  66.648  1.00  0.00    -0.364 A  
HETATM    8  C   UNL     1     -11.112  10.589  67.569  1.00  0.00    -0.358 A  
HETATM    9  C   UNL     1     -10.477   9.402  67.226  1.00  0.00    -0.332 A  
HETATM   10  C   UNL     1      -9.907   9.308  65.970  1.00  0.00    -0.293 A  
HETATM   11  N   UNL     1      -9.934  10.304  65.057  1.00  0.00    -0.325 NA 
ENDBRANCH   5   6
ENDBRANCH   4   5
ENDBRANCH   2   4
TORSDOF 3
ENDMDL
MODEL       18
REMARK 921   NORMALIZED FREE ENERGY PREDICTED BY IDOCK:   -3.61 KCAL/MOL
REMARK 922        TOTAL FREE ENERGY PREDICTED BY IDOCK:   -4.58 KCAL/MOL
REMARK 923 INTER-LIGAND FREE ENERGY PREDICTED BY IDOCK:   -4.48 KCAL/MOL
REMARK 924 INTRA-LIGAND FREE ENERGY PREDICTED BY IDOCK:   -0.10 KCAL/MOL
REMARK 927      BINDING AFFINITY PREDICTED BY RF-SCORE:    0.00 PKD
ROOT
HETATM    1  C   UNL     1     -12.797   7.032  71.463  1.00  0.00    -0.372 C  
HETATM    2  N   UNL     1     -13.979   7.721  71.963  1.00  0.00    -0.536 NA 
HETATM    3  H   UNL     1     -14.396   7.231  72.755  1.00  0.00     0.000 HD 
ENDROOT
BRANCH   2   4
HETATM    4  C   UNL     1     -13.664   9.119  72.294  1.00  0.00    -0.487 C  
BRANCH   4   5
HETATM    5  C   UNL     1     -12.563   9.661  71.375  1.00  0.00    -0.463 C  
BRANCH   5   6
HETATM    6  C   UNL     1     -12.634  11.163  71.254  1.00  0.00    -0.398 A  
HETATM    7  C   UNL     1     -11.941  11.830  70.247  1.00  0.00    -0.429 A  
HETATM    8  C   UNL     1     -12.019  13.219  70.181  1.00  0.00    -0.388 A  
HETATM    9  C   UNL     1     -12.779  13.904  71.121  1.00  0.00    -0.441 A  
HETATM   10  C   UNL     1     -13.432  13.168  72.092  1.00  0.00    -0.560 A  
HETATM   11  N   UNL     1     -13.375  11.821  72.178  1.00  0.00    -0.406 NA 
ENDBRANCH   5   6
ENDBRANCH   4   5
ENDBRANCH   2   4
TORSDOF 3
ENDMDL
MODEL       19
REMARK 921   NORMALIZED FREE ENERGY PREDICTED BY IDOCK:   -3.61 KCAL/MOL
REMARK 922        TOTAL FREE ENERGY PREDICTED BY IDOCK:   -4.58 KCAL/MOL
REMARK 923 INTER-LIGAND FREE ENERGY PREDICTED BY IDOCK:   -4.47 KCAL/MOL
REMARK 924 INTRA-LIGAND FREE ENERGY PREDICTED BY IDOCK:   -0.11 KCAL/MOL
REMARK 927      BINDING AFFINITY PREDICTED BY RF-SCORE:    0.00 PKD
ROOT
HETATM    1  C   UNL     1      -9.801  11.522  63.212  1.00  0.00    -0.409 C  
HETATM    2  N   UNL     1     -11.238  11.386  63.019  1.00  0.00    -0.844 NA 
HETATM    3  H   UNL     1     -11.585  10.494  63.372  1.00  0.00     0.000 HD 
ENDROOT
BRANCH   2   4
HETATM    4  C   UNL     1     -11.953  12.523  63.619  1.00  0.00    -0.537 C  
BRANCH   4   5
HETATM    5  C   UNL     1     -10.979  13.450  64.356  1.00  0.00    -0.413 C  
BRANCH   5   6
HETATM    6  C   UNL     1     -11.268  13.488  65.837  1.00  0.00    -0.300 A  
HETATM    7  C   UNL     1     -11.498  12.315  66.549  1.00  0.00    -0.438 A  
HETATM    8  C   UNL     1     -11.779  12.397  67.911  1.00  0.00    -0.421 A  
HETATM    9  C   UNL     1     -11.827  13.642  68.523  1.00  0.00    -0.406 A  
HETATM   10  C   UNL     1     -11.593  14.760  67.744  1.00  0.00    -0.357 A  
HETATM   11  N   UNL     1     -11.317  14.710  66.422  1.00  0.00    -0.345 NA 
ENDBRANCH   5   6
ENDBRANCH   4   5
ENDBRANCH   2   4
TORSDOF 3
ENDMDL
MODEL       20
REMARK 921   NORMALIZED FREE ENERGY PREDICTED BY IDOCK:   -3.60 KCAL/MOL
REMARK 922        TOTAL FREE ENERGY PREDICTED BY IDOCK:   -4.58 KCAL/MOL
REMARK 923 INTER-LIGAND FREE ENERGY PREDICTED BY IDOCK:   -4.29 KCAL/MOL
REMARK 924 INTRA-LIGAND FREE ENERGY PREDICTED BY IDOCK:   -0.29 KCAL/MOL
REMARK 927      BINDING AFFINITY PREDICTED BY RF-SCORE:    0.00 PKD
ROOT
HETATM    1  C   UNL     1      -8.140  14.905  68.956  1.00  0.00    -0.165 C  
HETATM    2  N   UNL     1      -9.306  14.967  69.826  1.00  0.00    -0.441 NA 
HETATM    3  H   UNL     1      -9.082  15.386  70.729  1.00  0.00     0.000 HD 
ENDROOT
BRANCH   2   4
HETATM    4  C   UNL     1     -10.414  15.667  69.161  1.00  0.00    -0.236 C  
BRANCH   4   5
HETATM    5  C   UNL     1     -11.736  14.922  69.377  1.00  0.00    -0.349 C  
BRANCH   5   6
HETATM    6  C   UNL     1     -12.347  15.255  70.716  1.00  0.00    -0.380 A  
HETATM    7  C   UNL     1     -13.699  15.032  70.957  1.00  0.00    -0.417 A  
HETATM    8  C   UNL     1     -14.226  15.371  72.202  1.00  0.00    -0.660 A  
HETATM    9  C   UNL     1     -13.395  15.924  73.166  1.00  0.00    -0.681 A  
HETATM   10  C   UNL     1     -12.064  16.119  72.845  1.00  0.00    -0.541 A  
HETATM   11  N   UNL     1     -11.526  15.798  71.648  1.00  0.00    -0.419 NA 
ENDBRANCH   5   6
ENDBRANCH   4   5
ENDBRANCH   2   4
TORSDOF 3
ENDMDL
MODEL       21
REMARK 921   NORMALIZED FREE ENERGY PREDICTED BY IDOCK:   -3.59 KCAL/MOL
REMARK 922        TOTAL FREE ENERGY PREDICTED BY IDOCK:   -4.56 KCAL/MOL
REMARK 923 INTER-LIGAND FREE ENERGY PREDICTED BY IDOCK:   -4.48 KCAL/MOL
REMARK 924 INTRA-LIGAND FREE ENERGY PREDICTED BY IDOCK:   -0.09 KCAL/MOL
REMARK 927      BINDING AFFINITY PREDICTED BY RF-SCORE:    0.00 PKD
ROOT
HETATM    1  C   UNL     1     -10.197  18.795  68.187  1.00  0.00    -0.381 C  
HETATM    2  N   UNL     1     -10.776  17.469  68.019  1.00  0.00    -0.381 NA 
HETATM    3  H   UNL     1     -10.377  16.980  67.217  1.00  0.00     0.000 HD 
ENDROOT
BRANCH   2   4
HETATM    4  C   UNL     1     -10.644  16.683  69.256  1.00  0.00    -0.343 C  
BRANCH   4   5
HETATM    5  C   UNL     1     -11.724  15.598  69.329  1.00  0.00    -0.388 C  
BRANCH   5   6
HETATM    6  C   UNL     1     -12.179  15.367  70.749  1.00  0.00    -0.381 A  
HETATM    7  C   UNL     1     -11.815  16.245  71.765  1.00  0.00    -0.510 A  
HETATM    8  C   UNL     1     -12.242  15.985  73.066  1.00  0.00    -0.637 A  
HETATM    9  C   UNL     1     -13.013  14.858  73.317  1.00  0.00    -0.635 A  
HETATM   10  C   UNL     1     -13.327  14.033  72.253  1.00  0.00    -0.478 A  
HETATM   11  N   UNL     1     -12.928  14.262  70.983  1.00  0.00    -0.342 NA 
ENDBRANCH   5   6
ENDBRANCH   4   5
ENDBRANCH   2   4
TORSDOF 3
ENDMDL
MODEL       22
REMARK 921   NORMALIZED FREE ENERGY PREDICTED BY IDOCK:   -3.59 KCAL/MOL
REMARK 922        TOTAL FREE ENERGY PREDICTED BY IDOCK:   -4.56 KCAL/MOL
REMARK 923 INTER-LIGAND FREE ENERGY PREDICTED BY IDOCK:   -4.30 KCAL/MOL
REMARK 924 INTRA-LIGAND FREE ENERGY PREDICTED BY IDOCK:   -0.27 KCAL/MOL
REMARK 927      BINDING AFFINITY PREDICTED BY RF-SCORE:    0.00 PKD
ROOT
HETATM    1  C   UNL     1     -12.149  13.627  66.028  1.00  0.00    -0.441 C  
HETATM    2  N   UNL     1     -12.569  14.234  67.284  1.00  0.00    -0.442 NA 
HETATM    3  H   UNL     1     -13.055  13.566  67.883  1.00  0.00     0.000 HD 
ENDROOT
BRANCH   2   4
HETATM    4  C   UNL     1     -11.425  14.850  67.971  1.00  0.00    -0.337 C  
BRANCH   4   5
HETATM    5  C   UNL     1     -11.056  14.058  69.231  1.00  0.00    -0.271 C  
BRANCH   5   6
HETATM    6  C   UNL     1     -12.127  14.173  70.288  1.00  0.00    -0.342 A  
HETATM    7  C   UNL     1     -12.537  13.056  71.010  1.00  0.00    -0.386 A  
HETATM    8  C   UNL     1     -13.541  13.202  71.965  1.00  0.00    -0.554 A  
HETATM    9  C   UNL     1     -14.111  14.452  72.169  1.00  0.00    -0.627 A  
HETATM   10  C   UNL     1     -13.651  15.510  71.407  1.00  0.00    -0.474 A  
HETATM   11  N   UNL     1     -12.678  15.397  70.476  1.00  0.00    -0.421 NA 
ENDBRANCH   5   6
ENDBRANCH   4   5
ENDBRANCH   2   4
TORSDOF 3
ENDMDL
MODEL       23
REMARK 921   NORMALIZED FREE ENERGY PREDICTED BY IDOCK:   -3.59 KCAL/MOL
REMARK 922        TOTAL FREE ENERGY PREDICTED BY IDOCK:   -4.56 KCAL/MOL
REMARK 923 INTER-LIGAND FREE ENERGY PREDICTED BY IDOCK:   -4.43 KCAL/MOL
REMARK 924 INTRA-LIGAND FREE ENERGY PREDICTED BY IDOCK:   -0.13 KCAL/MOL
REMARK 927      BINDING AFFINITY PREDICTED BY RF-SCORE:    0.00 PKD
ROOT
HETATM    1  C   UNL     1     -10.822  16.724  65.105  1.00  0.00    -0.138 C  
HETATM    2  N   UNL     1     -11.443  16.095  63.947  1.00  0.00    -1.418 NA 
HETATM    3  H   UNL     1     -10.777  15.957  63.188  1.00  0.00     0.000 HD 
ENDROOT
BRANCH   2   4
HETATM    4  C   UNL     1     -12.099  14.836  64.330  1.00  0.00    -0.440 C  
BRANCH   4   5
HETATM    5  C   UNL     1     -11.380  14.187  65.518  1.00  0.00    -0.319 C  
BRANCH   5   6
HETATM    6  C   UNL     1     -10.816  12.835  65.151  1.00  0.00    -0.291 A  
HETATM    7  C   UNL     1     -10.743  12.432  63.821  1.00  0.00    -0.492 A  
HETATM    8  C   UNL     1     -10.232  11.169  63.528  1.00  0.00    -0.446 A  
HETATM    9  C   UNL     1      -9.814  10.345  64.564  1.00  0.00    -0.405 A  
HETATM   10  C   UNL     1      -9.926  10.819  65.859  1.00  0.00    -0.250 A  
HETATM   11  N   UNL     1     -10.415  12.039  66.171  1.00  0.00    -0.230 NA 
ENDBRANCH   5   6
ENDBRANCH   4   5
ENDBRANCH   2   4
TORSDOF 3
ENDMDL
MODEL       24
REMARK 921   NORMALIZED FREE ENERGY PREDICTED BY IDOCK:   -3.56 KCAL/MOL
REMARK 922        TOTAL FREE ENERGY PREDICTED BY IDOCK:   -4.53 KCAL/MOL
REMARK 923 INTER-LIGAND FREE ENERGY PREDICTED BY IDOCK:   -4.40 KCAL/MOL
REMARK 924 INTRA-LIGAND FREE ENERGY PREDICTED BY IDOCK:   -0.13 KCAL/MOL
REMARK 927      BINDING AFFINITY PREDICTED BY RF-SCORE:    0.00 PKD
ROOT
HETATM    1  C   UNL     1     -10.541  10.844  64.144  1.00  0.00    -0.257 C  
HETATM    2  N   UNL     1     -11.528  11.347  63.198  1.00  0.00    -0.873 NA 
HETATM    3  H   UNL     1     -12.276  10.673  63.038  1.00  0.00     0.000 HD 
ENDROOT
BRANCH   2   4
HETATM    4  C   UNL     1     -12.052  12.649  63.636  1.00  0.00    -0.547 C  
BRANCH   4   5
HETATM    5  C   UNL     1     -12.343  12.639  65.141  1.00  0.00    -0.547 C  
BRANCH   5   6
HETATM    6  C   UNL     1     -11.717  13.826  65.833  1.00  0.00    -0.352 A  
HETATM    7  C   UNL     1     -12.026  14.123  67.157  1.00  0.00    -0.460 A  
HETATM    8  C   UNL     1     -11.439  15.238  67.751  1.00  0.00    -0.312 A  
HETATM    9  C   UNL     1     -10.568  16.026  67.011  1.00  0.00    -0.302 A  
HETATM   10  C   UNL     1     -10.319  15.666  65.699  1.00  0.00    -0.385 A  
HETATM   11  N   UNL     1     -10.872  14.590  65.099  1.00  0.00    -0.368 NA 
ENDBRANCH   5   6
ENDBRANCH   4   5
ENDBRANCH   2   4
TORSDOF 3
ENDMDL
MODEL       25
REMARK 921   NORMALIZED FREE ENERGY PREDICTED BY IDOCK:   -3.56 KCAL/MOL
REMARK 922        TOTAL FREE ENERGY PREDICTED BY IDOCK:   -4.53 KCAL/MOL
REMARK 923 INTER-LIGAND FREE ENERGY PREDICTED BY IDOCK:   -4.45 KCAL/MOL
REMARK 924 INTRA-LIGAND FREE ENERGY PREDICTED BY IDOCK:   -0.07 KCAL/MOL
REMARK 927      BINDING AFFINITY PREDICTED BY RF-SCORE:    0.00 PKD
ROOT
HETATM    1  C   UNL     1     -10.942   9.955  70.526  1.00  0.00    -0.326 C  
HETATM    2  N   UNL     1     -12.272  10.434  70.881  1.00  0.00    -0.349 NA 
HETATM    3  H   UNL     1     -12.530  10.166  71.831  1.00  0.00     0.000 HD 
ENDROOT
BRANCH   2   4
HETATM    4  C   UNL     1     -12.371  11.887  70.679  1.00  0.00    -0.313 C  
BRANCH   4   5
HETATM    5  C   UNL     1     -13.256  12.526  71.755  1.00  0.00    -0.444 C  
BRANCH   5   6
HETATM    6  C   UNL     1     -12.804  13.930  72.080  1.00  0.00    -0.301 A  
HETATM    7  C   UNL     1     -12.119  14.692  71.139  1.00  0.00    -0.403 A  
HETATM    8  C   UNL     1     -11.705  15.977  71.486  1.00  0.00    -0.554 A  
HETATM    9  C   UNL     1     -11.980  16.462  72.758  1.00  0.00    -0.585 A  
HETATM   10  C   UNL     1     -12.661  15.638  73.635  1.00  0.00    -0.596 A  
HETATM   11  N   UNL     1     -13.076  14.390  73.325  1.00  0.00    -0.579 NA 
ENDBRANCH   5   6
ENDBRANCH   4   5
ENDBRANCH   2   4
TORSDOF 3
ENDMDL
MODEL       26
REMARK 921   NORMALIZED FREE ENERGY PREDICTED BY IDOCK:   -3.55 KCAL/MOL
REMARK 922        TOTAL FREE ENERGY PREDICTED BY IDOCK:   -4.52 KCAL/MOL
REMARK 923 INTER-LIGAND FREE ENERGY PREDICTED BY IDOCK:   -4.45 KCAL/MOL
REMARK 924 INTRA-LIGAND FREE ENERGY PREDICTED BY IDOCK:   -0.07 KCAL/MOL
REMARK 927      BINDING AFFINITY PREDICTED BY RF-SCORE:    0.00 PKD
ROOT
HETATM    1  C   UNL     1     -10.767   7.395  73.280  1.00  0.00    -0.391 C  
HETATM    2  N   UNL     1     -12.088   7.953  73.023  1.00  0.00    -0.642 NA 
HETATM    3  H   UNL     1     -12.523   8.304  73.876  1.00  0.00     0.000 HD 
ENDROOT
BRANCH   2   4
HETATM    4  C   UNL     1     -12.020   8.988  71.980  1.00  0.00    -0.363 C  
BRANCH   4   5
HETATM    5  C   UNL     1     -13.272   9.872  72.010  1.00  0.00    -0.555 C  
BRANCH   5   6
HETATM    6  C   UNL     1     -12.962  11.283  71.574  1.00  0.00    -0.415 A  
HETATM    7  C   UNL     1     -12.143  11.525  70.476  1.00  0.00    -0.472 A  
HETATM    8  C   UNL     1     -11.868  12.843  70.117  1.00  0.00    -0.319 A  
HETATM    9  C   UNL     1     -12.412  13.880  70.864  1.00  0.00    -0.447 A  
HETATM   10  C   UNL     1     -13.212  13.554  71.944  1.00  0.00    -0.422 A  
HETATM   11  N   UNL     1     -13.496  12.286  72.312  1.00  0.00    -0.428 NA 
ENDBRANCH   5   6
ENDBRANCH   4   5
ENDBRANCH   2   4
TORSDOF 3
ENDMDL
MODEL       27
REMARK 921   NORMALIZED FREE ENERGY PREDICTED BY IDOCK:   -3.52 KCAL/MOL
REMARK 922        TOTAL FREE ENERGY PREDICTED BY IDOCK:   -4.48 KCAL/MOL
REMARK 923 INTER-LIGAND FREE ENERGY PREDICTED BY IDOCK:   -4.37 KCAL/MOL
REMARK 924 INTRA-LIGAND FREE ENERGY PREDICTED BY IDOCK:   -0.11 KCAL/MOL
REMARK 927      BINDING AFFINITY PREDICTED BY RF-SCORE:    0.00 PKD
ROOT
HETATM    1  C   UNL     1     -12.573  15.528  70.699  1.00  0.00    -0.443 C  
HETATM    2  N   UNL     1     -12.240  15.385  69.288  1.00  0.00    -0.582 NA 
HETATM    3  H   UNL     1     -12.897  15.889  68.691  1.00  0.00     0.000 HD 
ENDROOT
BRANCH   2   4
HETATM    4  C   UNL     1     -10.851  15.797  69.037  1.00  0.00    -0.248 C  
BRANCH   4   5
HETATM    5  C   UNL     1     -10.651  16.164  67.562  1.00  0.00    -0.314 C  
BRANCH   5   6
HETATM    6  C   UNL     1     -10.415  17.645  67.388  1.00  0.00    -0.356 A  
HETATM    7  C   UNL     1     -10.189  18.464  68.491  1.00  0.00    -0.394 A  
HETATM    8  C   UNL     1      -9.994  19.828  68.287  1.00  0.00    -0.557 A  
HETATM    9  C   UNL     1     -10.032  20.337  66.996  1.00  0.00    -0.601 A  
HETATM   10  C   UNL     1     -10.267  19.457  65.955  1.00  0.00    -0.457 A  
HETATM   11  N   UNL     1     -10.458  18.130  66.124  1.00  0.00    -0.421 NA 
ENDBRANCH   5   6
ENDBRANCH   4   5
ENDBRANCH   2   4
TORSDOF 3
ENDMDL
MODEL       28
REMARK 921   NORMALIZED FREE ENERGY PREDICTED BY IDOCK:   -3.52 KCAL/MOL
REMARK 922        TOTAL FREE ENERGY PREDICTED BY IDOCK:   -4.48 KCAL/MOL
REMARK 923 INTER-LIGAND FREE ENERGY PREDICTED BY IDOCK:   -4.37 KCAL/MOL
REMARK 924 INTRA-LIGAND FREE ENERGY PREDICTED BY IDOCK:   -0.11 KCAL/MOL
REMARK 927      BINDING AFFINITY PREDICTED BY RF-SCORE:    0.00 PKD
ROOT
HETATM    1  C   UNL     1     -14.403   7.645  71.678  1.00  0.00    -0.477 C  
HETATM    2  N   UNL     1     -14.362   8.758  72.618  1.00  0.00    -0.936 NA 
HETATM    3  H   UNL     1     -14.488   8.446  73.580  1.00  0.00     0.000 HD 
ENDROOT
BRANCH   2   4
HETATM    4  C   UNL     1     -13.121   9.530  72.455  1.00  0.00    -0.349 C  
BRANCH   4   5
HETATM    5  C   UNL     1     -12.868   9.847  70.976  1.00  0.00    -0.417 C  
BRANCH   5   6
HETATM    6  C   UNL     1     -12.639  11.323  70.759  1.00  0.00    -0.332 A  
HETATM    7  C   UNL     1     -12.985  12.249  71.739  1.00  0.00    -0.431 A  
HETATM    8  C   UNL     1     -12.773  13.603  71.490  1.00  0.00    -0.420 A  
HETATM    9  C   UNL     1     -12.229  13.996  70.275  1.00  0.00    -0.430 A  
HETATM   10  C   UNL     1     -11.918  13.014  69.352  1.00  0.00    -0.281 A  
HETATM   11  N   UNL     1     -12.111  11.695  69.568  1.00  0.00    -0.295 NA 
ENDBRANCH   5   6
ENDBRANCH   4   5
ENDBRANCH   2   4
TORSDOF 3
ENDMDL
MODEL       29
REMARK 921   NORMALIZED FREE ENERGY PREDICTED BY IDOCK:   -3.50 KCAL/MOL
REMARK 922        TOTAL FREE ENERGY PREDICTED BY IDOCK:   -4.46 KCAL/MOL
REMARK 923 INTER-LIGAND FREE ENERGY PREDICTED BY IDOCK:   -4.16 KCAL/MOL
REMARK 924 INTRA-LIGAND FREE ENERGY PREDICTED BY IDOCK:   -0.30 KCAL/MOL
REMARK 927      BINDING AFFINITY PREDICTED BY RF-SCORE:    0.00 PKD
ROOT
HETATM    1  C   UNL     1      -9.323  10.900  68.987  1.00  0.00    -0.131 C  
HETATM    2  N   UNL     1     -10.086  12.140  68.934  1.00  0.00    -0.418 NA 
HETATM    3  H   UNL     1      -9.813  12.720  68.141  1.00  0.00     0.000 HD 
ENDROOT
BRANCH   2   4
HETATM    4  C   UNL     1     -11.530  11.862  68.932  1.00  0.00    -0.301 C  
BRANCH   4   5
HETATM    5  C   UNL     1     -12.055  11.697  70.363  1.00  0.00    -0.462 C  
BRANCH   5   6
HETATM    6  C   UNL     1     -12.551  13.008  70.924  1.00  0.00    -0.280 A  
HETATM    7  C   UNL     1     -13.319  13.041  72.084  1.00  0.00    -0.622 A  
HETATM    8  C   UNL     1     -13.771  14.271  72.557  1.00  0.00    -0.608 A  
HETATM    9  C   UNL     1     -13.451  15.429  71.862  1.00  0.00    -0.571 A  
HETATM   10  C   UNL     1     -12.688  15.309  70.714  1.00  0.00    -0.433 A  
HETATM   11  N   UNL     1     -12.235  14.131  70.234  1.00  0.00    -0.329 NA 
ENDBRANCH   5   6
ENDBRANCH   4   5
ENDBRANCH   2   4
TORSDOF 3
ENDMDL
MODEL       30
REMARK 921   NORMALIZED FREE ENERGY PREDICTED BY IDOCK:   -3.50 KCAL/MOL
REMARK 922        TOTAL FREE ENERGY PREDICTED BY IDOCK:   -4.46 KCAL/MOL
REMARK 923 INTER-LIGAND FREE ENERGY PREDICTED BY IDOCK:   -4.13 KCAL/MOL
REMARK 924 INTRA-LIGAND FREE ENERGY PREDICTED BY IDOCK:   -0.32 KCAL/MOL
REMARK 927      BINDING AFFINITY PREDICTED BY RF-SCORE:    0.00 PKD
ROOT
HETATM    1  C   UNL     1     -11.006  16.327  69.761  1.00  0.00    -0.354 C  
HETATM    2  N   UNL     1     -10.736  15.181  70.619  1.00  0.00    -0.532 NA 
HETATM    3  H   UNL     1      -9.756  15.142  70.901  1.00  0.00     0.000 HD 
ENDROOT
BRANCH   2   4
HETATM    4  C   UNL     1     -11.637  15.178  71.781  1.00  0.00    -0.408 C  
BRANCH   4   5
HETATM    5  C   UNL     1     -12.963  14.490  71.439  1.00  0.00    -0.403 C  
BRANCH   5   6
HETATM    6  C   UNL     1     -12.766  13.021  71.156  1.00  0.00    -0.283 A  
HETATM    7  C   UNL     1     -13.212  12.056  72.055  1.00  0.00    -0.481 A  
HETATM    8  C   UNL     1     -12.994  10.712  71.763  1.00  0.00    -0.577 A  
HETATM    9  C   UNL     1     -12.337  10.366  70.590  1.00  0.00    -0.438 A  
HETATM   10  C   UNL     1     -11.920  11.386  69.753  1.00  0.00    -0.353 A  
HETATM   11  N   UNL     1     -12.120  12.697  70.010  1.00  0.00    -0.304 NA 
ENDBRANCH   5   6
ENDBRANCH   4   5
ENDBRANCH   2   4
TORSDOF 3
ENDMDL
MODEL       31
REMARK 921   NORMALIZED FREE ENERGY PREDICTED BY IDOCK:   -3.47 KCAL/MOL
REMARK 922        TOTAL FREE ENERGY PREDICTED BY IDOCK:   -4.42 KCAL/MOL
REMARK 923 INTER-LIGAND FREE ENERGY PREDICTED BY IDOCK:   -4.34 KCAL/MOL
REMARK 924 INTRA-LIGAND FREE ENERGY PREDICTED BY IDOCK:   -0.08 KCAL/MOL
REMARK 927      BINDING AFFINITY PREDICTED BY RF-SCORE:    0.00 PKD
ROOT
HETATM    1  C   UNL     1     -12.096  14.148  69.657  1.00  0.00    -0.349 C  
HETATM    2  N   UNL     1     -12.163  15.178  68.630  1.00  0.00    -0.597 NA 
HETATM    3  H   UNL     1     -11.672  16.027  68.913  1.00  0.00     0.000 HD 
ENDROOT
BRANCH   2   4
HETATM    4  C   UNL     1     -11.665  14.664  67.345  1.00  0.00    -0.390 C  
BRANCH   4   5
HETATM    5  C   UNL     1     -12.114  13.215  67.128  1.00  0.00    -0.343 C  
BRANCH   5   6
HETATM    6  C   UNL     1     -11.799  12.742  65.730  1.00  0.00    -0.434 A  
HETATM    7  C   UNL     1     -10.481  12.621  65.300  1.00  0.00    -0.312 A  
HETATM    8  C   UNL     1     -10.235  12.199  63.995  1.00  0.00    -0.396 A  
HETATM    9  C   UNL     1     -11.305  11.913  63.157  1.00  0.00    -0.232 A  
HETATM   10  C   UNL     1     -12.584  12.064  63.661  1.00  0.00    -0.490 A  
HETATM   11  N   UNL     1     -12.851  12.471  64.921  1.00  0.00    -0.800 NA 
ENDBRANCH   5   6
ENDBRANCH   4   5
ENDBRANCH   2   4
TORSDOF 3
ENDMDL
MODEL       32
REMARK 921   NORMALIZED FREE ENERGY PREDICTED BY IDOCK:   -3.47 KCAL/MOL
REMARK 922        TOTAL FREE ENERGY PREDICTED BY IDOCK:   -4.42 KCAL/MOL
REMARK 923 INTER-LIGAND FREE ENERGY PREDICTED BY IDOCK:   -4.34 KCAL/MOL
REMARK 924 INTRA-LIGAND FREE ENERGY PREDICTED BY IDOCK:   -0.08 KCAL/MOL
REMARK 927      BINDING AFFINITY PREDICTED BY RF-SCORE:    0.00 PKD
ROOT
HETATM    1  C   UNL     1     -14.327  14.924  71.756  1.00  0.00    -0.578 C  
HETATM    2  N   UNL     1     -13.559  15.564  70.697  1.00  0.00    -0.849 NA 
HETATM    3  H   UNL     1     -13.202  16.475  70.986  1.00  0.00     0.000 HD 
ENDROOT
BRANCH   2   4
HETATM    4  C   UNL     1     -12.481  14.681  70.230  1.00  0.00    -0.346 C  
BRANCH   4   5
HETATM    5  C   UNL     1     -11.904  15.182  68.901  1.00  0.00    -0.337 C  
BRANCH   5   6
HETATM    6  C   UNL     1     -11.783  14.064  67.894  1.00  0.00    -0.362 A  
HETATM    7  C   UNL     1     -12.093  14.276  66.554  1.00  0.00    -0.454 A  
HETATM    8  C   UNL     1     -11.984  13.212  65.661  1.00  0.00    -0.462 A  
HETATM    9  C   UNL     1     -11.576  11.969  66.128  1.00  0.00    -0.371 A  
HETATM   10  C   UNL     1     -11.293  11.840  67.475  1.00  0.00    -0.310 A  
HETATM   11  N   UNL     1     -11.388  12.855  68.362  1.00  0.00    -0.271 NA 
ENDBRANCH   5   6
ENDBRANCH   4   5
ENDBRANCH   2   4
TORSDOF 3
ENDMDL
MODEL       33
REMARK 921   NORMALIZED FREE ENERGY PREDICTED BY IDOCK:   -3.45 KCAL/MOL
REMARK 922        TOTAL FREE ENERGY PREDICTED BY IDOCK:   -4.40 KCAL/MOL
REMARK 923 INTER-LIGAND FREE ENERGY PREDICTED BY IDOCK:   -4.10 KCAL/MOL
REMARK 924 INTRA-LIGAND FREE ENERGY PREDICTED BY IDOCK:   -0.30 KCAL/MOL
REMARK 927      BINDING AFFINITY PREDICTED BY RF-SCORE:    0.00 PKD
ROOT
HETATM    1  C   UNL     1     -14.044  15.312  71.702  1.00  0.00    -0.541 C  
HETATM    2  N   UNL     1     -13.410  15.507  70.405  1.00  0.00    -0.779 NA 
HETATM    3  H   UNL     1     -13.244  16.495  70.210  1.00  0.00     0.000 HD 
ENDROOT
BRANCH   2   4
HETATM    4  C   UNL     1     -12.174  14.717  70.306  1.00  0.00    -0.338 C  
BRANCH   4   5
HETATM    5  C   UNL     1     -11.935  14.259  68.863  1.00  0.00    -0.356 C  
BRANCH   5   6
HETATM    6  C   UNL     1     -11.288  15.344  68.038  1.00  0.00    -0.341 A  
HETATM    7  C   UNL     1     -10.886  15.099  66.728  1.00  0.00    -0.322 A  
HETATM    8  C   UNL     1     -10.277  16.124  66.007  1.00  0.00    -0.374 A  
HETATM    9  C   UNL     1     -10.082  17.359  66.611  1.00  0.00    -0.317 A  
HETATM   10  C   UNL     1     -10.505  17.519  67.918  1.00  0.00    -0.384 A  
HETATM   11  N   UNL     1     -11.099  16.544  68.639  1.00  0.00    -0.347 NA 
ENDBRANCH   5   6
ENDBRANCH   4   5
ENDBRANCH   2   4
TORSDOF 3
ENDMDL
MODEL       34
REMARK 921   NORMALIZED FREE ENERGY PREDICTED BY IDOCK:   -3.44 KCAL/MOL
REMARK 922        TOTAL FREE ENERGY PREDICTED BY IDOCK:   -4.39 KCAL/MOL
REMARK 923 INTER-LIGAND FREE ENERGY PREDICTED BY IDOCK:   -4.03 KCAL/MOL
REMARK 924 INTRA-LIGAND FREE ENERGY PREDICTED BY IDOCK:   -0.36 KCAL/MOL
REMARK 927      BINDING AFFINITY PREDICTED BY RF-SCORE:    0.00 PKD
ROOT
HETATM    1  C   UNL     1     -11.450  15.140  70.044  1.00  0.00    -0.286 C  
HETATM    2  N   UNL     1     -12.052  15.705  68.844  1.00  0.00    -0.584 NA 
HETATM    3  H   UNL     1     -12.062  16.725  68.870  1.00  0.00     0.000 HD 
ENDROOT
BRANCH   2   4
HETATM    4  C   UNL     1     -11.380  15.199  67.638  1.00  0.00    -0.321 C  
BRANCH   4   5
HETATM    5  C   UNL     1     -10.013  15.868  67.455  1.00  0.00    -0.238 C  
BRANCH   5   6
HETATM    6  C   UNL     1     -10.140  17.369  67.368  1.00  0.00    -0.321 A  
HETATM    7  C   UNL     1     -10.373  17.994  66.146  1.00  0.00    -0.368 A  
HETATM    8  C   UNL     1     -10.466  19.383  66.107  1.00  0.00    -0.600 A  
HETATM    9  C   UNL     1     -10.319  20.110  67.282  1.00  0.00    -0.494 A  
HETATM   10  C   UNL     1     -10.083  19.413  68.453  1.00  0.00    -0.444 A  
HETATM   11  N   UNL     1      -9.991  18.067  68.520  1.00  0.00    -0.371 NA 
ENDBRANCH   5   6
ENDBRANCH   4   5
ENDBRANCH   2   4
TORSDOF 3
ENDMDL
MODEL       35
REMARK 921   NORMALIZED FREE ENERGY PREDICTED BY IDOCK:   -3.44 KCAL/MOL
REMARK 922        TOTAL FREE ENERGY PREDICTED BY IDOCK:   -4.38 KCAL/MOL
REMARK 923 INTER-LIGAND FREE ENERGY PREDICTED BY IDOCK:   -4.30 KCAL/MOL
REMARK 924 INTRA-LIGAND FREE ENERGY PREDICTED BY IDOCK:   -0.08 KCAL/MOL
REMARK 927      BINDING AFFINITY PREDICTED BY RF-SCORE:    0.00 PKD
ROOT
HETATM    1  C   UNL     1     -10.085  18.384  66.664  1.00  0.00    -0.380 C  
HETATM    2  N   UNL     1     -10.427  17.777  65.385  1.00  0.00    -0.602 NA 
HETATM    3  H   UNL     1      -9.743  18.005  64.663  1.00  0.00     0.000 HD 
ENDROOT
BRANCH   2   4
HETATM    4  C   UNL     1     -10.601  16.324  65.530  1.00  0.00    -0.353 C  
BRANCH   4   5
HETATM    5  C   UNL     1     -11.623  15.795  64.517  1.00  0.00    -0.247 C  
BRANCH   5   6
HETATM    6  C   UNL     1     -11.457  14.313  64.287  1.00  0.00    -0.242 A  
HETATM    7  C   UNL     1     -10.330  13.642  64.753  1.00  0.00    -0.414 A  
HETATM    8  C   UNL     1     -10.207  12.277  64.504  1.00  0.00    -0.322 A  
HETATM    9  C   UNL     1     -11.206  11.621  63.796  1.00  0.00    -0.498 A  
HETATM   10  C   UNL     1     -12.291  12.361  63.362  1.00  0.00    -0.499 A  
HETATM   11  N   UNL     1     -12.435  13.685  63.591  1.00  0.00    -0.744 NA 
ENDBRANCH   5   6
ENDBRANCH   4   5
ENDBRANCH   2   4
TORSDOF 3
ENDMDL
MODEL       36
REMARK 921   NORMALIZED FREE ENERGY PREDICTED BY IDOCK:   -3.38 KCAL/MOL
REMARK 922        TOTAL FREE ENERGY PREDICTED BY IDOCK:   -4.32 KCAL/MOL
REMARK 923 INTER-LIGAND FREE ENERGY PREDICTED BY IDOCK:   -4.03 KCAL/MOL
REMARK 924 INTRA-LIGAND FREE ENERGY PREDICTED BY IDOCK:   -0.29 KCAL/MOL
REMARK 927      BINDING AFFINITY PREDICTED BY RF-SCORE:    0.00 PKD
ROOT
HETATM    1  C   UNL     1      -5.538  19.852  71.512  1.00  0.00    -0.374 C  
HETATM    2  N   UNL     1      -6.244  20.380  70.353  1.00  0.00    -0.475 NA 
HETATM    3  H   UNL     1      -5.899  21.303  70.087  1.00  0.00     0.000 HD 
ENDROOT
BRANCH   2   4
HETATM    4  C   UNL     1      -6.184  19.432  69.230  1.00  0.00    -0.289 C  
BRANCH   4   5
HETATM    5  C   UNL     1      -6.643  20.099  67.929  1.00  0.00    -0.298 C  
BRANCH   5   6
HETATM    6  C   UNL     1      -8.100  19.820  67.650  1.00  0.00    -0.296 A  
HETATM    7  C   UNL     1      -8.617  19.957  66.365  1.00  0.00    -0.386 A  
HETATM    8  C   UNL     1      -9.971  19.706  66.154  1.00  0.00    -0.554 A  
HETATM    9  C   UNL     1     -10.770  19.331  67.226  1.00  0.00    -0.594 A  
HETATM   10  C   UNL     1     -10.180  19.223  68.472  1.00  0.00    -0.383 A  
HETATM   11  N   UNL     1      -8.870  19.459  68.704  1.00  0.00    -0.377 NA 
ENDBRANCH   5   6
ENDBRANCH   4   5
ENDBRANCH   2   4
TORSDOF 3
ENDMDL
MODEL       37
REMARK 921   NORMALIZED FREE ENERGY PREDICTED BY IDOCK:   -3.38 KCAL/MOL
REMARK 922        TOTAL FREE ENERGY PREDICTED BY IDOCK:   -4.32 KCAL/MOL
REMARK 923 INTER-LIGAND FREE ENERGY PREDICTED BY IDOCK:   -3.97 KCAL/MOL
REMARK 924 INTRA-LIGAND FREE ENERGY PREDICTED BY IDOCK:   -0.34 KCAL/MOL
REMARK 927      BINDING AFFINITY PREDICTED BY RF-SCORE:    0.00 PKD
ROOT
HETATM    1  C   UNL     1     -11.025   6.299  69.073  1.00  0.00    -0.372 C  
HETATM    2  N   UNL     1     -12.033   6.614  70.077  1.00  0.00    -0.636 NA 
HETATM    3  H   UNL     1     -12.627   5.810  70.281  1.00  0.00     0.000 HD 
ENDROOT
BRANCH   2   4
HETATM    4  C   UNL     1     -11.405   7.150  71.293  1.00  0.00    -0.268 C  
BRANCH   4   5
HETATM    5  C   UNL     1     -12.364   8.092  72.030  1.00  0.00    -0.366 C  
BRANCH   5   6
HETATM    6  C   UNL     1     -12.276   9.500  71.494  1.00  0.00    -0.386 A  
HETATM    7  C   UNL     1     -13.070  10.514  72.023  1.00  0.00    -0.511 A  
HETATM    8  C   UNL     1     -12.971  11.796  71.486  1.00  0.00    -0.446 A  
HETATM    9  C   UNL     1     -12.090  12.030  70.438  1.00  0.00    -0.407 A  
HETATM   10  C   UNL     1     -11.342  10.967  69.966  1.00  0.00    -0.307 A  
HETATM   11  N   UNL     1     -11.417   9.715  70.468  1.00  0.00    -0.272 NA 
ENDBRANCH   5   6
ENDBRANCH   4   5
ENDBRANCH   2   4
TORSDOF 3
ENDMDL
MODEL       38
REMARK 921   NORMALIZED FREE ENERGY PREDICTED BY IDOCK:   -3.38 KCAL/MOL
REMARK 922        TOTAL FREE ENERGY PREDICTED BY IDOCK:   -4.31 KCAL/MOL
REMARK 923 INTER-LIGAND FREE ENERGY PREDICTED BY IDOCK:   -4.01 KCAL/MOL
REMARK 924 INTRA-LIGAND FREE ENERGY PREDICTED BY IDOCK:   -0.31 KCAL/MOL
REMARK 927      BINDING AFFINITY PREDICTED BY RF-SCORE:    0.00 PKD
ROOT
HETATM    1  C   UNL     1     -12.486  10.541  70.344  1.00  0.00    -0.310 C  
HETATM    2  N   UNL     1     -12.373  10.803  68.916  1.00  0.00    -0.786 NA 
HETATM    3  H   UNL     1     -13.120  11.414  68.583  1.00  0.00     0.000 HD 
ENDROOT
BRANCH   2   4
HETATM    4  C   UNL     1     -11.044  11.341  68.590  1.00  0.00    -0.232 C  
BRANCH   4   5
HETATM    5  C   UNL     1     -11.125  12.840  68.281  1.00  0.00    -0.288 C  
BRANCH   5   6
HETATM    6  C   UNL     1     -11.504  13.089  66.842  1.00  0.00    -0.339 A  
HETATM    7  C   UNL     1     -11.564  14.384  66.335  1.00  0.00    -0.383 A  
HETATM    8  C   UNL     1     -11.936  14.570  65.005  1.00  0.00    -0.399 A  
HETATM    9  C   UNL     1     -12.241  13.465  64.222  1.00  0.00    -0.450 A  
HETATM   10  C   UNL     1     -12.162  12.212  64.803  1.00  0.00    -0.264 A  
HETATM   11  N   UNL     1     -11.803  12.003  66.088  1.00  0.00    -0.555 NA 
ENDBRANCH   5   6
ENDBRANCH   4   5
ENDBRANCH   2   4
TORSDOF 3
ENDMDL
MODEL       39
REMARK 921   NORMALIZED FREE ENERGY PREDICTED BY IDOCK:   -3.37 KCAL/MOL
REMARK 922        TOTAL FREE ENERGY PREDICTED BY IDOCK:   -4.31 KCAL/MOL
REMARK 923 INTER-LIGAND FREE ENERGY PREDICTED BY IDOCK:   -4.23 KCAL/MOL
REMARK 924 INTRA-LIGAND FREE ENERGY PREDICTED BY IDOCK:   -0.08 KCAL/MOL
REMARK 927      BINDING AFFINITY PREDICTED BY RF-SCORE:    0.00 PKD
ROOT
HETATM    1  C   UNL     1     -14.257  14.990  71.835  1.00  0.00    -0.555 C  
HETATM    2  N   UNL     1     -13.523  15.714  70.806  1.00  0.00    -0.797 NA 
HETATM    3  H   UNL     1     -13.174  16.609  71.150  1.00  0.00     0.000 HD 
ENDROOT
BRANCH   2   4
HETATM    4  C   UNL     1     -12.441  14.884  70.257  1.00  0.00    -0.336 C  
BRANCH   4   5
HETATM    5  C   UNL     1     -12.000  15.402  68.884  1.00  0.00    -0.298 C  
BRANCH   5   6
HETATM    6  C   UNL     1     -11.834  14.275  67.894  1.00  0.00    -0.358 A  
HETATM    7  C   UNL     1     -11.642  12.967  68.331  1.00  0.00    -0.370 A  
HETATM    8  C   UNL     1     -11.476  11.959  67.384  1.00  0.00    -0.393 A  
HETATM    9  C   UNL     1     -11.500  12.281  66.033  1.00  0.00    -0.434 A  
HETATM   10  C   UNL     1     -11.690  13.606  65.683  1.00  0.00    -0.342 A  
HETATM   11  N   UNL     1     -11.856  14.602  66.580  1.00  0.00    -0.348 NA 
ENDBRANCH   5   6
ENDBRANCH   4   5
ENDBRANCH   2   4
TORSDOF 3
ENDMDL
MODEL       40
REMARK 921   NORMALIZED FREE ENERGY PREDICTED BY IDOCK:   -3.37 KCAL/MOL
REMARK 922        TOTAL FREE ENERGY PREDICTED BY IDOCK:   -4.30 KCAL/MOL
REMARK 923 INTER-LIGAND FREE ENERGY PREDICTED BY IDOCK:   -3.98 KCAL/MOL
REMARK 924 INTRA-LIGAND FREE ENERGY PREDICTED BY IDOCK:   -0.33 KCAL/MOL
REMARK 927      BINDING AFFINITY PREDICTED BY RF-SCORE:    0.00 PKD
ROOT
HETATM    1  C   UNL     1     -10.292  11.431  63.388  1.00  0.00    -0.402 C  
HETATM    2  N   UNL     1     -11.193  12.560  63.201  1.00  0.00    -0.738 NA 
HETATM    3  H   UNL     1     -11.552  12.603  62.247  1.00  0.00     0.000 HD 
ENDROOT
BRANCH   2   4
HETATM    4  C   UNL     1     -12.280  12.526  64.190  1.00  0.00    -0.467 C  
BRANCH   4   5
HETATM    5  C   UNL     1     -12.489  13.910  64.815  1.00  0.00    -0.386 C  
BRANCH   5   6
HETATM    6  C   UNL     1     -11.221  14.428  65.448  1.00  0.00    -0.335 A  
HETATM    7  C   UNL     1     -10.866  15.769  65.335  1.00  0.00    -0.376 A  
HETATM    8  C   UNL     1      -9.677  16.203  65.919  1.00  0.00    -0.374 A  
HETATM    9  C   UNL     1      -8.876  15.290  66.592  1.00  0.00    -0.328 A  
HETATM   10  C   UNL     1      -9.298  13.974  66.654  1.00  0.00    -0.277 A  
HETATM   11  N   UNL     1     -10.446  13.528  66.099  1.00  0.00    -0.291 NA 
ENDBRANCH   5   6
ENDBRANCH   4   5
ENDBRANCH   2   4
TORSDOF 3
ENDMDL
MODEL       41
REMARK 921   NORMALIZED FREE ENERGY PREDICTED BY IDOCK:   -3.37 KCAL/MOL
REMARK 922        TOTAL FREE ENERGY PREDICTED BY IDOCK:   -4.30 KCAL/MOL
REMARK 923 INTER-LIGAND FREE ENERGY PREDICTED BY IDOCK:   -4.17 KCAL/MOL
REMARK 924 INTRA-LIGAND FREE ENERGY PREDICTED BY IDOCK:   -0.13 KCAL/MOL
REMARK 927      BINDING AFFINITY PREDICTED BY RF-SCORE:    0.00 PKD
ROOT
HETATM    1  C   UNL     1     -10.791  17.118  65.217  1.00  0.00    -0.036 C  
HETATM    2  N   UNL     1     -11.551  16.474  64.154  1.00  0.00    -1.413 NA 
HETATM    3  H   UNL     1     -11.287  16.826  63.234  1.00  0.00     0.000 HD 
ENDROOT
BRANCH   2   4
HETATM    4  C   UNL     1     -11.422  15.012  64.235  1.00  0.00    -0.128 C  
BRANCH   4   5
HETATM    5  C   UNL     1     -12.592  14.405  65.018  1.00  0.00    -0.309 C  
BRANCH   5   6
HETATM    6  C   UNL     1     -12.112  13.657  66.238  1.00  0.00    -0.434 A  
HETATM    7  C   UNL     1     -11.600  12.368  66.126  1.00  0.00    -0.452 A  
HETATM    8  C   UNL     1     -11.185  11.706  67.280  1.00  0.00    -0.365 A  
HETATM    9  C   UNL     1     -11.296  12.344  68.509  1.00  0.00    -0.336 A  
HETATM   10  C   UNL     1     -11.821  13.623  68.534  1.00  0.00    -0.371 A  
HETATM   11  N   UNL     1     -12.230  14.288  67.431  1.00  0.00    -0.326 NA 
ENDBRANCH   5   6
ENDBRANCH   4   5
ENDBRANCH   2   4
TORSDOF 3
ENDMDL
MODEL       42
REMARK 921   NORMALIZED FREE ENERGY PREDICTED BY IDOCK:   -3.36 KCAL/MOL
REMARK 922        TOTAL FREE ENERGY PREDICTED BY IDOCK:   -4.29 KCAL/MOL
REMARK 923 INTER-LIGAND FREE ENERGY PREDICTED BY IDOCK:   -4.16 KCAL/MOL
REMARK 924 INTRA-LIGAND FREE ENERGY PREDICTED BY IDOCK:   -0.12 KCAL/MOL
REMARK 927      BINDING AFFINITY PREDICTED BY RF-SCORE:    0.00 PKD
ROOT
HETATM    1  C   UNL     1      -9.240  13.963  66.996  1.00  0.00    -0.250 C  
HETATM    2  N   UNL     1      -9.217  14.842  65.835  1.00  0.00    -0.512 NA 
HETATM    3  H   UNL     1      -9.093  14.320  64.967  1.00  0.00     0.000 HD 
ENDROOT
BRANCH   2   4
HETATM    4  C   UNL     1     -10.423  15.683  65.796  1.00  0.00    -0.366 C  
BRANCH   4   5
HETATM    5  C   UNL     1     -10.743  16.238  67.188  1.00  0.00    -0.247 C  
BRANCH   5   6
HETATM    6  C   UNL     1     -10.413  17.708  67.286  1.00  0.00    -0.338 A  
HETATM    7  C   UNL     1     -10.458  18.524  66.160  1.00  0.00    -0.447 A  
HETATM    8  C   UNL     1     -10.129  19.872  66.291  1.00  0.00    -0.613 A  
HETATM    9  C   UNL     1      -9.761  20.365  67.536  1.00  0.00    -0.571 A  
HETATM   10  C   UNL     1      -9.737  19.487  68.604  1.00  0.00    -0.433 A  
HETATM   11  N   UNL     1     -10.052  18.177  68.505  1.00  0.00    -0.386 NA 
ENDBRANCH   5   6
ENDBRANCH   4   5
ENDBRANCH   2   4
TORSDOF 3
ENDMDL
MODEL       43
REMARK 921   NORMALIZED FREE ENERGY PREDICTED BY IDOCK:   -3.29 KCAL/MOL
REMARK 922        TOTAL FREE ENERGY PREDICTED BY IDOCK:   -4.21 KCAL/MOL
REMARK 923 INTER-LIGAND FREE ENERGY PREDICTED BY IDOCK:   -3.91 KCAL/MOL
REMARK 924 INTRA-LIGAND FREE ENERGY PREDICTED BY IDOCK:   -0.30 KCAL/MOL
REMARK 927      BINDING AFFINITY PREDICTED BY RF-SCORE:    0.00 PKD
ROOT
HETATM    1  C   UNL     1      -5.501  19.287  63.260  1.00  0.00    -0.309 C  
HETATM    2  N   UNL     1      -6.181  19.072  64.530  1.00  0.00    -0.480 NA 
HETATM    3  H   UNL     1      -5.695  18.387  65.109  1.00  0.00     0.000 HD 
ENDROOT
BRANCH   2   4
HETATM    4  C   UNL     1      -6.374  20.346  65.239  1.00  0.00    -0.268 C  
BRANCH   4   5
HETATM    5  C   UNL     1      -6.673  20.103  66.723  1.00  0.00    -0.255 C  
BRANCH   5   6
HETATM    6  C   UNL     1      -8.150  19.912  66.965  1.00  0.00    -0.309 A  
HETATM    7  C   UNL     1      -8.650  19.793  68.259  1.00  0.00    -0.317 A  
HETATM    8  C   UNL     1     -10.018  19.600  68.437  1.00  0.00    -0.543 A  
HETATM    9  C   UNL     1     -10.847  19.527  67.325  1.00  0.00    -0.557 A  
HETATM   10  C   UNL     1     -10.270  19.649  66.074  1.00  0.00    -0.493 A  
HETATM   11  N   UNL     1      -8.948  19.838  65.873  1.00  0.00    -0.379 NA 
ENDBRANCH   5   6
ENDBRANCH   4   5
ENDBRANCH   2   4
TORSDOF 3
ENDMDL
MODEL       44
REMARK 921   NORMALIZED FREE ENERGY PREDICTED BY IDOCK:   -3.28 KCAL/MOL
REMARK 922        TOTAL FREE ENERGY PREDICTED BY IDOCK:   -4.20 KCAL/MOL
REMARK 923 INTER-LIGAND FREE ENERGY PREDICTED BY IDOCK:   -3.95 KCAL/MOL
REMARK 924 INTRA-LIGAND FREE ENERGY PREDICTED BY IDOCK:   -0.25 KCAL/MOL
REMARK 927      BINDING AFFINITY PREDICTED BY RF-SCORE:    0.00 PKD
ROOT
HETATM    1  C   UNL     1     -11.002   6.711  67.125  1.00  0.00    -0.408 C  
HETATM    2  N   UNL     1     -11.505   6.591  68.487  1.00  0.00    -0.547 NA 
HETATM    3  H   UNL     1     -12.271   5.920  68.550  1.00  0.00     0.000 HD 
ENDROOT
BRANCH   2   4
HETATM    4  C   UNL     1     -10.415   6.262  69.417  1.00  0.00    -0.243 C  
BRANCH   4   5
HETATM    5  C   UNL     1     -10.919   6.250  70.864  1.00  0.00    -0.344 C  
BRANCH   5   6
HETATM    6  C   UNL     1     -11.809   7.435  71.150  1.00  0.00    -0.301 A  
HETATM    7  C   UNL     1     -11.278   8.719  71.233  1.00  0.00    -0.352 A  
HETATM    8  C   UNL     1     -12.131   9.784  71.515  1.00  0.00    -0.493 A  
HETATM    9  C   UNL     1     -13.484   9.539  71.711  1.00  0.00    -0.480 A  
HETATM   10  C   UNL     1     -13.930   8.234  71.617  1.00  0.00    -0.396 A  
HETATM   11  N   UNL     1     -13.126   7.184  71.343  1.00  0.00    -0.387 NA 
ENDBRANCH   5   6
ENDBRANCH   4   5
ENDBRANCH   2   4
TORSDOF 3
ENDMDL
MODEL       45
REMARK 921   NORMALIZED FREE ENERGY PREDICTED BY IDOCK:   -3.25 KCAL/MOL
REMARK 922        TOTAL FREE ENERGY PREDICTED BY IDOCK:   -4.17 KCAL/MOL
REMARK 923 INTER-LIGAND FREE ENERGY PREDICTED BY IDOCK:   -4.06 KCAL/MOL
REMARK 924 INTRA-LIGAND FREE ENERGY PREDICTED BY IDOCK:   -0.11 KCAL/MOL
REMARK 927      BINDING AFFINITY PREDICTED BY RF-SCORE:    0.00 PKD
ROOT
HETATM    1  C   UNL     1     -12.742  12.331  63.211  1.00  0.00    -0.232 C  
HETATM    2  N   UNL     1     -12.339  13.722  63.371  1.00  0.00    -1.100 NA 
HETATM    3  H   UNL     1     -13.142  14.352  63.359  1.00  0.00     0.000 HD 
ENDROOT
BRANCH   2   4
HETATM    4  C   UNL     1     -11.532  13.892  64.587  1.00  0.00    -0.377 C  
BRANCH   4   5
HETATM    5  C   UNL     1     -12.304  13.420  65.824  1.00  0.00    -0.513 C  
BRANCH   5   6
HETATM    6  C   UNL     1     -11.411  12.664  66.778  1.00  0.00    -0.320 A  
HETATM    7  C   UNL     1     -10.134  13.129  67.077  1.00  0.00    -0.241 A  
HETATM    8  C   UNL     1      -9.335  12.391  67.948  1.00  0.00    -0.195 A  
HETATM    9  C   UNL     1      -9.828  11.212  68.492  1.00  0.00    -0.199 A  
HETATM   10  C   UNL     1     -11.106  10.817  68.139  1.00  0.00    -0.280 A  
HETATM   11  N   UNL     1     -11.902  11.513  67.299  1.00  0.00    -0.604 NA 
ENDBRANCH   5   6
ENDBRANCH   4   5
ENDBRANCH   2   4
TORSDOF 3
ENDMDL
MODEL       46
REMARK 921   NORMALIZED FREE ENERGY PREDICTED BY IDOCK:   -3.22 KCAL/MOL
REMARK 922        TOTAL FREE ENERGY PREDICTED BY IDOCK:   -4.13 KCAL/MOL
REMARK 923 INTER-LIGAND FREE ENERGY PREDICTED BY IDOCK:   -3.83 KCAL/MOL
REMARK 924 INTRA-LIGAND FREE ENERGY PREDICTED BY IDOCK:   -0.30 KCAL/MOL
REMARK 927      BINDING AFFINITY PREDICTED BY RF-SCORE:    0.00 PKD
ROOT
HETATM    1  C   UNL     1      -8.578  13.467  68.214  1.00  0.00    -0.168 C  
HETATM    2  N   UNL     1      -9.943  13.308  68.697  1.00  0.00    -0.388 NA 
HETATM    3  H   UNL     1     -10.027  13.555  69.684  1.00  0.00     0.000 HD 
ENDROOT
BRANCH   2   4
HETATM    4  C   UNL     1     -10.882  14.074  67.864  1.00  0.00    -0.244 C  
BRANCH   4   5
HETATM    5  C   UNL     1     -12.015  13.176  67.356  1.00  0.00    -0.379 C  
BRANCH   5   6
HETATM    6  C   UNL     1     -11.719  12.641  65.976  1.00  0.00    -0.417 A  
HETATM    7  C   UNL     1     -12.539  12.960  64.898  1.00  0.00    -0.525 A  
HETATM    8  C   UNL     1     -12.240  12.430  63.644  1.00  0.00    -0.653 A  
HETATM    9  C   UNL     1     -11.139  11.595  63.502  1.00  0.00    -0.476 A  
HETATM   10  C   UNL     1     -10.379  11.323  64.625  1.00  0.00    -0.315 A  
HETATM   11  N   UNL     1     -10.645  11.824  65.851  1.00  0.00    -0.262 NA 
ENDBRANCH   5   6
ENDBRANCH   4   5
ENDBRANCH   2   4
TORSDOF 3
ENDMDL
MODEL       47
REMARK 921   NORMALIZED FREE ENERGY PREDICTED BY IDOCK:   -3.22 KCAL/MOL
REMARK 922        TOTAL FREE ENERGY PREDICTED BY IDOCK:   -4.13 KCAL/MOL
REMARK 923 INTER-LIGAND FREE ENERGY PREDICTED BY IDOCK:   -3.85 KCAL/MOL
REMARK 924 INTRA-LIGAND FREE ENERGY PREDICTED BY IDOCK:   -0.28 KCAL/MOL
REMARK 927      BINDING AFFINITY PREDICTED BY RF-SCORE:    0.00 PKD
ROOT
HETATM    1  C   UNL     1     -10.041   8.931  67.336  1.00  0.00    -0.227 C  
HETATM    2  N   UNL     1      -9.794   8.831  65.904  1.00  0.00    -0.460 NA 
HETATM    3  H   UNL     1     -10.642   8.594  65.389  1.00  0.00     0.000 HD 
ENDROOT
BRANCH   2   4
HETATM    4  C   UNL     1      -9.176  10.064  65.396  1.00  0.00    -0.210 C  
BRANCH   4   5
HETATM    5  C   UNL     1      -9.919  10.575  64.156  1.00  0.00    -0.385 C  
BRANCH   5   6
HETATM    6  C   UNL     1     -10.832  11.728  64.495  1.00  0.00    -0.321 A  
HETATM    7  C   UNL     1     -11.304  12.578  63.500  1.00  0.00    -0.556 A  
HETATM    8  C   UNL     1     -12.130  13.641  63.858  1.00  0.00    -0.462 A  
HETATM    9  C   UNL     1     -12.459  13.829  65.194  1.00  0.00    -0.483 A  
HETATM   10  C   UNL     1     -11.944  12.942  66.122  1.00  0.00    -0.429 A  
HETATM   11  N   UNL     1     -11.142  11.903  65.802  1.00  0.00    -0.316 NA 
ENDBRANCH   5   6
ENDBRANCH   4   5
ENDBRANCH   2   4
TORSDOF 3
ENDMDL
MODEL       48
REMARK 921   NORMALIZED FREE ENERGY PREDICTED BY IDOCK:   -3.20 KCAL/MOL
REMARK 922        TOTAL FREE ENERGY PREDICTED BY IDOCK:   -4.11 KCAL/MOL
REMARK 923 INTER-LIGAND FREE ENERGY PREDICTED BY IDOCK:   -4.01 KCAL/MOL
REMARK 924 INTRA-LIGAND FREE ENERGY PREDICTED BY IDOCK:   -0.10 KCAL/MOL
REMARK 927      BINDING AFFINITY PREDICTED BY RF-SCORE:    0.00 PKD
ROOT
HETATM    1  C   UNL     1      -8.681   9.315  63.274  1.00  0.00    -0.176 C  
HETATM    2  N   UNL     1      -9.809  10.012  63.878  1.00  0.00    -0.484 NA 
HETATM    3  H   UNL     1      -9.689  10.124  64.885  1.00  0.00     0.000 HD 
ENDROOT
BRANCH   2   4
HETATM    4  C   UNL     1     -10.042  11.302  63.211  1.00  0.00    -0.386 C  
BRANCH   4   5
HETATM    5  C   UNL     1     -11.419  11.864  63.580  1.00  0.00    -0.523 C  
BRANCH   5   6
HETATM    6  C   UNL     1     -11.316  12.911  64.663  1.00  0.00    -0.323 A  
HETATM    7  C   UNL     1     -12.248  12.960  65.696  1.00  0.00    -0.519 A  
HETATM    8  C   UNL     1     -12.126  13.953  66.665  1.00  0.00    -0.485 A  
HETATM    9  C   UNL     1     -11.086  14.869  66.576  1.00  0.00    -0.341 A  
HETATM   10  C   UNL     1     -10.207  14.755  65.516  1.00  0.00    -0.374 A  
HETATM   11  N   UNL     1     -10.300  13.801  64.563  1.00  0.00    -0.399 NA 
ENDBRANCH   5   6
ENDBRANCH   4   5
ENDBRANCH   2   4
TORSDOF 3
ENDMDL
MODEL       49
REMARK 921   NORMALIZED FREE ENERGY PREDICTED BY IDOCK:   -3.19 KCAL/MOL
REMARK 922        TOTAL FREE ENERGY PREDICTED BY IDOCK:   -4.09 KCAL/MOL
REMARK 923 INTER-LIGAND FREE ENERGY PREDICTED BY IDOCK:   -3.76 KCAL/MOL
REMARK 924 INTRA-LIGAND FREE ENERGY PREDICTED BY IDOCK:   -0.33 KCAL/MOL
REMARK 927      BINDING AFFINITY PREDICTED BY RF-SCORE:    0.00 PKD
ROOT
HETATM    1  C   UNL     1      -8.943  14.761  67.513  1.00  0.00    -0.187 C  
HETATM    2  N   UNL     1     -10.008  15.039  66.559  1.00  0.00    -0.253 NA 
HETATM    3  H   UNL     1      -9.995  14.384  65.777  1.00  0.00     0.000 HD 
ENDROOT
BRANCH   2   4
HETATM    4  C   UNL     1     -11.316  15.060  67.230  1.00  0.00    -0.332 C  
BRANCH   4   5
HETATM    5  C   UNL     1     -11.966  13.672  67.199  1.00  0.00    -0.434 C  
BRANCH   5   6
HETATM    6  C   UNL     1     -11.828  13.028  65.841  1.00  0.00    -0.416 A  
HETATM    7  C   UNL     1     -11.133  11.832  65.688  1.00  0.00    -0.340 A  
HETATM    8  C   UNL     1     -11.014  11.280  64.414  1.00  0.00    -0.331 A  
HETATM    9  C   UNL     1     -11.586  11.936  63.331  1.00  0.00    -0.477 A  
HETATM   10  C   UNL     1     -12.255  13.123  63.568  1.00  0.00    -0.476 A  
HETATM   11  N   UNL     1     -12.387  13.679  64.792  1.00  0.00    -0.515 NA 
ENDBRANCH   5   6
ENDBRANCH   4   5
ENDBRANCH   2   4
TORSDOF 3
ENDMDL
MODEL       50
REMARK 921   NORMALIZED FREE ENERGY PREDICTED BY IDOCK:   -3.19 KCAL/MOL
REMARK 922        TOTAL FREE ENERGY PREDICTED BY IDOCK:   -4.09 KCAL/MOL
REMARK 923 INTER-LIGAND FREE ENERGY PREDICTED BY IDOCK:   -3.77 KCAL/MOL
REMARK 924 INTRA-LIGAND FREE ENERGY PREDICTED BY IDOCK:   -0.32 KCAL/MOL
REMARK 927      BINDING AFFINITY PREDICTED BY RF-SCORE:    0.00 PKD
ROOT
HETATM    1  C   UNL     1      -8.862  17.976  68.474  1.00  0.00    -0.295 C  
HETATM    2  N   UNL     1     -10.209  17.922  67.923  1.00  0.00    -0.352 NA 
HETATM    3  H   UNL     1     -10.789  18.688  68.264  1.00  0.00     0.000 HD 
ENDROOT
BRANCH   2   4
HETATM    4  C   UNL     1     -10.168  17.884  66.453  1.00  0.00    -0.372 C  
BRANCH   4   5
HETATM    5  C   UNL     1      -9.600  16.548  65.959  1.00  0.00    -0.323 C  
BRANCH   5   6
HETATM    6  C   UNL     1     -10.680  15.501  65.836  1.00  0.00    -0.339 A  
HETATM    7  C   UNL     1     -11.163  15.120  64.588  1.00  0.00    -0.352 A  
HETATM    8  C   UNL     1     -12.173  14.162  64.520  1.00  0.00    -0.468 A  
HETATM    9  C   UNL     1     -12.674  13.615  65.694  1.00  0.00    -0.505 A  
HETATM   10  C   UNL     1     -12.143  14.052  66.894  1.00  0.00    -0.430 A  
HETATM   11  N   UNL     1     -11.164  14.978  66.989  1.00  0.00    -0.336 NA 
ENDBRANCH   5   6
ENDBRANCH   4   5
ENDBRANCH   2   4
TORSDOF 3
ENDMDL
MODEL       51
REMARK 921   NORMALIZED FREE ENERGY PREDICTED BY IDOCK:   -3.19 KCAL/MOL
REMARK 922        TOTAL FREE ENERGY PREDICTED BY IDOCK:   -4.09 KCAL/MOL
REMARK 923 INTER-LIGAND FREE ENERGY PREDICTED BY IDOCK:   -3.70 KCAL/MOL
REMARK 924 INTRA-LIGAND FREE ENERGY PREDICTED BY IDOCK:   -0.39 KCAL/MOL
REMARK 927      BINDING AFFINITY PREDICTED BY RF-SCORE:    0.00 PKD
ROOT
HETATM    1  C   UNL     1      -9.522   7.173  73.593  1.00  0.00    -0.224 C  
HETATM    2  N   UNL     1     -10.949   7.436  73.463  1.00  0.00    -0.548 NA 
HETATM    3  H   UNL     1     -11.131   8.394  73.162  1.00  0.00     0.000 HD 
ENDROOT
BRANCH   2   4
HETATM    4  C   UNL     1     -11.579   6.455  72.567  1.00  0.00    -0.222 C  
BRANCH   4   5
HETATM    5  C   UNL     1     -12.767   7.080  71.827  1.00  0.00    -0.378 C  
BRANCH   5   6
HETATM    6  C   UNL     1     -12.469   8.496  71.398  1.00  0.00    -0.297 A  
HETATM    7  C   UNL     1     -13.329   9.537  71.735  1.00  0.00    -0.501 A  
HETATM    8  C   UNL     1     -13.026  10.827  71.304  1.00  0.00    -0.502 A  
HETATM    9  C   UNL     1     -11.880  11.041  70.549  1.00  0.00    -0.464 A  
HETATM   10  C   UNL     1     -11.082   9.952  70.252  1.00  0.00    -0.308 A  
HETATM   11  N   UNL     1     -11.351   8.692  70.658  1.00  0.00    -0.260 NA 
ENDBRANCH   5   6
ENDBRANCH   4   5
ENDBRANCH   2   4
TORSDOF 3
ENDMDL
MODEL       52
REMARK 921   NORMALIZED FREE ENERGY PREDICTED BY IDOCK:   -3.18 KCAL/MOL
REMARK 922        TOTAL FREE ENERGY PREDICTED BY IDOCK:   -4.09 KCAL/MOL
REMARK 923 INTER-LIGAND FREE ENERGY PREDICTED BY IDOCK:   -3.77 KCAL/MOL
REMARK 924 INTRA-LIGAND FREE ENERGY PREDICTED BY IDOCK:   -0.32 KCAL/MOL
REMARK 927      BINDING AFFINITY PREDICTED BY RF-SCORE:    0.00 PKD
ROOT
HETATM    1  C   UNL     1     -11.244  11.602  67.380  1.00  0.00    -0.298 C  
HETATM    2  N   UNL     1     -11.847  10.879  68.492  1.00  0.00    -0.676 NA 
HETATM    3  H   UNL     1     -11.810   9.869  68.351  1.00  0.00     0.000 HD 
ENDROOT
BRANCH   2   4
HETATM    4  C   UNL     1     -11.227  11.273  69.765  1.00  0.00    -0.220 C  
BRANCH   4   5
HETATM    5  C   UNL     1     -12.219  11.122  70.924  1.00  0.00    -0.468 C  
BRANCH   5   6
HETATM    6  C   UNL     1     -12.536   9.671  71.194  1.00  0.00    -0.322 A  
HETATM    7  C   UNL     1     -13.734   9.306  71.801  1.00  0.00    -0.443 A  
HETATM    8  C   UNL     1     -13.979   7.957  72.048  1.00  0.00    -0.361 A  
HETATM    9  C   UNL     1     -13.025   7.013  71.690  1.00  0.00    -0.400 A  
HETATM   10  C   UNL     1     -11.859   7.460  71.096  1.00  0.00    -0.301 A  
HETATM   11  N   UNL     1     -11.596   8.761  70.843  1.00  0.00    -0.282 NA 
ENDBRANCH   5   6
ENDBRANCH   4   5
ENDBRANCH   2   4
TORSDOF 3
ENDMDL
MODEL       53
REMARK 921   NORMALIZED FREE ENERGY PREDICTED BY IDOCK:   -3.18 KCAL/MOL
REMARK 922        TOTAL FREE ENERGY PREDICTED BY IDOCK:   -4.08 KCAL/MOL
REMARK 923 INTER-LIGAND FREE ENERGY PREDICTED BY IDOCK:   -3.84 KCAL/MOL
REMARK 924 INTRA-LIGAND FREE ENERGY PREDICTED BY IDOCK:   -0.23 KCAL/MOL
REMARK 927      BINDING AFFINITY PREDICTED BY RF-SCORE:    0.00 PKD
ROOT
HETATM    1  C   UNL     1     -14.394   7.291  71.647  1.00  0.00    -0.421 C  
HETATM    2  N   UNL     1     -13.060   7.448  71.085  1.00  0.00    -0.574 NA 
HETATM    3  H   UNL     1     -12.910   8.389  70.721  1.00  0.00     0.000 HD 
ENDROOT
BRANCH   2   4
HETATM    4  C   UNL     1     -12.034   7.077  72.071  1.00  0.00    -0.298 C  
BRANCH   4   5
HETATM    5  C   UNL     1     -11.019   8.211  72.252  1.00  0.00    -0.399 C  
BRANCH   5   6
HETATM    6  C   UNL     1     -11.437   9.452  71.503  1.00  0.00    -0.397 A  
HETATM    7  C   UNL     1     -10.751   9.860  70.362  1.00  0.00    -0.379 A  
HETATM    8  C   UNL     1     -11.159  11.021  69.710  1.00  0.00    -0.303 A  
HETATM    9  C   UNL     1     -12.232  11.745  70.214  1.00  0.00    -0.381 A  
HETATM   10  C   UNL     1     -12.856  11.275  71.355  1.00  0.00    -0.410 A  
HETATM   11  N   UNL     1     -12.483  10.152  72.006  1.00  0.00    -0.282 NA 
ENDBRANCH   5   6
ENDBRANCH   4   5
ENDBRANCH   2   4
TORSDOF 3
ENDMDL
MODEL       54
REMARK 921   NORMALIZED FREE ENERGY PREDICTED BY IDOCK:   -3.16 KCAL/MOL
REMARK 922        TOTAL FREE ENERGY PREDICTED BY IDOCK:   -4.06 KCAL/MOL
REMARK 923 INTER-LIGAND FREE ENERGY PREDICTED BY IDOCK:   -3.96 KCAL/MOL
REMARK 924 INTRA-LIGAND FREE ENERGY PREDICTED BY IDOCK:   -0.10 KCAL/MOL
REMARK 927      BINDING AFFINITY PREDICTED BY RF-SCORE:    0.00 PKD
ROOT
HETATM    1  C   UNL     1     -12.438  15.098  73.697  1.00  0.00    -0.564 C  
HETATM    2  N   UNL     1     -13.400  14.203  73.068  1.00  0.00    -0.636 NA 
HETATM    3  H   UNL     1     -14.357  14.541  73.174  1.00  0.00     0.000 HD 
ENDROOT
BRANCH   2   4
HETATM    4  C   UNL     1     -13.055  13.979  71.656  1.00  0.00    -0.359 C  
BRANCH   4   5
HETATM    5  C   UNL     1     -12.884  15.312  70.919  1.00  0.00    -0.511 C  
BRANCH   5   6
HETATM    6  C   UNL     1     -12.085  15.143  69.650  1.00  0.00    -0.304 A  
HETATM    7  C   UNL     1     -11.337  16.198  69.135  1.00  0.00    -0.323 A  
HETATM    8  C   UNL     1     -10.627  16.005  67.952  1.00  0.00    -0.301 A  
HETATM    9  C   UNL     1     -10.686  14.772  67.315  1.00  0.00    -0.294 A  
HETATM   10  C   UNL     1     -11.457  13.778  67.889  1.00  0.00    -0.314 A  
HETATM   11  N   UNL     1     -12.153  13.937  69.036  1.00  0.00    -0.356 NA 
ENDBRANCH   5   6
ENDBRANCH   4   5
ENDBRANCH   2   4
TORSDOF 3
ENDMDL
MODEL       55
REMARK 921   NORMALIZED FREE ENERGY PREDICTED BY IDOCK:   -3.16 KCAL/MOL
REMARK 922        TOTAL FREE ENERGY PREDICTED BY IDOCK:   -4.06 KCAL/MOL
REMARK 923 INTER-LIGAND FREE ENERGY PREDICTED BY IDOCK:   -3.95 KCAL/MOL
REMARK 924 INTRA-LIGAND FREE ENERGY PREDICTED BY IDOCK:   -0.10 KCAL/MOL
REMARK 927      BINDING AFFINITY PREDICTED BY RF-SCORE:    0.00 PKD
ROOT
HETATM    1  C   UNL     1     -11.834  16.085  71.601  1.00  0.00    -0.507 C  
HETATM    2  N   UNL     1     -12.095  15.250  72.766  1.00  0.00    -0.399 NA 
HETATM    3  H   UNL     1     -12.451  15.796  73.551  1.00  0.00     0.000 HD 
ENDROOT
BRANCH   2   4
HETATM    4  C   UNL     1     -12.998  14.142  72.420  1.00  0.00    -0.391 C  
BRANCH   4   5
HETATM    5  C   UNL     1     -12.650  13.568  71.042  1.00  0.00    -0.438 C  
BRANCH   5   6
HETATM    6  C   UNL     1     -12.545  12.062  71.081  1.00  0.00    -0.271 A  
HETATM    7  C   UNL     1     -11.691  11.386  70.216  1.00  0.00    -0.397 A  
HETATM    8  C   UNL     1     -11.638   9.995  70.273  1.00  0.00    -0.354 A  
HETATM    9  C   UNL     1     -12.438   9.319  71.185  1.00  0.00    -0.341 A  
HETATM   10  C   UNL     1     -13.264  10.065  72.006  1.00  0.00    -0.443 A  
HETATM   11  N   UNL     1     -13.334  11.414  71.972  1.00  0.00    -0.413 NA 
ENDBRANCH   5   6
ENDBRANCH   4   5
ENDBRANCH   2   4
TORSDOF 3
ENDMDL
MODEL       56
REMARK 921   NORMALIZED FREE ENERGY PREDICTED BY IDOCK:   -3.14 KCAL/MOL
REMARK 922        TOTAL FREE ENERGY PREDICTED BY IDOCK:   -4.04 KCAL/MOL
REMARK 923 INTER-LIGAND FREE ENERGY PREDICTED BY IDOCK:   -3.75 KCAL/MOL
REMARK 924 INTRA-LIGAND FREE ENERGY PREDICTED BY IDOCK:   -0.29 KCAL/MOL
REMARK 927      BINDING AFFINITY PREDICTED BY RF-SCORE:    0.00 PKD
ROOT
HETATM    1  C   UNL     1     -13.658   6.943  71.688  1.00  0.00    -0.175 C  
HETATM    2  N   UNL     1     -14.150   8.258  71.300  1.00  0.00    -0.626 NA 
HETATM    3  H   UNL     1     -15.165   8.265  71.191  1.00  0.00     0.000 HD 
ENDROOT
BRANCH   2   4
HETATM    4  C   UNL     1     -13.698   9.284  72.251  1.00  0.00    -0.462 C  
BRANCH   4   5
HETATM    5  C   UNL     1     -13.023  10.447  71.517  1.00  0.00    -0.562 C  
BRANCH   5   6
HETATM    6  C   UNL     1     -11.639  10.074  71.045  1.00  0.00    -0.393 A  
HETATM    7  C   UNL     1     -11.087  10.670  69.915  1.00  0.00    -0.364 A  
HETATM    8  C   UNL     1      -9.813  10.284  69.504  1.00  0.00    -0.244 A  
HETATM    9  C   UNL     1      -9.128   9.315  70.226  1.00  0.00    -0.271 A  
HETATM   10  C   UNL     1      -9.749   8.768  71.334  1.00  0.00    -0.280 A  
HETATM   11  N   UNL     1     -10.982   9.125  71.756  1.00  0.00    -0.370 NA 
ENDBRANCH   5   6
ENDBRANCH   4   5
ENDBRANCH   2   4
TORSDOF 3
ENDMDL
MODEL       57
REMARK 921   NORMALIZED FREE ENERGY PREDICTED BY IDOCK:   -3.14 KCAL/MOL
REMARK 922        TOTAL FREE ENERGY PREDICTED BY IDOCK:   -4.03 KCAL/MOL
REMARK 923 INTER-LIGAND FREE ENERGY PREDICTED BY IDOCK:   -3.67 KCAL/MOL
REMARK 924 INTRA-LIGAND FREE ENERGY PREDICTED BY IDOCK:   -0.36 KCAL/MOL
REMARK 927      BINDING AFFINITY PREDICTED BY RF-SCORE:    0.00 PKD
ROOT
HETATM    1  C   UNL     1     -14.066   8.344  71.708  1.00  0.00    -0.438 C  
HETATM    2  N   UNL     1     -13.239   7.443  70.916  1.00  0.00    -0.603 NA 
HETATM    3  H   UNL     1     -12.882   7.899  70.076  1.00  0.00     0.000 HD 
ENDROOT
BRANCH   2   4
HETATM    4  C   UNL     1     -12.154   6.880  71.732  1.00  0.00    -0.346 C  
BRANCH   4   5
HETATM    5  C   UNL     1     -11.145   6.131  70.854  1.00  0.00    -0.371 C  
BRANCH   5   6
HETATM    6  C   UNL     1     -10.934   6.831  69.534  1.00  0.00    -0.279 A  
HETATM    7  C   UNL     1     -11.045   6.136  68.334  1.00  0.00    -0.343 A  
HETATM    8  C   UNL     1     -10.824   6.817  67.139  1.00  0.00    -0.462 A  
HETATM    9  C   UNL     1     -10.497   8.166  67.173  1.00  0.00    -0.396 A  
HETATM   10  C   UNL     1     -10.402   8.782  68.408  1.00  0.00    -0.204 A  
HETATM   11  N   UNL     1     -10.611   8.147  69.581  1.00  0.00    -0.228 NA 
ENDBRANCH   5   6
ENDBRANCH   4   5
ENDBRANCH   2   4
TORSDOF 3
ENDMDL
MODEL       58
REMARK 921   NORMALIZED FREE ENERGY PREDICTED BY IDOCK:   -3.12 KCAL/MOL
REMARK 922        TOTAL FREE ENERGY PREDICTED BY IDOCK:   -4.01 KCAL/MOL
REMARK 923 INTER-LIGAND FREE ENERGY PREDICTED BY IDOCK:   -3.85 KCAL/MOL
REMARK 924 INTRA-LIGAND FREE ENERGY PREDICTED BY IDOCK:   -0.17 KCAL/MOL
REMARK 927      BINDING AFFINITY PREDICTED BY RF-SCORE:    0.00 PKD
ROOT
HETATM    1  C   UNL     1     -11.711  11.776  69.485  1.00  0.00    -0.343 C  
HETATM    2  N   UNL     1     -11.201  13.136  69.596  1.00  0.00    -0.474 NA 
HETATM    3  H   UNL     1     -10.270  13.226  69.189  1.00  0.00     0.000 HD 
ENDROOT
BRANCH   2   4
HETATM    4  C   UNL     1     -12.147  14.096  69.007  1.00  0.00    -0.313 C  
BRANCH   4   5
HETATM    5  C   UNL     1     -11.450  14.975  67.963  1.00  0.00    -0.357 C  
BRANCH   5   6
HETATM    6  C   UNL     1     -11.424  14.309  66.608  1.00  0.00    -0.364 A  
HETATM    7  C   UNL     1     -12.528  13.602  66.141  1.00  0.00    -0.449 A  
HETATM    8  C   UNL     1     -12.456  12.988  64.893  1.00  0.00    -0.512 A  
HETATM    9  C   UNL     1     -11.287  13.090  64.150  1.00  0.00    -0.442 A  
HETATM   10  C   UNL     1     -10.233  13.806  64.688  1.00  0.00    -0.284 A  
HETATM   11  N   UNL     1     -10.277  14.412  65.894  1.00  0.00    -0.310 NA 
ENDBRANCH   5   6
ENDBRANCH   4   5
ENDBRANCH   2   4
TORSDOF 3
ENDMDL
MODEL       59
REMARK 921   NORMALIZED FREE ENERGY PREDICTED BY IDOCK:   -3.11 KCAL/MOL
REMARK 922        TOTAL FREE ENERGY PREDICTED BY IDOCK:   -4.00 KCAL/MOL
REMARK 923 INTER-LIGAND FREE ENERGY PREDICTED BY IDOCK:   -3.87 KCAL/MOL
REMARK 924 INTRA-LIGAND FREE ENERGY PREDICTED BY IDOCK:   -0.14 KCAL/MOL
REMARK 927      BINDING AFFINITY PREDICTED BY RF-SCORE:    0.00 PKD
ROOT
HETATM    1  C   UNL     1      -9.527  14.332  68.061  1.00  0.00    -0.204 C  
HETATM    2  N   UNL     1      -9.584  13.077  68.798  1.00  0.00    -0.412 NA 
HETATM    3  H   UNL     1      -9.430  13.217  69.797  1.00  0.00     0.000 HD 
ENDROOT
BRANCH   2   4
HETATM    4  C   UNL     1     -10.851  12.378  68.537  1.00  0.00    -0.242 C  
BRANCH   4   5
HETATM    5  C   UNL     1     -10.647  11.239  67.532  1.00  0.00    -0.257 C  
BRANCH   5   6
HETATM    6  C   UNL     1     -10.985  11.674  66.127  1.00  0.00    -0.288 A  
HETATM    7  C   UNL     1     -10.207  11.264  65.048  1.00  0.00    -0.339 A  
HETATM    8  C   UNL     1     -10.544  11.704  63.770  1.00  0.00    -0.473 A  
HETATM    9  C   UNL     1     -11.640  12.540  63.603  1.00  0.00    -0.580 A  
HETATM   10  C   UNL     1     -12.357  12.906  64.727  1.00  0.00    -0.459 A  
HETATM   11  N   UNL     1     -12.054  12.493  65.977  1.00  0.00    -0.612 NA 
ENDBRANCH   5   6
ENDBRANCH   4   5
ENDBRANCH   2   4
TORSDOF 3
ENDMDL
MODEL       60
REMARK 921   NORMALIZED FREE ENERGY PREDICTED BY IDOCK:   -3.10 KCAL/MOL
REMARK 922        TOTAL FREE ENERGY PREDICTED BY IDOCK:   -3.98 KCAL/MOL
REMARK 923 INTER-LIGAND FREE ENERGY PREDICTED BY IDOCK:   -3.65 KCAL/MOL
REMARK 924 INTRA-LIGAND FREE ENERGY PREDICTED BY IDOCK:   -0.33 KCAL/MOL
REMARK 927      BINDING AFFINITY PREDICTED BY RF-SCORE:    0.00 PKD
ROOT
HETATM    1  C   UNL     1     -13.489   8.383  71.520  1.00  0.00    -0.286 C  
HETATM    2  N   UNL     1     -13.430   9.694  70.886  1.00  0.00    -0.582 NA 
HETATM    3  H   UNL     1     -14.311  10.200  70.982  1.00  0.00     0.000 HD 
ENDROOT
BRANCH   2   4
HETATM    4  C   UNL     1     -12.296  10.472  71.405  1.00  0.00    -0.372 C  
BRANCH   4   5
HETATM    5  C   UNL     1     -12.210  11.836  70.711  1.00  0.00    -0.424 C  
BRANCH   5   6
HETATM    6  C   UNL     1     -11.738  11.702  69.284  1.00  0.00    -0.331 A  
HETATM    7  C   UNL     1     -11.909  12.744  68.377  1.00  0.00    -0.353 A  
HETATM    8  C   UNL     1     -11.475  12.572  67.064  1.00  0.00    -0.419 A  
HETATM    9  C   UNL     1     -10.889  11.369  66.692  1.00  0.00    -0.339 A  
HETATM   10  C   UNL     1     -10.762  10.382  67.652  1.00  0.00    -0.286 A  
HETATM   11  N   UNL     1     -11.172  10.522  68.932  1.00  0.00    -0.258 NA 
ENDBRANCH   5   6
ENDBRANCH   4   5
ENDBRANCH   2   4
TORSDOF 3
ENDMDL
MODEL       61
REMARK 921   NORMALIZED FREE ENERGY PREDICTED BY IDOCK:   -3.09 KCAL/MOL
REMARK 922        TOTAL FREE ENERGY PREDICTED BY IDOCK:   -3.98 KCAL/MOL
REMARK 923 INTER-LIGAND FREE ENERGY PREDICTED BY IDOCK:   -3.67 KCAL/MOL
REMARK 924 INTRA-LIGAND FREE ENERGY PREDICTED BY IDOCK:   -0.31 KCAL/MOL
REMARK 927      BINDING AFFINITY PREDICTED BY RF-SCORE:    0.00 PKD
ROOT
HETATM    1  C   UNL     1     -10.627   8.737  66.911  1.00  0.00    -0.193 C  
HETATM    2  N   UNL     1     -10.847   9.299  68.237  1.00  0.00    -0.445 NA 
HETATM    3  H   UNL     1     -10.013   9.229  68.821  1.00  0.00     0.000 HD 
ENDROOT
BRANCH   2   4
HETATM    4  C   UNL     1     -11.328  10.685  68.141  1.00  0.00    -0.284 C  
BRANCH   4   5
HETATM    5  C   UNL     1     -11.428  11.324  69.530  1.00  0.00    -0.376 C  
BRANCH   5   6
HETATM    6  C   UNL     1     -11.784  10.304  70.584  1.00  0.00    -0.348 A  
HETATM    7  C   UNL     1     -13.104  10.132  70.991  1.00  0.00    -0.458 A  
HETATM    8  C   UNL     1     -13.387   9.191  71.978  1.00  0.00    -0.507 A  
HETATM    9  C   UNL     1     -12.350   8.454  72.535  1.00  0.00    -0.358 A  
HETATM   10  C   UNL     1     -11.066   8.689  72.079  1.00  0.00    -0.367 A  
HETATM   11  N   UNL     1     -10.764   9.593  71.122  1.00  0.00    -0.331 NA 
ENDBRANCH   5   6
ENDBRANCH   4   5
ENDBRANCH   2   4
TORSDOF 3
ENDMDL
MODEL       62
REMARK 921   NORMALIZED FREE ENERGY PREDICTED BY IDOCK:   -3.09 KCAL/MOL
REMARK 922        TOTAL FREE ENERGY PREDICTED BY IDOCK:   -3.98 KCAL/MOL
REMARK 923 INTER-LIGAND FREE ENERGY PREDICTED BY IDOCK:   -3.66 KCAL/MOL
REMARK 924 INTRA-LIGAND FREE ENERGY PREDICTED BY IDOCK:   -0.31 KCAL/MOL
REMARK 927      BINDING AFFINITY PREDICTED BY RF-SCORE:    0.00 PKD
ROOT
HETATM    1  C   UNL     1     -10.131   7.332  66.962  1.00  0.00    -0.246 C  
HETATM    2  N   UNL     1     -11.008   8.220  67.713  1.00  0.00    -0.491 NA 
HETATM    3  H   UNL     1     -11.298   7.806  68.599  1.00  0.00     0.000 HD 
ENDROOT
BRANCH   2   4
HETATM    4  C   UNL     1     -10.375   9.533  67.908  1.00  0.00    -0.227 C  
BRANCH   4   5
HETATM    5  C   UNL     1      -9.948   9.719  69.368  1.00  0.00    -0.217 C  
BRANCH   5   6
HETATM    6  C   UNL     1     -11.141   9.758  70.292  1.00  0.00    -0.292 A  
HETATM    7  C   UNL     1     -11.816  10.951  70.533  1.00  0.00    -0.457 A  
HETATM    8  C   UNL     1     -12.901  10.946  71.407  1.00  0.00    -0.554 A  
HETATM    9  C   UNL     1     -13.280   9.758  72.017  1.00  0.00    -0.557 A  
HETATM   10  C   UNL     1     -12.553   8.617  71.728  1.00  0.00    -0.349 A  
HETATM   11  N   UNL     1     -11.498   8.593  70.884  1.00  0.00    -0.274 NA 
ENDBRANCH   5   6
ENDBRANCH   4   5
ENDBRANCH   2   4
TORSDOF 3
ENDMDL
MODEL       63
REMARK 921   NORMALIZED FREE ENERGY PREDICTED BY IDOCK:   -3.09 KCAL/MOL
REMARK 922        TOTAL FREE ENERGY PREDICTED BY IDOCK:   -3.97 KCAL/MOL
REMARK 923 INTER-LIGAND FREE ENERGY PREDICTED BY IDOCK:   -3.88 KCAL/MOL
REMARK 924 INTRA-LIGAND FREE ENERGY PREDICTED BY IDOCK:   -0.09 KCAL/MOL
REMARK 927      BINDING AFFINITY PREDICTED BY RF-SCORE:    0.00 PKD
ROOT
HETATM    1  C   UNL     1      -9.551  16.253  65.920  1.00  0.00    -0.301 C  
HETATM    2  N   UNL     1     -10.491  15.388  65.219  1.00  0.00    -0.398 NA 
HETATM    3  H   UNL     1     -10.339  15.402  64.210  1.00  0.00     0.000 HD 
ENDROOT
BRANCH   2   4
HETATM    4  C   UNL     1     -10.441  14.021  65.758  1.00  0.00    -0.309 C  
BRANCH   4   5
HETATM    5  C   UNL     1     -11.849  13.518  66.097  1.00  0.00    -0.426 C  
BRANCH   5   6
HETATM    6  C   UNL     1     -11.917  12.969  67.501  1.00  0.00    -0.306 A  
HETATM    7  C   UNL     1     -12.011  13.823  68.595  1.00  0.00    -0.401 A  
HETATM    8  C   UNL     1     -12.053  13.276  69.876  1.00  0.00    -0.377 A  
HETATM    9  C   UNL     1     -11.995  11.897  70.029  1.00  0.00    -0.409 A  
HETATM   10  C   UNL     1     -11.896  11.118  68.891  1.00  0.00    -0.337 A  
HETATM   11  N   UNL     1     -11.855  11.622  67.638  1.00  0.00    -0.615 NA 
ENDBRANCH   5   6
ENDBRANCH   4   5
ENDBRANCH   2   4
TORSDOF 3
ENDMDL
MODEL       64
REMARK 921   NORMALIZED FREE ENERGY PREDICTED BY IDOCK:   -3.09 KCAL/MOL
REMARK 922        TOTAL FREE ENERGY PREDICTED BY IDOCK:   -3.97 KCAL/MOL
REMARK 923 INTER-LIGAND FREE ENERGY PREDICTED BY IDOCK:   -3.87 KCAL/MOL
REMARK 924 INTRA-LIGAND FREE ENERGY PREDICTED BY IDOCK:   -0.10 KCAL/MOL
REMARK 927      BINDING AFFINITY PREDICTED BY RF-SCORE:    0.00 PKD
ROOT
HETATM    1  C   UNL     1     -12.309  13.585  65.762  1.00  0.00    -0.468 C  
HETATM    2  N   UNL     1     -12.106  12.390  66.568  1.00  0.00    -0.598 NA 
HETATM    3  H   UNL     1     -11.380  11.788  66.177  1.00  0.00     0.000 HD 
ENDROOT
BRANCH   2   4
HETATM    4  C   UNL     1     -11.821  12.747  67.966  1.00  0.00    -0.336 C  
BRANCH   4   5
HETATM    5  C   UNL     1     -10.708  11.863  68.538  1.00  0.00    -0.254 C  
BRANCH   5   6
HETATM    6  C   UNL     1     -11.198  11.046  69.709  1.00  0.00    -0.268 A  
HETATM    7  C   UNL     1     -10.488   9.932  70.147  1.00  0.00    -0.339 A  
HETATM    8  C   UNL     1     -10.984   9.196  71.220  1.00  0.00    -0.400 A  
HETATM    9  C   UNL     1     -12.173   9.587  71.823  1.00  0.00    -0.465 A  
HETATM   10  C   UNL     1     -12.820  10.703  71.324  1.00  0.00    -0.434 A  
HETATM   11  N   UNL     1     -12.360  11.435  70.286  1.00  0.00    -0.311 NA 
ENDBRANCH   5   6
ENDBRANCH   4   5
ENDBRANCH   2   4
TORSDOF 3
ENDMDL
MODEL       65
REMARK 921   NORMALIZED FREE ENERGY PREDICTED BY IDOCK:   -3.05 KCAL/MOL
REMARK 922        TOTAL FREE ENERGY PREDICTED BY IDOCK:   -3.93 KCAL/MOL
REMARK 923 INTER-LIGAND FREE ENERGY PREDICTED BY IDOCK:   -3.83 KCAL/MOL
REMARK 924 INTRA-LIGAND FREE ENERGY PREDICTED BY IDOCK:   -0.10 KCAL/MOL
REMARK 927      BINDING AFFINITY PREDICTED BY RF-SCORE:    0.00 PKD
ROOT
HETATM    1  C   UNL     1      -8.862  17.976  68.475  1.00  0.00    -0.295 C  
HETATM    2  N   UNL     1     -10.211  17.924  67.927  1.00  0.00    -0.352 NA 
HETATM    3  H   UNL     1     -10.788  18.693  68.269  1.00  0.00     0.000 HD 
ENDROOT
BRANCH   2   4
HETATM    4  C   UNL     1     -10.174  17.884  66.457  1.00  0.00    -0.379 C  
BRANCH   4   5
HETATM    5  C   UNL     1      -9.615  16.544  65.964  1.00  0.00    -0.323 C  
BRANCH   5   6
HETATM    6  C   UNL     1     -10.710  15.522  65.781  1.00  0.00    -0.353 A  
HETATM    7  C   UNL     1     -11.074  14.675  66.823  1.00  0.00    -0.335 A  
HETATM    8  C   UNL     1     -12.078  13.734  66.606  1.00  0.00    -0.471 A  
HETATM    9  C   UNL     1     -12.685  13.659  65.359  1.00  0.00    -0.500 A  
HETATM   10  C   UNL     1     -12.261  14.533  64.375  1.00  0.00    -0.458 A  
HETATM   11  N   UNL     1     -11.292  15.456  64.559  1.00  0.00    -0.363 NA 
ENDBRANCH   5   6
ENDBRANCH   4   5
ENDBRANCH   2   4
TORSDOF 3
ENDMDL
MODEL       66
REMARK 921   NORMALIZED FREE ENERGY PREDICTED BY IDOCK:   -3.05 KCAL/MOL
REMARK 922        TOTAL FREE ENERGY PREDICTED BY IDOCK:   -3.93 KCAL/MOL
REMARK 923 INTER-LIGAND FREE ENERGY PREDICTED BY IDOCK:   -3.68 KCAL/MOL
REMARK 924 INTRA-LIGAND FREE ENERGY PREDICTED BY IDOCK:   -0.24 KCAL/MOL
REMARK 927      BINDING AFFINITY PREDICTED BY RF-SCORE:    0.00 PKD
ROOT
HETATM    1  C   UNL     1      -8.272  12.948  67.545  1.00  0.00    -0.184 C  
HETATM    2  N   UNL     1      -9.203  13.059  68.660  1.00  0.00    -0.396 NA 
HETATM    3  H   UNL     1      -8.984  13.855  69.258  1.00  0.00     0.000 HD 
ENDROOT
BRANCH   2   4
HETATM    4  C   UNL     1     -10.591  13.109  68.175  1.00  0.00    -0.245 C  
BRANCH   4   5
HETATM    5  C   UNL     1     -11.463  13.957  69.108  1.00  0.00    -0.345 C  
BRANCH   5   6
HETATM    6  C   UNL     1     -12.143  13.107  70.153  1.00  0.00    -0.321 A  
HETATM    7  C   UNL     1     -12.834  13.695  71.209  1.00  0.00    -0.424 A  
HETATM    8  C   UNL     1     -13.433  12.874  72.162  1.00  0.00    -0.619 A  
HETATM    9  C   UNL     1     -13.323  11.495  72.040  1.00  0.00    -0.397 A  
HETATM   10  C   UNL     1     -12.614  10.991  70.964  1.00  0.00    -0.411 A  
HETATM   11  N   UNL     1     -12.025  11.764  70.025  1.00  0.00    -0.341 NA 
ENDBRANCH   5   6
ENDBRANCH   4   5
ENDBRANCH   2   4
TORSDOF 3
ENDMDL
MODEL       67
REMARK 921   NORMALIZED FREE ENERGY PREDICTED BY IDOCK:   -3.03 KCAL/MOL
REMARK 922        TOTAL FREE ENERGY PREDICTED BY IDOCK:   -3.91 KCAL/MOL
REMARK 923 INTER-LIGAND FREE ENERGY PREDICTED BY IDOCK:   -3.84 KCAL/MOL
REMARK 924 INTRA-LIGAND FREE ENERGY PREDICTED BY IDOCK:   -0.06 KCAL/MOL
REMARK 927      BINDING AFFINITY PREDICTED BY RF-SCORE:    0.00 PKD
ROOT
HETATM    1  C   UNL     1     -11.240  10.270  69.730  1.00  0.00    -0.282 C  
HETATM    2  N   UNL     1     -11.339  11.723  69.726  1.00  0.00    -0.462 NA 
HETATM    3  H   UNL     1     -10.567  12.156  70.233  1.00  0.00     0.000 HD 
ENDROOT
BRANCH   2   4
HETATM    4  C   UNL     1     -11.442  12.234  68.351  1.00  0.00    -0.307 C  
BRANCH   4   5
HETATM    5  C   UNL     1     -11.960  13.676  68.344  1.00  0.00    -0.391 C  
BRANCH   5   6
HETATM    6  C   UNL     1     -11.664  14.363  67.033  1.00  0.00    -0.399 A  
HETATM    7  C   UNL     1     -10.723  15.385  66.962  1.00  0.00    -0.321 A  
HETATM    8  C   UNL     1     -10.493  16.005  65.735  1.00  0.00    -0.391 A  
HETATM    9  C   UNL     1     -11.208  15.593  64.619  1.00  0.00    -0.380 A  
HETATM   10  C   UNL     1     -12.130  14.574  64.775  1.00  0.00    -0.445 A  
HETATM   11  N   UNL     1     -12.371  13.955  65.952  1.00  0.00    -0.466 NA 
ENDBRANCH   5   6
ENDBRANCH   4   5
ENDBRANCH   2   4
TORSDOF 3
ENDMDL
MODEL       68
REMARK 921   NORMALIZED FREE ENERGY PREDICTED BY IDOCK:   -3.01 KCAL/MOL
REMARK 922        TOTAL FREE ENERGY PREDICTED BY IDOCK:   -3.88 KCAL/MOL
REMARK 923 INTER-LIGAND FREE ENERGY PREDICTED BY IDOCK:   -3.76 KCAL/MOL
REMARK 924 INTRA-LIGAND FREE ENERGY PREDICTED BY IDOCK:   -0.12 KCAL/MOL
REMARK 927      BINDING AFFINITY PREDICTED BY RF-SCORE:    0.00 PKD
ROOT
HETATM    1  C   UNL     1     -12.289   9.757  71.431  1.00  0.00    -0.388 C  
HETATM    2  N   UNL     1     -12.025   9.276  70.082  1.00  0.00    -0.454 NA 
HETATM    3  H   UNL     1     -12.887   9.053  69.584  1.00  0.00     0.000 HD 
ENDROOT
BRANCH   2   4
HETATM    4  C   UNL     1     -11.202  10.241  69.338  1.00  0.00    -0.239 C  
BRANCH   4   5
HETATM    5  C   UNL     1     -11.622  11.679  69.664  1.00  0.00    -0.401 C  
BRANCH   5   6
HETATM    6  C   UNL     1     -11.749  12.514  68.414  1.00  0.00    -0.328 A  
HETATM    7  C   UNL     1     -11.534  13.889  68.451  1.00  0.00    -0.346 A  
HETATM    8  C   UNL     1     -11.680  14.625  67.277  1.00  0.00    -0.406 A  
HETATM    9  C   UNL     1     -12.039  13.974  66.104  1.00  0.00    -0.471 A  
HETATM   10  C   UNL     1     -12.240  12.607  66.153  1.00  0.00    -0.209 A  
HETATM   11  N   UNL     1     -12.104  11.869  67.276  1.00  0.00    -0.522 NA 
ENDBRANCH   5   6
ENDBRANCH   4   5
ENDBRANCH   2   4
TORSDOF 3
ENDMDL
MODEL       69
REMARK 921   NORMALIZED FREE ENERGY PREDICTED BY IDOCK:   -3.00 KCAL/MOL
REMARK 922        TOTAL FREE ENERGY PREDICTED BY IDOCK:   -3.87 KCAL/MOL
REMARK 923 INTER-LIGAND FREE ENERGY PREDICTED BY IDOCK:   -3.77 KCAL/MOL
REMARK 924 INTRA-LIGAND FREE ENERGY PREDICTED BY IDOCK:   -0.11 KCAL/MOL
REMARK 927      BINDING AFFINITY PREDICTED BY RF-SCORE:    0.00 PKD
ROOT
HETATM    1  C   UNL     1     -11.222   6.159  72.437  1.00  0.00    -0.287 C  
HETATM    2  N   UNL     1     -12.659   6.262  72.218  1.00  0.00    -0.516 NA 
HETATM    3  H   UNL     1     -13.186   6.066  73.068  1.00  0.00     0.000 HD 
ENDROOT
BRANCH   2   4
HETATM    4  C   UNL     1     -13.006   7.574  71.653  1.00  0.00    -0.358 C  
BRANCH   4   5
HETATM    5  C   UNL     1     -11.742   8.372  71.314  1.00  0.00    -0.325 C  
BRANCH   5   6
HETATM    6  C   UNL     1     -12.045   9.840  71.138  1.00  0.00    -0.370 A  
HETATM    7  C   UNL     1     -11.413  10.584  70.146  1.00  0.00    -0.405 A  
HETATM    8  C   UNL     1     -11.709  11.941  70.030  1.00  0.00    -0.366 A  
HETATM    9  C   UNL     1     -12.621  12.517  70.905  1.00  0.00    -0.331 A  
HETATM   10  C   UNL     1     -13.201  11.710  71.866  1.00  0.00    -0.369 A  
HETATM   11  N   UNL     1     -12.933  10.392  72.001  1.00  0.00    -0.440 NA 
ENDBRANCH   5   6
ENDBRANCH   4   5
ENDBRANCH   2   4
TORSDOF 3
ENDMDL
MODEL       70
REMARK 921   NORMALIZED FREE ENERGY PREDICTED BY IDOCK:   -2.99 KCAL/MOL
REMARK 922        TOTAL FREE ENERGY PREDICTED BY IDOCK:   -3.86 KCAL/MOL
REMARK 923 INTER-LIGAND FREE ENERGY PREDICTED BY IDOCK:   -3.77 KCAL/MOL
REMARK 924 INTRA-LIGAND FREE ENERGY PREDICTED BY IDOCK:   -0.09 KCAL/MOL
REMARK 927      BINDING AFFINITY PREDICTED BY RF-SCORE:    0.00 PKD
ROOT
HETATM    1  C   UNL     1      -9.875   8.275  66.807  1.00  0.00    -0.263 C  
HETATM    2  N   UNL     1     -10.904   8.704  67.744  1.00  0.00    -0.495 NA 
HETATM    3  H   UNL     1     -11.215   7.937  68.341  1.00  0.00     0.000 HD 
ENDROOT
BRANCH   2   4
HETATM    4  C   UNL     1     -10.442   9.855  68.534  1.00  0.00    -0.205 C  
BRANCH   4   5
HETATM    5  C   UNL     1     -11.384  11.051  68.355  1.00  0.00    -0.363 C  
BRANCH   5   6
HETATM    6  C   UNL     1     -12.017  11.455  69.664  1.00  0.00    -0.348 A  
HETATM    7  C   UNL     1     -12.509  10.496  70.544  1.00  0.00    -0.433 A  
HETATM    8  C   UNL     1     -13.102  10.913  71.734  1.00  0.00    -0.564 A  
HETATM    9  C   UNL     1     -13.192  12.271  72.011  1.00  0.00    -0.508 A  
HETATM   10  C   UNL     1     -12.684  13.160  71.081  1.00  0.00    -0.300 A  
HETATM   11  N   UNL     1     -12.103  12.783  69.921  1.00  0.00    -0.292 NA 
ENDBRANCH   5   6
ENDBRANCH   4   5
ENDBRANCH   2   4
TORSDOF 3
ENDMDL
MODEL       71
REMARK 921   NORMALIZED FREE ENERGY PREDICTED BY IDOCK:   -2.99 KCAL/MOL
REMARK 922        TOTAL FREE ENERGY PREDICTED BY IDOCK:   -3.86 KCAL/MOL
REMARK 923 INTER-LIGAND FREE ENERGY PREDICTED BY IDOCK:   -3.77 KCAL/MOL
REMARK 924 INTRA-LIGAND FREE ENERGY PREDICTED BY IDOCK:   -0.09 KCAL/MOL
REMARK 927      BINDING AFFINITY PREDICTED BY RF-SCORE:    0.00 PKD
ROOT
HETATM    1  C   UNL     1     -11.252   6.523  69.792  1.00  0.00    -0.395 C  
HETATM    2  N   UNL     1     -11.916   7.667  70.402  1.00  0.00    -0.491 NA 
HETATM    3  H   UNL     1     -12.104   7.512  71.393  1.00  0.00     0.000 HD 
ENDROOT
BRANCH   2   4
HETATM    4  C   UNL     1     -11.140   8.897  70.183  1.00  0.00    -0.201 C  
BRANCH   4   5
HETATM    5  C   UNL     1     -11.796  10.088  70.889  1.00  0.00    -0.459 C  
BRANCH   5   6
HETATM    6  C   UNL     1     -11.838  11.305  69.997  1.00  0.00    -0.367 A  
HETATM    7  C   UNL     1     -11.619  11.191  68.628  1.00  0.00    -0.383 A  
HETATM    8  C   UNL     1     -11.650  12.342  67.843  1.00  0.00    -0.415 A  
HETATM    9  C   UNL     1     -11.893  13.570  68.444  1.00  0.00    -0.408 A  
HETATM   10  C   UNL     1     -12.095  13.598  69.812  1.00  0.00    -0.334 A  
HETATM   11  N   UNL     1     -12.072  12.498  70.596  1.00  0.00    -0.313 NA 
ENDBRANCH   5   6
ENDBRANCH   4   5
ENDBRANCH   2   4
TORSDOF 3
ENDMDL
MODEL       72
REMARK 921   NORMALIZED FREE ENERGY PREDICTED BY IDOCK:   -2.96 KCAL/MOL
REMARK 922        TOTAL FREE ENERGY PREDICTED BY IDOCK:   -3.82 KCAL/MOL
REMARK 923 INTER-LIGAND FREE ENERGY PREDICTED BY IDOCK:   -3.60 KCAL/MOL
REMARK 924 INTRA-LIGAND FREE ENERGY PREDICTED BY IDOCK:   -0.22 KCAL/MOL
REMARK 927      BINDING AFFINITY PREDICTED BY RF-SCORE:    0.00 PKD
ROOT
HETATM    1  C   UNL     1     -10.400   5.641  74.326  1.00  0.00    -0.272 C  
HETATM    2  N   UNL     1     -10.449   7.083  74.127  1.00  0.00    -0.494 NA 
HETATM    3  H   UNL     1     -10.266   7.591  74.993  1.00  0.00     0.000 HD 
ENDROOT
BRANCH   2   4
HETATM    4  C   UNL     1      -9.533   7.491  73.052  1.00  0.00    -0.203 C  
BRANCH   4   5
HETATM    5  C   UNL     1     -10.138   8.632  72.226  1.00  0.00    -0.363 C  
BRANCH   5   6
HETATM    6  C   UNL     1     -11.603   8.397  71.949  1.00  0.00    -0.329 A  
HETATM    7  C   UNL     1     -12.505   9.456  71.948  1.00  0.00    -0.468 A  
HETATM    8  C   UNL     1     -13.852   9.193  71.706  1.00  0.00    -0.425 A  
HETATM    9  C   UNL     1     -14.261   7.886  71.476  1.00  0.00    -0.527 A  
HETATM   10  C   UNL     1     -13.301   6.890  71.500  1.00  0.00    -0.221 A  
HETATM   11  N   UNL     1     -11.990   7.117  71.731  1.00  0.00    -0.297 NA 
ENDBRANCH   5   6
ENDBRANCH   4   5
ENDBRANCH   2   4
TORSDOF 3
ENDMDL
MODEL       73
REMARK 921   NORMALIZED FREE ENERGY PREDICTED BY IDOCK:   -2.95 KCAL/MOL
REMARK 922        TOTAL FREE ENERGY PREDICTED BY IDOCK:   -3.81 KCAL/MOL
REMARK 923 INTER-LIGAND FREE ENERGY PREDICTED BY IDOCK:   -3.50 KCAL/MOL
REMARK 924 INTRA-LIGAND FREE ENERGY PREDICTED BY IDOCK:   -0.30 KCAL/MOL
REMARK 927      BINDING AFFINITY PREDICTED BY RF-SCORE:    0.00 PKD
ROOT
HETATM    1  C   UNL     1      -6.183  19.472  65.137  1.00  0.00    -0.264 C  
HETATM    2  N   UNL     1      -7.374  18.792  65.627  1.00  0.00    -0.505 NA 
HETATM    3  H   UNL     1      -7.174  18.222  66.449  1.00  0.00     0.000 HD 
ENDROOT
BRANCH   2   4
HETATM    4  C   UNL     1      -8.455  19.756  65.882  1.00  0.00    -0.167 C  
BRANCH   4   5
HETATM    5  C   UNL     1      -9.216  19.394  67.162  1.00  0.00    -0.375 C  
BRANCH   5   6
HETATM    6  C   UNL     1      -9.819  18.013  67.074  1.00  0.00    -0.318 A  
HETATM    7  C   UNL     1     -10.175  17.317  68.226  1.00  0.00    -0.348 A  
HETATM    8  C   UNL     1     -10.713  16.038  68.101  1.00  0.00    -0.311 A  
HETATM    9  C   UNL     1     -10.876  15.488  66.836  1.00  0.00    -0.301 A  
HETATM   10  C   UNL     1     -10.492  16.243  65.743  1.00  0.00    -0.364 A  
HETATM   11  N   UNL     1      -9.970  17.485  65.835  1.00  0.00    -0.551 NA 
ENDBRANCH   5   6
ENDBRANCH   4   5
ENDBRANCH   2   4
TORSDOF 3
ENDMDL
MODEL       74
REMARK 921   NORMALIZED FREE ENERGY PREDICTED BY IDOCK:   -2.94 KCAL/MOL
REMARK 922        TOTAL FREE ENERGY PREDICTED BY IDOCK:   -3.80 KCAL/MOL
REMARK 923 INTER-LIGAND FREE ENERGY PREDICTED BY IDOCK:   -3.45 KCAL/MOL
REMARK 924 INTRA-LIGAND FREE ENERGY PREDICTED BY IDOCK:   -0.35 KCAL/MOL
REMARK 927      BINDING AFFINITY PREDICTED BY RF-SCORE:    0.00 PKD
ROOT
HETATM    1  C   UNL     1     -11.974  12.739  69.263  1.00  0.00    -0.246 C  
HETATM    2  N   UNL     1     -11.788  12.466  70.682  1.00  0.00    -0.472 NA 
HETATM    3  H   UNL     1     -11.602  13.319  71.210  1.00  0.00     0.000 HD 
ENDROOT
BRANCH   2   4
HETATM    4  C   UNL     1     -12.939  11.730  71.225  1.00  0.00    -0.254 C  
BRANCH   4   5
HETATM    5  C   UNL     1     -12.959  10.290  70.702  1.00  0.00    -0.338 C  
BRANCH   5   6
HETATM    6  C   UNL     1     -11.794   9.492  71.235  1.00  0.00    -0.373 A  
HETATM    7  C   UNL     1     -11.952   8.645  72.328  1.00  0.00    -0.438 A  
HETATM    8  C   UNL     1     -10.846   7.940  72.799  1.00  0.00    -0.451 A  
HETATM    9  C   UNL     1      -9.618   8.101  72.172  1.00  0.00    -0.308 A  
HETATM   10  C   UNL     1      -9.544   8.966  71.096  1.00  0.00    -0.272 A  
HETATM   11  N   UNL     1     -10.600   9.660  70.617  1.00  0.00    -0.299 NA 
ENDBRANCH   5   6
ENDBRANCH   4   5
ENDBRANCH   2   4
TORSDOF 3
ENDMDL
MODEL       75
REMARK 921   NORMALIZED FREE ENERGY PREDICTED BY IDOCK:   -2.93 KCAL/MOL
REMARK 922        TOTAL FREE ENERGY PREDICTED BY IDOCK:   -3.79 KCAL/MOL
REMARK 923 INTER-LIGAND FREE ENERGY PREDICTED BY IDOCK:   -3.46 KCAL/MOL
REMARK 924 INTRA-LIGAND FREE ENERGY PREDICTED BY IDOCK:   -0.33 KCAL/MOL
REMARK 927      BINDING AFFINITY PREDICTED BY RF-SCORE:    0.00 PKD
ROOT
HETATM    1  C   UNL     1      -7.714  11.764  67.653  1.00  0.00    -0.137 C  
HETATM    2  N   UNL     1      -7.916  12.875  66.732  1.00  0.00    -0.396 NA 
HETATM    3  H   UNL     1      -8.528  12.618  65.957  1.00  0.00     0.000 HD 
ENDROOT
BRANCH   2   4
HETATM    4  C   UNL     1      -8.414  14.059  67.448  1.00  0.00    -0.200 C  
BRANCH   4   5
HETATM    5  C   UNL     1      -9.271  14.933  66.525  1.00  0.00    -0.314 C  
BRANCH   5   6
HETATM    6  C   UNL     1     -10.410  14.147  65.922  1.00  0.00    -0.316 A  
HETATM    7  C   UNL     1     -11.009  14.560  64.736  1.00  0.00    -0.404 A  
HETATM    8  C   UNL     1     -12.070  13.816  64.223  1.00  0.00    -0.481 A  
HETATM    9  C   UNL     1     -12.505  12.688  64.907  1.00  0.00    -0.564 A  
HETATM   10  C   UNL     1     -11.860  12.350  66.082  1.00  0.00    -0.376 A  
HETATM   11  N   UNL     1     -10.829  13.052  66.601  1.00  0.00    -0.273 NA 
ENDBRANCH   5   6
ENDBRANCH   4   5
ENDBRANCH   2   4
TORSDOF 3
ENDMDL
MODEL       76
REMARK 921   NORMALIZED FREE ENERGY PREDICTED BY IDOCK:   -2.93 KCAL/MOL
REMARK 922        TOTAL FREE ENERGY PREDICTED BY IDOCK:   -3.78 KCAL/MOL
REMARK 923 INTER-LIGAND FREE ENERGY PREDICTED BY IDOCK:   -3.70 KCAL/MOL
REMARK 924 INTRA-LIGAND FREE ENERGY PREDICTED BY IDOCK:   -0.08 KCAL/MOL
REMARK 927      BINDING AFFINITY PREDICTED BY RF-SCORE:    0.00 PKD
ROOT
HETATM    1  C   UNL     1     -10.191  11.286  66.254  1.00  0.00    -0.236 C  
HETATM    2  N   UNL     1     -11.567  11.762  66.249  1.00  0.00    -0.460 NA 
HETATM    3  H   UNL     1     -12.233  10.994  66.167  1.00  0.00     0.000 HD 
ENDROOT
BRANCH   2   4
HETATM    4  C   UNL     1     -11.836  12.592  67.433  1.00  0.00    -0.312 C  
BRANCH   4   5
HETATM    5  C   UNL     1     -11.159  12.001  68.675  1.00  0.00    -0.298 C  
BRANCH   5   6
HETATM    6  C   UNL     1     -12.010  12.184  69.908  1.00  0.00    -0.309 A  
HETATM    7  C   UNL     1     -12.461  11.084  70.632  1.00  0.00    -0.465 A  
HETATM    8  C   UNL     1     -13.259  11.298  71.754  1.00  0.00    -0.480 A  
HETATM    9  C   UNL     1     -13.588  12.596  72.119  1.00  0.00    -0.510 A  
HETATM   10  C   UNL     1     -13.104  13.634  71.344  1.00  0.00    -0.319 A  
HETATM   11  N   UNL     1     -12.327  13.456  70.253  1.00  0.00    -0.312 NA 
ENDBRANCH   5   6
ENDBRANCH   4   5
ENDBRANCH   2   4
TORSDOF 3
ENDMDL
MODEL       77
REMARK 921   NORMALIZED FREE ENERGY PREDICTED BY IDOCK:   -2.92 KCAL/MOL
REMARK 922        TOTAL FREE ENERGY PREDICTED BY IDOCK:   -3.78 KCAL/MOL
REMARK 923 INTER-LIGAND FREE ENERGY PREDICTED BY IDOCK:   -3.46 KCAL/MOL
REMARK 924 INTRA-LIGAND FREE ENERGY PREDICTED BY IDOCK:   -0.32 KCAL/MOL
REMARK 927      BINDING AFFINITY PREDICTED BY RF-SCORE:    0.00 PKD
ROOT
HETATM    1  C   UNL     1     -10.392   8.101  66.857  1.00  0.00    -0.331 C  
HETATM    2  N   UNL     1     -10.594   9.488  66.462  1.00  0.00    -0.126 NA 
HETATM    3  H   UNL     1     -11.384   9.589  65.825  1.00  0.00     0.000 HD 
ENDROOT
BRANCH   2   4
HETATM    4  C   UNL     1     -10.735  10.350  67.645  1.00  0.00    -0.286 C  
BRANCH   4   5
HETATM    5  C   UNL     1     -10.014  11.686  67.434  1.00  0.00    -0.200 C  
BRANCH   5   6
HETATM    6  C   UNL     1     -10.704  12.528  66.388  1.00  0.00    -0.249 A  
HETATM    7  C   UNL     1     -10.031  13.569  65.756  1.00  0.00    -0.266 A  
HETATM    8  C   UNL     1     -10.711  14.333  64.809  1.00  0.00    -0.435 A  
HETATM    9  C   UNL     1     -12.038  14.042  64.524  1.00  0.00    -0.484 A  
HETATM   10  C   UNL     1     -12.635  12.994  65.201  1.00  0.00    -0.469 A  
HETATM   11  N   UNL     1     -12.000  12.237  66.122  1.00  0.00    -0.618 NA 
ENDBRANCH   5   6
ENDBRANCH   4   5
ENDBRANCH   2   4
TORSDOF 3
ENDMDL
MODEL       78
REMARK 921   NORMALIZED FREE ENERGY PREDICTED BY IDOCK:   -2.91 KCAL/MOL
REMARK 922        TOTAL FREE ENERGY PREDICTED BY IDOCK:   -3.76 KCAL/MOL
REMARK 923 INTER-LIGAND FREE ENERGY PREDICTED BY IDOCK:   -3.47 KCAL/MOL
REMARK 924 INTRA-LIGAND FREE ENERGY PREDICTED BY IDOCK:   -0.29 KCAL/MOL
REMARK 927      BINDING AFFINITY PREDICTED BY RF-SCORE:    0.00 PKD
ROOT
HETATM    1  C   UNL     1      -8.455  14.952  69.002  1.00  0.00    -0.178 C  
HETATM    2  N   UNL     1      -8.413  15.912  67.907  1.00  0.00    -0.160 NA 
HETATM    3  H   UNL     1      -7.467  16.257  67.743  1.00  0.00     0.000 HD 
ENDROOT
BRANCH   2   4
HETATM    4  C   UNL     1      -9.001  15.336  66.689  1.00  0.00    -0.291 C  
BRANCH   4   5
HETATM    5  C   UNL     1      -9.882  16.364  65.972  1.00  0.00    -0.362 C  
BRANCH   5   6
HETATM    6  C   UNL     1      -9.509  17.776  66.356  1.00  0.00    -0.264 A  
HETATM    7  C   UNL     1     -10.402  18.582  67.056  1.00  0.00    -0.433 A  
HETATM    8  C   UNL     1     -10.024  19.885  67.375  1.00  0.00    -0.558 A  
HETATM    9  C   UNL     1      -8.774  20.347  66.985  1.00  0.00    -0.385 A  
HETATM   10  C   UNL     1      -7.949  19.484  66.288  1.00  0.00    -0.321 A  
HETATM   11  N   UNL     1      -8.289  18.216  65.967  1.00  0.00    -0.514 NA 
ENDBRANCH   5   6
ENDBRANCH   4   5
ENDBRANCH   2   4
TORSDOF 3
ENDMDL
MODEL       79
REMARK 921   NORMALIZED FREE ENERGY PREDICTED BY IDOCK:   -2.90 KCAL/MOL
REMARK 922        TOTAL FREE ENERGY PREDICTED BY IDOCK:   -3.75 KCAL/MOL
REMARK 923 INTER-LIGAND FREE ENERGY PREDICTED BY IDOCK:   -3.67 KCAL/MOL
REMARK 924 INTRA-LIGAND FREE ENERGY PREDICTED BY IDOCK:   -0.08 KCAL/MOL
REMARK 927      BINDING AFFINITY PREDICTED BY RF-SCORE:    0.00 PKD
ROOT
HETATM    1  C   UNL     1     -10.243   4.720  66.031  1.00  0.00    -0.278 C  
HETATM    2  N   UNL     1     -11.284   5.723  66.205  1.00  0.00    -0.734 NA 
HETATM    3  H   UNL     1     -12.191   5.298  66.397  1.00  0.00     0.000 HD 
ENDROOT
BRANCH   2   4
HETATM    4  C   UNL     1     -10.905   6.690  67.246  1.00  0.00    -0.385 C  
BRANCH   4   5
HETATM    5  C   UNL     1     -10.839   6.013  68.620  1.00  0.00    -0.379 C  
BRANCH   5   6
HETATM    6  C   UNL     1     -11.021   7.011  69.737  1.00  0.00    -0.250 A  
HETATM    7  C   UNL     1     -11.634   6.640  70.930  1.00  0.00    -0.416 A  
HETATM    8  C   UNL     1     -11.799   7.596  71.929  1.00  0.00    -0.332 A  
HETATM    9  C   UNL     1     -11.354   8.894  71.711  1.00  0.00    -0.431 A  
HETATM   10  C   UNL     1     -10.760   9.182  70.496  1.00  0.00    -0.238 A  
HETATM   11  N   UNL     1     -10.586   8.274  69.511  1.00  0.00    -0.227 NA 
ENDBRANCH   5   6
ENDBRANCH   4   5
ENDBRANCH   2   4
TORSDOF 3
ENDMDL
MODEL       80
REMARK 921   NORMALIZED FREE ENERGY PREDICTED BY IDOCK:   -2.89 KCAL/MOL
REMARK 922        TOTAL FREE ENERGY PREDICTED BY IDOCK:   -3.74 KCAL/MOL
REMARK 923 INTER-LIGAND FREE ENERGY PREDICTED BY IDOCK:   -3.47 KCAL/MOL
REMARK 924 INTRA-LIGAND FREE ENERGY PREDICTED BY IDOCK:   -0.27 KCAL/MOL
REMARK 927      BINDING AFFINITY PREDICTED BY RF-SCORE:    0.00 PKD
ROOT
HETATM    1  C   UNL     1     -10.710  14.987  64.782  1.00  0.00    -0.330 C  
HETATM    2  N   UNL     1      -9.928  13.783  64.536  1.00  0.00    -0.694 NA 
HETATM    3  H   UNL     1      -9.527  13.411  65.397  1.00  0.00     0.000 HD 
ENDROOT
BRANCH   2   4
HETATM    4  C   UNL     1     -10.734  12.775  63.831  1.00  0.00    -0.409 C  
BRANCH   4   5
HETATM    5  C   UNL     1     -11.778  12.160  64.769  1.00  0.00    -0.390 C  
BRANCH   5   6
HETATM    6  C   UNL     1     -11.192  11.857  66.126  1.00  0.00    -0.333 A  
HETATM    7  C   UNL     1     -11.768  12.377  67.282  1.00  0.00    -0.419 A  
HETATM    8  C   UNL     1     -11.185  12.087  68.513  1.00  0.00    -0.306 A  
HETATM    9  C   UNL     1     -10.045  11.295  68.559  1.00  0.00    -0.210 A  
HETATM   10  C   UNL     1      -9.532  10.823  67.364  1.00  0.00    -0.154 A  
HETATM   11  N   UNL     1     -10.078  11.086  66.157  1.00  0.00    -0.229 NA 
ENDBRANCH   5   6
ENDBRANCH   4   5
ENDBRANCH   2   4
TORSDOF 3
ENDMDL
MODEL       81
REMARK 921   NORMALIZED FREE ENERGY PREDICTED BY IDOCK:   -2.89 KCAL/MOL
REMARK 922        TOTAL FREE ENERGY PREDICTED BY IDOCK:   -3.74 KCAL/MOL
REMARK 923 INTER-LIGAND FREE ENERGY PREDICTED BY IDOCK:   -3.44 KCAL/MOL
REMARK 924 INTRA-LIGAND FREE ENERGY PREDICTED BY IDOCK:   -0.30 KCAL/MOL
REMARK 927      BINDING AFFINITY PREDICTED BY RF-SCORE:    0.00 PKD
ROOT
HETATM    1  C   UNL     1      -9.631   7.473  66.600  1.00  0.00    -0.200 C  
HETATM    2  N   UNL     1     -10.070   8.695  65.938  1.00  0.00    -0.378 NA 
HETATM    3  H   UNL     1     -10.521   9.337  66.590  1.00  0.00     0.000 HD 
ENDROOT
BRANCH   2   4
HETATM    4  C   UNL     1      -8.950   9.335  65.232  1.00  0.00    -0.213 C  
BRANCH   4   5
HETATM    5  C   UNL     1      -8.911  10.839  65.524  1.00  0.00    -0.203 C  
BRANCH   5   6
HETATM    6  C   UNL     1     -10.218  11.505  65.168  1.00  0.00    -0.274 A  
HETATM    7  C   UNL     1     -10.892  12.292  66.098  1.00  0.00    -0.314 A  
HETATM    8  C   UNL     1     -12.104  12.873  65.734  1.00  0.00    -0.513 A  
HETATM    9  C   UNL     1     -12.612  12.652  64.461  1.00  0.00    -0.491 A  
HETATM   10  C   UNL     1     -11.883  11.853  63.599  1.00  0.00    -0.473 A  
HETATM   11  N   UNL     1     -10.705  11.278  63.924  1.00  0.00    -0.382 NA 
ENDBRANCH   5   6
ENDBRANCH   4   5
ENDBRANCH   2   4
TORSDOF 3
ENDMDL
MODEL       82
REMARK 921   NORMALIZED FREE ENERGY PREDICTED BY IDOCK:   -2.88 KCAL/MOL
REMARK 922        TOTAL FREE ENERGY PREDICTED BY IDOCK:   -3.73 KCAL/MOL
REMARK 923 INTER-LIGAND FREE ENERGY PREDICTED BY IDOCK:   -3.44 KCAL/MOL
REMARK 924 INTRA-LIGAND FREE ENERGY PREDICTED BY IDOCK:   -0.29 KCAL/MOL
REMARK 927      BINDING AFFINITY PREDICTED BY RF-SCORE:    0.00 PKD
ROOT
HETATM    1  C   UNL     1      -9.780   9.594  65.930  1.00  0.00    -0.275 C  
HETATM    2  N   UNL     1      -9.847  10.724  66.848  1.00  0.00    -0.182 NA 
HETATM    3  H   UNL     1      -9.914  11.612  66.351  1.00  0.00     0.000 HD 
ENDROOT
BRANCH   2   4
HETATM    4  C   UNL     1     -10.951  10.551  67.805  1.00  0.00    -0.313 C  
BRANCH   4   5
HETATM    5  C   UNL     1     -11.764  11.844  67.935  1.00  0.00    -0.368 C  
BRANCH   5   6
HETATM    6  C   UNL     1     -11.455  12.807  66.816  1.00  0.00    -0.343 A  
HETATM    7  C   UNL     1     -12.273  12.878  65.692  1.00  0.00    -0.519 A  
HETATM    8  C   UNL     1     -11.941  13.769  64.673  1.00  0.00    -0.445 A  
HETATM    9  C   UNL     1     -10.805  14.558  64.800  1.00  0.00    -0.410 A  
HETATM   10  C   UNL     1     -10.043  14.422  65.946  1.00  0.00    -0.325 A  
HETATM   11  N   UNL     1     -10.342  13.569  66.949  1.00  0.00    -0.263 NA 
ENDBRANCH   5   6
ENDBRANCH   4   5
ENDBRANCH   2   4
TORSDOF 3
ENDMDL
MODEL       83
REMARK 921   NORMALIZED FREE ENERGY PREDICTED BY IDOCK:   -2.88 KCAL/MOL
REMARK 922        TOTAL FREE ENERGY PREDICTED BY IDOCK:   -3.73 KCAL/MOL
REMARK 923 INTER-LIGAND FREE ENERGY PREDICTED BY IDOCK:   -3.59 KCAL/MOL
REMARK 924 INTRA-LIGAND FREE ENERGY PREDICTED BY IDOCK:   -0.14 KCAL/MOL
REMARK 927      BINDING AFFINITY PREDICTED BY RF-SCORE:    0.00 PKD
ROOT
HETATM    1  C   UNL     1     -11.332   6.218  70.128  1.00  0.00    -0.406 C  
HETATM    2  N   UNL     1     -12.519   6.981  70.486  1.00  0.00    -0.615 NA 
HETATM    3  H   UNL     1     -13.210   6.404  70.966  1.00  0.00     0.000 HD 
ENDROOT
BRANCH   2   4
HETATM    4  C   UNL     1     -12.157   8.166  71.278  1.00  0.00    -0.288 C  
BRANCH   4   5
HETATM    5  C   UNL     1     -10.868   8.802  70.745  1.00  0.00    -0.282 C  
BRANCH   5   6
HETATM    6  C   UNL     1     -11.161  10.003  69.878  1.00  0.00    -0.288 A  
HETATM    7  C   UNL     1     -11.708  11.159  70.426  1.00  0.00    -0.415 A  
HETATM    8  C   UNL     1     -11.979  12.238  69.587  1.00  0.00    -0.347 A  
HETATM    9  C   UNL     1     -11.704  12.133  68.230  1.00  0.00    -0.401 A  
HETATM   10  C   UNL     1     -11.166  10.947  67.765  1.00  0.00    -0.317 A  
HETATM   11  N   UNL     1     -10.891   9.887  68.556  1.00  0.00    -0.231 NA 
ENDBRANCH   5   6
ENDBRANCH   4   5
ENDBRANCH   2   4
TORSDOF 3
ENDMDL
MODEL       84
REMARK 921   NORMALIZED FREE ENERGY PREDICTED BY IDOCK:   -2.86 KCAL/MOL
REMARK 922        TOTAL FREE ENERGY PREDICTED BY IDOCK:   -3.71 KCAL/MOL
REMARK 923 INTER-LIGAND FREE ENERGY PREDICTED BY IDOCK:   -3.45 KCAL/MOL
REMARK 924 INTRA-LIGAND FREE ENERGY PREDICTED BY IDOCK:   -0.26 KCAL/MOL
REMARK 927      BINDING AFFINITY PREDICTED BY RF-SCORE:    0.00 PKD
ROOT
HETATM    1  C   UNL     1     -11.834  15.925  72.006  1.00  0.00    -0.515 C  
HETATM    2  N   UNL     1     -11.256  14.802  71.280  1.00  0.00    -0.546 NA 
HETATM    3  H   UNL     1     -10.907  14.081  71.912  1.00  0.00     0.000 HD 
ENDROOT
BRANCH   2   4
HETATM    4  C   UNL     1     -12.221  14.257  70.313  1.00  0.00    -0.342 C  
BRANCH   4   5
HETATM    5  C   UNL     1     -11.688  14.386  68.881  1.00  0.00    -0.357 C  
BRANCH   5   6
HETATM    6  C   UNL     1     -10.665  15.490  68.770  1.00  0.00    -0.249 A  
HETATM    7  C   UNL     1     -11.030  16.756  68.322  1.00  0.00    -0.327 A  
HETATM    8  C   UNL     1     -10.051  17.741  68.217  1.00  0.00    -0.371 A  
HETATM    9  C   UNL     1      -8.738  17.437  68.555  1.00  0.00    -0.277 A  
HETATM   10  C   UNL     1      -8.458  16.154  68.986  1.00  0.00    -0.251 A  
HETATM   11  N   UNL     1      -9.387  15.180  69.099  1.00  0.00    -0.215 NA 
ENDBRANCH   5   6
ENDBRANCH   4   5
ENDBRANCH   2   4
TORSDOF 3
ENDMDL
MODEL       85
REMARK 921   NORMALIZED FREE ENERGY PREDICTED BY IDOCK:   -2.84 KCAL/MOL
REMARK 922        TOTAL FREE ENERGY PREDICTED BY IDOCK:   -3.68 KCAL/MOL
REMARK 923 INTER-LIGAND FREE ENERGY PREDICTED BY IDOCK:   -3.32 KCAL/MOL
REMARK 924 INTRA-LIGAND FREE ENERGY PREDICTED BY IDOCK:   -0.37 KCAL/MOL
REMARK 927      BINDING AFFINITY PREDICTED BY RF-SCORE:    0.00 PKD
ROOT
HETATM    1  C   UNL     1      -5.965  17.009  69.643  1.00  0.00    -0.227 C  
HETATM    2  N   UNL     1      -7.221  16.811  68.933  1.00  0.00    -0.214 NA 
HETATM    3  H   UNL     1      -7.800  17.652  68.945  1.00  0.00     0.000 HD 
ENDROOT
BRANCH   2   4
HETATM    4  C   UNL     1      -6.975  16.340  67.562  1.00  0.00    -0.156 C  
BRANCH   4   5
HETATM    5  C   UNL     1      -8.210  16.558  66.681  1.00  0.00    -0.306 C  
BRANCH   5   6
HETATM    6  C   UNL     1      -8.808  17.927  66.897  1.00  0.00    -0.253 A  
HETATM    7  C   UNL     1     -10.188  18.106  66.911  1.00  0.00    -0.380 A  
HETATM    8  C   UNL     1     -10.698  19.390  67.095  1.00  0.00    -0.593 A  
HETATM    9  C   UNL     1      -9.822  20.455  67.255  1.00  0.00    -0.597 A  
HETATM   10  C   UNL     1      -8.465  20.193  67.223  1.00  0.00    -0.342 A  
HETATM   11  N   UNL     1      -7.943  18.959  67.048  1.00  0.00    -0.248 NA 
ENDBRANCH   5   6
ENDBRANCH   4   5
ENDBRANCH   2   4
TORSDOF 3
ENDMDL
MODEL       86
REMARK 921   NORMALIZED FREE ENERGY PREDICTED BY IDOCK:   -2.84 KCAL/MOL
REMARK 922        TOTAL FREE ENERGY PREDICTED BY IDOCK:   -3.68 KCAL/MOL
REMARK 923 INTER-LIGAND FREE ENERGY PREDICTED BY IDOCK:   -3.43 KCAL/MOL
REMARK 924 INTRA-LIGAND FREE ENERGY PREDICTED BY IDOCK:   -0.25 KCAL/MOL
REMARK 927      BINDING AFFINITY PREDICTED BY RF-SCORE:    0.00 PKD
ROOT
HETATM    1  C   UNL     1     -12.401   9.933  71.598  1.00  0.00    -0.406 C  
HETATM    2  N   UNL     1     -12.109  10.021  70.174  1.00  0.00    -0.467 NA 
HETATM    3  H   UNL     1     -12.946   9.884  69.607  1.00  0.00     0.000 HD 
ENDROOT
BRANCH   2   4
HETATM    4  C   UNL     1     -11.439  11.292  69.858  1.00  0.00    -0.293 C  
BRANCH   4   5
HETATM    5  C   UNL     1     -11.831  11.780  68.459  1.00  0.00    -0.365 C  
BRANCH   5   6
HETATM    6  C   UNL     1     -11.084  11.030  67.382  1.00  0.00    -0.305 A  
HETATM    7  C   UNL     1     -10.824  11.624  66.151  1.00  0.00    -0.343 A  
HETATM    8  C   UNL     1     -10.147  10.890  65.179  1.00  0.00    -0.352 A  
HETATM    9  C   UNL     1      -9.754   9.588  65.459  1.00  0.00    -0.344 A  
HETATM   10  C   UNL     1     -10.055   9.070  66.705  1.00  0.00    -0.274 A  
HETATM   11  N   UNL     1     -10.709   9.759  67.666  1.00  0.00    -0.277 NA 
ENDBRANCH   5   6
ENDBRANCH   4   5
ENDBRANCH   2   4
TORSDOF 3
ENDMDL
MODEL       87
REMARK 921   NORMALIZED FREE ENERGY PREDICTED BY IDOCK:   -2.83 KCAL/MOL
REMARK 922        TOTAL FREE ENERGY PREDICTED BY IDOCK:   -3.68 KCAL/MOL
REMARK 923 INTER-LIGAND FREE ENERGY PREDICTED BY IDOCK:   -3.59 KCAL/MOL
REMARK 924 INTRA-LIGAND FREE ENERGY PREDICTED BY IDOCK:   -0.09 KCAL/MOL
REMARK 927      BINDING AFFINITY PREDICTED BY RF-SCORE:    0.00 PKD
ROOT
HETATM    1  C   UNL     1      -9.962   4.943  69.471  1.00  0.00    -0.225 C  
HETATM    2  N   UNL     1     -10.534   5.458  70.708  1.00  0.00    -0.255 NA 
HETATM    3  H   UNL     1      -9.815   5.809  71.340  1.00  0.00     0.000 HD 
ENDROOT
BRANCH   2   4
HETATM    4  C   UNL     1     -11.552   6.480  70.423  1.00  0.00    -0.407 C  
BRANCH   4   5
HETATM    5  C   UNL     1     -11.838   7.326  71.669  1.00  0.00    -0.330 C  
BRANCH   5   6
HETATM    6  C   UNL     1     -12.029   8.781  71.317  1.00  0.00    -0.301 A  
HETATM    7  C   UNL     1     -11.252   9.383  70.331  1.00  0.00    -0.309 A  
HETATM    8  C   UNL     1     -11.448  10.733  70.049  1.00  0.00    -0.412 A  
HETATM    9  C   UNL     1     -12.407  11.445  70.759  1.00  0.00    -0.483 A  
HETATM   10  C   UNL     1     -13.133  10.774  71.726  1.00  0.00    -0.468 A  
HETATM   11  N   UNL     1     -12.964   9.466  72.018  1.00  0.00    -0.397 NA 
ENDBRANCH   5   6
ENDBRANCH   4   5
ENDBRANCH   2   4
TORSDOF 3
ENDMDL
MODEL       88
REMARK 921   NORMALIZED FREE ENERGY PREDICTED BY IDOCK:   -2.83 KCAL/MOL
REMARK 922        TOTAL FREE ENERGY PREDICTED BY IDOCK:   -3.67 KCAL/MOL
REMARK 923 INTER-LIGAND FREE ENERGY PREDICTED BY IDOCK:   -3.37 KCAL/MOL
REMARK 924 INTRA-LIGAND FREE ENERGY PREDICTED BY IDOCK:   -0.30 KCAL/MOL
REMARK 927      BINDING AFFINITY PREDICTED BY RF-SCORE:    0.00 PKD
ROOT
HETATM    1  C   UNL     1     -10.841   9.559  68.254  1.00  0.00    -0.145 C  
HETATM    2  N   UNL     1     -11.765  10.604  67.835  1.00  0.00    -0.724 NA 
HETATM    3  H   UNL     1     -12.109  11.146  68.628  1.00  0.00     0.000 HD 
ENDROOT
BRANCH   2   4
HETATM    4  C   UNL     1     -11.149  11.465  66.814  1.00  0.00    -0.281 C  
BRANCH   4   5
HETATM    5  C   UNL     1     -12.024  12.692  66.535  1.00  0.00    -0.401 C  
BRANCH   5   6
HETATM    6  C   UNL     1     -11.632  13.860  67.407  1.00  0.00    -0.368 A  
HETATM    7  C   UNL     1     -11.247  15.072  66.842  1.00  0.00    -0.323 A  
HETATM    8  C   UNL     1     -10.876  16.119  67.683  1.00  0.00    -0.297 A  
HETATM    9  C   UNL     1     -10.894  15.928  69.058  1.00  0.00    -0.266 A  
HETATM   10  C   UNL     1     -11.284  14.691  69.539  1.00  0.00    -0.269 A  
HETATM   11  N   UNL     1     -11.650  13.660  68.747  1.00  0.00    -0.299 NA 
ENDBRANCH   5   6
ENDBRANCH   4   5
ENDBRANCH   2   4
TORSDOF 3
ENDMDL
MODEL       89
REMARK 921   NORMALIZED FREE ENERGY PREDICTED BY IDOCK:   -2.81 KCAL/MOL
REMARK 922        TOTAL FREE ENERGY PREDICTED BY IDOCK:   -3.64 KCAL/MOL
REMARK 923 INTER-LIGAND FREE ENERGY PREDICTED BY IDOCK:   -3.53 KCAL/MOL
REMARK 924 INTRA-LIGAND FREE ENERGY PREDICTED BY IDOCK:   -0.11 KCAL/MOL
REMARK 927      BINDING AFFINITY PREDICTED BY RF-SCORE:    0.00 PKD
ROOT
HETATM    1  C   UNL     1     -12.914  15.506  71.135  1.00  0.00    -0.496 C  
HETATM    2  N   UNL     1     -12.630  15.033  69.787  1.00  0.00    -0.589 NA 
HETATM    3  H   UNL     1     -13.227  15.484  69.093  1.00  0.00     0.000 HD 
ENDROOT
BRANCH   2   4
HETATM    4  C   UNL     1     -11.204  15.199  69.467  1.00  0.00    -0.273 C  
BRANCH   4   5
HETATM    5  C   UNL     1     -11.021  15.627  68.007  1.00  0.00    -0.318 C  
BRANCH   5   6
HETATM    6  C   UNL     1     -10.164  16.866  67.897  1.00  0.00    -0.308 A  
HETATM    7  C   UNL     1      -9.057  16.893  67.055  1.00  0.00    -0.240 A  
HETATM    8  C   UNL     1      -8.283  18.050  66.997  1.00  0.00    -0.240 A  
HETATM    9  C   UNL     1      -8.631  19.142  67.781  1.00  0.00    -0.335 A  
HETATM   10  C   UNL     1      -9.743  19.032  68.596  1.00  0.00    -0.410 A  
HETATM   11  N   UNL     1     -10.511  17.923  68.670  1.00  0.00    -0.322 NA 
ENDBRANCH   5   6
ENDBRANCH   4   5
ENDBRANCH   2   4
TORSDOF 3
ENDMDL
MODEL       90
REMARK 921   NORMALIZED FREE ENERGY PREDICTED BY IDOCK:   -2.80 KCAL/MOL
REMARK 922        TOTAL FREE ENERGY PREDICTED BY IDOCK:   -3.64 KCAL/MOL
REMARK 923 INTER-LIGAND FREE ENERGY PREDICTED BY IDOCK:   -3.58 KCAL/MOL
REMARK 924 INTRA-LIGAND FREE ENERGY PREDICTED BY IDOCK:   -0.06 KCAL/MOL
REMARK 927      BINDING AFFINITY PREDICTED BY RF-SCORE:    0.00 PKD
ROOT
HETATM    1  C   UNL     1     -10.520  19.373  65.959  1.00  0.00    -0.505 C  
HETATM    2  N   UNL     1      -9.684  18.180  65.989  1.00  0.00    -0.527 NA 
HETATM    3  H   UNL     1      -9.084  18.159  66.814  1.00  0.00     0.000 HD 
ENDROOT
BRANCH   2   4
HETATM    4  C   UNL     1     -10.506  16.966  65.883  1.00  0.00    -0.285 C  
BRANCH   4   5
HETATM    5  C   UNL     1      -9.632  15.709  65.954  1.00  0.00    -0.385 C  
BRANCH   5   6
HETATM    6  C   UNL     1     -10.414  14.519  66.455  1.00  0.00    -0.295 A  
HETATM    7  C   UNL     1     -10.174  13.990  67.719  1.00  0.00    -0.240 A  
HETATM    8  C   UNL     1     -10.906  12.880  68.135  1.00  0.00    -0.257 A  
HETATM    9  C   UNL     1     -11.851  12.328  67.281  1.00  0.00    -0.330 A  
HETATM   10  C   UNL     1     -12.025  12.910  66.039  1.00  0.00    -0.446 A  
HETATM   11  N   UNL     1     -11.331  13.986  65.611  1.00  0.00    -0.309 NA 
ENDBRANCH   5   6
ENDBRANCH   4   5
ENDBRANCH   2   4
TORSDOF 3
ENDMDL
MODEL       91
REMARK 921   NORMALIZED FREE ENERGY PREDICTED BY IDOCK:   -2.80 KCAL/MOL
REMARK 922        TOTAL FREE ENERGY PREDICTED BY IDOCK:   -3.64 KCAL/MOL
REMARK 923 INTER-LIGAND FREE ENERGY PREDICTED BY IDOCK:   -3.28 KCAL/MOL
REMARK 924 INTRA-LIGAND FREE ENERGY PREDICTED BY IDOCK:   -0.35 KCAL/MOL
REMARK 927      BINDING AFFINITY PREDICTED BY RF-SCORE:    0.00 PKD
ROOT
HETATM    1  C   UNL     1     -10.256   9.334  66.641  1.00  0.00    -0.253 C  
HETATM    2  N   UNL     1     -11.035   8.491  67.539  1.00  0.00    -0.466 NA 
HETATM    3  H   UNL     1     -12.028   8.510  67.310  1.00  0.00     0.000 HD 
ENDROOT
BRANCH   2   4
HETATM    4  C   UNL     1     -10.506   7.119  67.553  1.00  0.00    -0.260 C  
BRANCH   4   5
HETATM    5  C   UNL     1     -11.114   6.313  68.707  1.00  0.00    -0.424 C  
BRANCH   5   6
HETATM    6  C   UNL     1     -11.097   7.096  69.997  1.00  0.00    -0.258 A  
HETATM    7  C   UNL     1     -12.154   7.006  70.898  1.00  0.00    -0.403 A  
HETATM    8  C   UNL     1     -12.107   7.759  72.069  1.00  0.00    -0.351 A  
HETATM    9  C   UNL     1     -11.014   8.583  72.306  1.00  0.00    -0.426 A  
HETATM   10  C   UNL     1     -10.009   8.620  71.358  1.00  0.00    -0.254 A  
HETATM   11  N   UNL     1     -10.028   7.899  70.215  1.00  0.00    -0.188 NA 
ENDBRANCH   5   6
ENDBRANCH   4   5
ENDBRANCH   2   4
TORSDOF 3
ENDMDL
MODEL       92
REMARK 921   NORMALIZED FREE ENERGY PREDICTED BY IDOCK:   -2.80 KCAL/MOL
REMARK 922        TOTAL FREE ENERGY PREDICTED BY IDOCK:   -3.63 KCAL/MOL
REMARK 923 INTER-LIGAND FREE ENERGY PREDICTED BY IDOCK:   -3.31 KCAL/MOL
REMARK 924 INTRA-LIGAND FREE ENERGY PREDICTED BY IDOCK:   -0.32 KCAL/MOL
REMARK 927      BINDING AFFINITY PREDICTED BY RF-SCORE:    0.00 PKD
ROOT
HETATM    1  C   UNL     1      -6.451  19.156  65.224  1.00  0.00    -0.270 C  
HETATM    2  N   UNL     1      -7.803  18.930  65.717  1.00  0.00    -0.463 NA 
HETATM    3  H   UNL     1      -8.395  18.490  65.012  1.00  0.00     0.000 HD 
ENDROOT
BRANCH   2   4
HETATM    4  C   UNL     1      -7.779  18.156  66.967  1.00  0.00    -0.220 C  
BRANCH   4   5
HETATM    5  C   UNL     1      -7.491  16.677  66.685  1.00  0.00    -0.311 C  
BRANCH   5   6
HETATM    6  C   UNL     1      -8.746  15.934  66.298  1.00  0.00    -0.337 A  
HETATM    7  C   UNL     1      -9.020  14.676  66.828  1.00  0.00    -0.283 A  
HETATM    8  C   UNL     1     -10.181  14.017  66.431  1.00  0.00    -0.293 A  
HETATM    9  C   UNL     1     -11.032  14.625  65.517  1.00  0.00    -0.344 A  
HETATM   10  C   UNL     1     -10.685  15.873  65.035  1.00  0.00    -0.404 A  
HETATM   11  N   UNL     1      -9.566  16.536  65.404  1.00  0.00    -0.391 NA 
ENDBRANCH   5   6
ENDBRANCH   4   5
ENDBRANCH   2   4
TORSDOF 3
ENDMDL
MODEL       93
REMARK 921   NORMALIZED FREE ENERGY PREDICTED BY IDOCK:   -2.77 KCAL/MOL
REMARK 922        TOTAL FREE ENERGY PREDICTED BY IDOCK:   -3.61 KCAL/MOL
REMARK 923 INTER-LIGAND FREE ENERGY PREDICTED BY IDOCK:   -3.47 KCAL/MOL
REMARK 924 INTRA-LIGAND FREE ENERGY PREDICTED BY IDOCK:   -0.14 KCAL/MOL
REMARK 927      BINDING AFFINITY PREDICTED BY RF-SCORE:    0.00 PKD
ROOT
HETATM    1  C   UNL     1      -7.995   6.576  71.889  1.00  0.00    -0.103 C  
HETATM    2  N   UNL     1      -8.519   6.630  73.247  1.00  0.00    -0.119 NA 
HETATM    3  H   UNL     1      -7.771   6.629  73.941  1.00  0.00     0.000 HD 
ENDROOT
BRANCH   2   4
HETATM    4  C   UNL     1      -9.414   7.784  73.414  1.00  0.00    -0.287 C  
BRANCH   4   5
HETATM    5  C   UNL     1     -10.850   7.420  73.019  1.00  0.00    -0.423 C  
BRANCH   5   6
HETATM    6  C   UNL     1     -11.513   8.540  72.255  1.00  0.00    -0.375 A  
HETATM    7  C   UNL     1     -10.810   9.260  71.293  1.00  0.00    -0.417 A  
HETATM    8  C   UNL     1     -11.455  10.298  70.623  1.00  0.00    -0.435 A  
HETATM    9  C   UNL     1     -12.776  10.591  70.933  1.00  0.00    -0.495 A  
HETATM   10  C   UNL     1     -13.402   9.832  71.905  1.00  0.00    -0.436 A  
HETATM   11  N   UNL     1     -12.801   8.820  72.568  1.00  0.00    -0.375 NA 
ENDBRANCH   5   6
ENDBRANCH   4   5
ENDBRANCH   2   4
TORSDOF 3
ENDMDL
MODEL       94
REMARK 921   NORMALIZED FREE ENERGY PREDICTED BY IDOCK:   -2.77 KCAL/MOL
REMARK 922        TOTAL FREE ENERGY PREDICTED BY IDOCK:   -3.60 KCAL/MOL
REMARK 923 INTER-LIGAND FREE ENERGY PREDICTED BY IDOCK:   -3.49 KCAL/MOL
REMARK 924 INTRA-LIGAND FREE ENERGY PREDICTED BY IDOCK:   -0.11 KCAL/MOL
REMARK 927      BINDING AFFINITY PREDICTED BY RF-SCORE:    0.00 PKD
ROOT
HETATM    1  C   UNL     1     -12.767  14.127  65.772  1.00  0.00    -0.413 C  
HETATM    2  N   UNL     1     -12.973  13.192  64.675  1.00  0.00    -0.713 NA 
HETATM    3  H   UNL     1     -13.830  13.395  64.160  1.00  0.00     0.000 HD 
ENDROOT
BRANCH   2   4
HETATM    4  C   UNL     1     -11.800  13.163  63.788  1.00  0.00    -0.486 C  
BRANCH   4   5
HETATM    5  C   UNL     1     -11.574  11.753  63.231  1.00  0.00    -0.325 C  
BRANCH   5   6
HETATM    6  C   UNL     1     -10.319  11.131  63.796  1.00  0.00    -0.386 A  
HETATM    7  C   UNL     1     -10.171  10.948  65.167  1.00  0.00    -0.360 A  
HETATM    8  C   UNL     1      -8.990  10.386  65.648  1.00  0.00    -0.198 A  
HETATM    9  C   UNL     1      -7.991  10.029  64.752  1.00  0.00    -0.144 A  
HETATM   10  C   UNL     1      -8.215  10.250  63.405  1.00  0.00    -0.164 A  
HETATM   11  N   UNL     1      -9.350  10.791  62.912  1.00  0.00    -0.302 NA 
ENDBRANCH   5   6
ENDBRANCH   4   5
ENDBRANCH   2   4
TORSDOF 3
ENDMDL
MODEL       95
REMARK 921   NORMALIZED FREE ENERGY PREDICTED BY IDOCK:   -2.76 KCAL/MOL
REMARK 922        TOTAL FREE ENERGY PREDICTED BY IDOCK:   -3.59 KCAL/MOL
REMARK 923 INTER-LIGAND FREE ENERGY PREDICTED BY IDOCK:   -3.49 KCAL/MOL
REMARK 924 INTRA-LIGAND FREE ENERGY PREDICTED BY IDOCK:   -0.10 KCAL/MOL
REMARK 927      BINDING AFFINITY PREDICTED BY RF-SCORE:    0.00 PKD
ROOT
HETATM    1  C   UNL     1      -9.687   4.642  68.926  1.00  0.00    -0.166 C  
HETATM    2  N   UNL     1     -10.298   5.104  70.165  1.00  0.00    -0.282 NA 
HETATM    3  H   UNL     1      -9.601   5.450  70.824  1.00  0.00     0.000 HD 
ENDROOT
BRANCH   2   4
HETATM    4  C   UNL     1     -11.333   6.112  69.889  1.00  0.00    -0.384 C  
BRANCH   4   5
HETATM    5  C   UNL     1     -11.789   6.792  71.185  1.00  0.00    -0.410 C  
BRANCH   5   6
HETATM    6  C   UNL     1     -11.885   8.289  71.018  1.00  0.00    -0.255 A  
HETATM    7  C   UNL     1     -12.872   9.017  71.678  1.00  0.00    -0.419 A  
HETATM    8  C   UNL     1     -12.936  10.394  71.482  1.00  0.00    -0.562 A  
HETATM    9  C   UNL     1     -12.022  11.007  70.635  1.00  0.00    -0.464 A  
HETATM   10  C   UNL     1     -11.077  10.211  70.013  1.00  0.00    -0.308 A  
HETATM   11  N   UNL     1     -10.990   8.874  70.186  1.00  0.00    -0.238 NA 
ENDBRANCH   5   6
ENDBRANCH   4   5
ENDBRANCH   2   4
TORSDOF 3
ENDMDL
MODEL       96
REMARK 921   NORMALIZED FREE ENERGY PREDICTED BY IDOCK:   -2.75 KCAL/MOL
REMARK 922        TOTAL FREE ENERGY PREDICTED BY IDOCK:   -3.58 KCAL/MOL
REMARK 923 INTER-LIGAND FREE ENERGY PREDICTED BY IDOCK:   -3.30 KCAL/MOL
REMARK 924 INTRA-LIGAND FREE ENERGY PREDICTED BY IDOCK:   -0.28 KCAL/MOL
REMARK 927      BINDING AFFINITY PREDICTED BY RF-SCORE:    0.00 PKD
ROOT
HETATM    1  C   UNL     1      -7.935  13.829  67.371  1.00  0.00    -0.162 C  
HETATM    2  N   UNL     1      -8.912  13.696  66.298  1.00  0.00    -0.464 NA 
HETATM    3  H   UNL     1      -8.608  13.027  65.590  1.00  0.00     0.000 HD 
ENDROOT
BRANCH   2   4
HETATM    4  C   UNL     1     -10.235  13.353  66.839  1.00  0.00    -0.252 C  
BRANCH   4   5
HETATM    5  C   UNL     1     -11.292  14.360  66.372  1.00  0.00    -0.351 C  
BRANCH   5   6
HETATM    6  C   UNL     1     -10.900  15.775  66.723  1.00  0.00    -0.254 A  
HETATM    7  C   UNL     1     -10.894  16.204  68.047  1.00  0.00    -0.333 A  
HETATM    8  C   UNL     1     -10.543  17.523  68.326  1.00  0.00    -0.354 A  
HETATM    9  C   UNL     1     -10.214  18.377  67.281  1.00  0.00    -0.396 A  
HETATM   10  C   UNL     1     -10.251  17.874  65.993  1.00  0.00    -0.295 A  
HETATM   11  N   UNL     1     -10.586  16.599  65.694  1.00  0.00    -0.438 NA 
ENDBRANCH   5   6
ENDBRANCH   4   5
ENDBRANCH   2   4
TORSDOF 3
ENDMDL
MODEL       97
REMARK 921   NORMALIZED FREE ENERGY PREDICTED BY IDOCK:   -2.74 KCAL/MOL
REMARK 922        TOTAL FREE ENERGY PREDICTED BY IDOCK:   -3.57 KCAL/MOL
REMARK 923 INTER-LIGAND FREE ENERGY PREDICTED BY IDOCK:   -3.50 KCAL/MOL
REMARK 924 INTRA-LIGAND FREE ENERGY PREDICTED BY IDOCK:   -0.08 KCAL/MOL
REMARK 927      BINDING AFFINITY PREDICTED BY RF-SCORE:    0.00 PKD
ROOT
HETATM    1  C   UNL     1      -8.411   9.963  69.035  1.00  0.00    -0.136 C  
HETATM    2  N   UNL     1      -9.069  11.243  69.260  1.00  0.00    -0.383 NA 
HETATM    3  H   UNL     1      -8.495  11.868  69.826  1.00  0.00     0.000 HD 
ENDROOT
BRANCH   2   4
HETATM    4  C   UNL     1      -9.452  11.862  67.983  1.00  0.00    -0.197 C  
BRANCH   4   5
HETATM    5  C   UNL     1     -10.061  10.823  67.035  1.00  0.00    -0.249 C  
BRANCH   5   6
HETATM    6  C   UNL     1     -10.652  11.473  65.808  1.00  0.00    -0.263 A  
HETATM    7  C   UNL     1     -11.815  12.233  65.896  1.00  0.00    -0.420 A  
HETATM    8  C   UNL     1     -12.337  12.801  64.736  1.00  0.00    -0.540 A  
HETATM    9  C   UNL     1     -11.691  12.593  63.524  1.00  0.00    -0.604 A  
HETATM   10  C   UNL     1     -10.544  11.820  63.522  1.00  0.00    -0.440 A  
HETATM   11  N   UNL     1     -10.015  11.260  64.631  1.00  0.00    -0.262 NA 
ENDBRANCH   5   6
ENDBRANCH   4   5
ENDBRANCH   2   4
TORSDOF 3
ENDMDL
MODEL       98
REMARK 921   NORMALIZED FREE ENERGY PREDICTED BY IDOCK:   -2.72 KCAL/MOL
REMARK 922        TOTAL FREE ENERGY PREDICTED BY IDOCK:   -3.54 KCAL/MOL
REMARK 923 INTER-LIGAND FREE ENERGY PREDICTED BY IDOCK:   -3.41 KCAL/MOL
REMARK 924 INTRA-LIGAND FREE ENERGY PREDICTED BY IDOCK:   -0.13 KCAL/MOL
REMARK 927      BINDING AFFINITY PREDICTED BY RF-SCORE:    0.00 PKD
ROOT
HETATM    1  C   UNL     1     -12.984   9.634  71.815  1.00  0.00    -0.420 C  
HETATM    2  N   UNL     1     -12.601   8.460  72.587  1.00  0.00    -0.598 NA 
HETATM    3  H   UNL     1     -13.117   8.400  73.465  1.00  0.00     0.000 HD 
ENDROOT
BRANCH   2   4
HETATM    4  C   UNL     1     -12.750   7.238  71.783  1.00  0.00    -0.335 C  
BRANCH   4   5
HETATM    5  C   UNL     1     -11.509   6.347  71.913  1.00  0.00    -0.352 C  
BRANCH   5   6
HETATM    6  C   UNL     1     -10.958   5.968  70.560  1.00  0.00    -0.319 A  
HETATM    7  C   UNL     1     -10.044   4.926  70.430  1.00  0.00    -0.316 A  
HETATM    8  C   UNL     1      -9.547   4.620  69.165  1.00  0.00    -0.245 A  
HETATM    9  C   UNL     1      -9.969   5.360  68.069  1.00  0.00    -0.199 A  
HETATM   10  C   UNL     1     -10.875   6.383  68.284  1.00  0.00    -0.309 A  
HETATM   11  N   UNL     1     -11.374   6.700  69.498  1.00  0.00    -0.320 NA 
ENDBRANCH   5   6
ENDBRANCH   4   5
ENDBRANCH   2   4
TORSDOF 3
ENDMDL
MODEL       99
REMARK 921   NORMALIZED FREE ENERGY PREDICTED BY IDOCK:   -2.71 KCAL/MOL
REMARK 922        TOTAL FREE ENERGY PREDICTED BY IDOCK:   -3.53 KCAL/MOL
REMARK 923 INTER-LIGAND FREE ENERGY PREDICTED BY IDOCK:   -3.43 KCAL/MOL
REMARK 924 INTRA-LIGAND FREE ENERGY PREDICTED BY IDOCK:   -0.10 KCAL/MOL
REMARK 927      BINDING AFFINITY PREDICTED BY RF-SCORE:    0.00 PKD
ROOT
HETATM    1  C   UNL     1     -10.559   5.478  67.156  1.00  0.00    -0.240 C  
HETATM    2  N   UNL     1     -11.231   6.752  66.937  1.00  0.00    -0.759 NA 
HETATM    3  H   UNL     1     -12.216   6.710  67.199  1.00  0.00     0.000 HD 
ENDROOT
BRANCH   2   4
HETATM    4  C   UNL     1     -10.527   7.837  67.635  1.00  0.00    -0.239 C  
BRANCH   4   5
HETATM    5  C   UNL     1      -9.808   8.750  66.636  1.00  0.00    -0.335 C  
BRANCH   5   6
HETATM    6  C   UNL     1     -10.417  10.131  66.611  1.00  0.00    -0.185 A  
HETATM    7  C   UNL     1     -10.273  10.953  65.497  1.00  0.00    -0.332 A  
HETATM    8  C   UNL     1     -10.836  12.227  65.523  1.00  0.00    -0.319 A  
HETATM    9  C   UNL     1     -11.520  12.647  66.656  1.00  0.00    -0.409 A  
HETATM   10  C   UNL     1     -11.613  11.772  67.723  1.00  0.00    -0.304 A  
HETATM   11  N   UNL     1     -11.078  10.532  67.724  1.00  0.00    -0.309 NA 
ENDBRANCH   5   6
ENDBRANCH   4   5
ENDBRANCH   2   4
TORSDOF 3
ENDMDL
MODEL      100
REMARK 921   NORMALIZED FREE ENERGY PREDICTED BY IDOCK:   -2.69 KCAL/MOL
REMARK 922        TOTAL FREE ENERGY PREDICTED BY IDOCK:   -3.51 KCAL/MOL
REMARK 923 INTER-LIGAND FREE ENERGY PREDICTED BY IDOCK:   -3.18 KCAL/MOL
REMARK 924 INTRA-LIGAND FREE ENERGY PREDICTED BY IDOCK:   -0.33 KCAL/MOL
REMARK 927      BINDING AFFINITY PREDICTED BY RF-SCORE:    0.00 PKD
ROOT
HETATM    1  C   UNL     1      -7.263  16.545  68.290  1.00  0.00    -0.159 C  
HETATM    2  N   UNL     1      -8.405  17.394  68.603  1.00  0.00    -0.275 NA 
HETATM    3  H   UNL     1      -8.114  18.315  68.930  1.00  0.00     0.000 HD 
ENDROOT
BRANCH   2   4
HETATM    4  C   UNL     1      -9.314  17.488  67.451  1.00  0.00    -0.249 C  
BRANCH   4   5
HETATM    5  C   UNL     1     -10.773  17.575  67.915  1.00  0.00    -0.340 C  
BRANCH   5   6
HETATM    6  C   UNL     1     -11.193  16.328  68.655  1.00  0.00    -0.354 A  
HETATM    7  C   UNL     1     -11.633  15.204  67.962  1.00  0.00    -0.345 A  
HETATM    8  C   UNL     1     -12.028  14.080  68.685  1.00  0.00    -0.389 A  
HETATM    9  C   UNL     1     -11.977  14.109  70.072  1.00  0.00    -0.404 A  
HETATM   10  C   UNL     1     -11.533  15.267  70.684  1.00  0.00    -0.319 A  
HETATM   11  N   UNL     1     -11.142  16.369  70.008  1.00  0.00    -0.346 NA 
ENDBRANCH   5   6
ENDBRANCH   4   5
ENDBRANCH   2   4
TORSDOF 3
ENDMDL
MODEL      101
REMARK 921   NORMALIZED FREE ENERGY PREDICTED BY IDOCK:   -2.68 KCAL/MOL
REMARK 922        TOTAL FREE ENERGY PREDICTED BY IDOCK:   -3.49 KCAL/MOL
REMARK 923 INTER-LIGAND FREE ENERGY PREDICTED BY IDOCK:   -3.37 KCAL/MOL
REMARK 924 INTRA-LIGAND FREE ENERGY PREDICTED BY IDOCK:   -0.12 KCAL/MOL
REMARK 927      BINDING AFFINITY PREDICTED BY RF-SCORE:    0.00 PKD
ROOT
HETATM    1  C   UNL     1      -9.748  17.012  68.092  1.00  0.00    -0.268 C  
HETATM    2  N   UNL     1     -10.836  17.956  67.877  1.00  0.00    -0.306 NA 
HETATM    3  H   UNL     1     -11.506  17.942  68.646  1.00  0.00     0.000 HD 
ENDROOT
BRANCH   2   4
HETATM    4  C   UNL     1     -10.311  19.309  67.638  1.00  0.00    -0.429 C  
BRANCH   4   5
HETATM    5  C   UNL     1      -9.673  19.406  66.248  1.00  0.00    -0.455 C  
BRANCH   5   6
HETATM    6  C   UNL     1      -8.260  19.930  66.323  1.00  0.00    -0.329 A  
HETATM    7  C   UNL     1      -7.879  20.805  67.336  1.00  0.00    -0.293 A  
HETATM    8  C   UNL     1      -6.569  21.279  67.359  1.00  0.00    -0.402 A  
HETATM    9  C   UNL     1      -5.680  20.873  66.372  1.00  0.00    -0.263 A  
HETATM   10  C   UNL     1      -6.140  20.006  65.398  1.00  0.00    -0.214 A  
HETATM   11  N   UNL     1      -7.403  19.530  65.353  1.00  0.00    -0.415 NA 
ENDBRANCH   5   6
ENDBRANCH   4   5
ENDBRANCH   2   4
TORSDOF 3
ENDMDL
MODEL      102
REMARK 921   NORMALIZED FREE ENERGY PREDICTED BY IDOCK:   -2.67 KCAL/MOL
REMARK 922        TOTAL FREE ENERGY PREDICTED BY IDOCK:   -3.48 KCAL/MOL
REMARK 923 INTER-LIGAND FREE ENERGY PREDICTED BY IDOCK:   -3.41 KCAL/MOL
REMARK 924 INTRA-LIGAND FREE ENERGY PREDICTED BY IDOCK:   -0.07 KCAL/MOL
REMARK 927      BINDING AFFINITY PREDICTED BY RF-SCORE:    0.00 PKD
ROOT
HETATM    1  C   UNL     1      -7.044  20.292  66.110  1.00  0.00    -0.262 C  
HETATM    2  N   UNL     1      -8.494  20.255  65.973  1.00  0.00    -0.575 NA 
HETATM    3  H   UNL     1      -8.778  20.008  65.025  1.00  0.00     0.000 HD 
ENDROOT
BRANCH   2   4
HETATM    4  C   UNL     1      -9.087  19.353  66.972  1.00  0.00    -0.309 C  
BRANCH   4   5
HETATM    5  C   UNL     1     -10.283  18.597  66.380  1.00  0.00    -0.461 C  
BRANCH   5   6
HETATM    6  C   UNL     1     -10.183  17.114  66.640  1.00  0.00    -0.319 A  
HETATM    7  C   UNL     1     -10.161  16.207  65.585  1.00  0.00    -0.390 A  
HETATM    8  C   UNL     1     -10.086  14.845  65.869  1.00  0.00    -0.348 A  
HETATM    9  C   UNL     1     -10.039  14.426  67.192  1.00  0.00    -0.253 A  
HETATM   10  C   UNL     1     -10.070  15.392  68.182  1.00  0.00    -0.222 A  
HETATM   11  N   UNL     1     -10.141  16.718  67.935  1.00  0.00    -0.274 NA 
ENDBRANCH   5   6
ENDBRANCH   4   5
ENDBRANCH   2   4
TORSDOF 3
ENDMDL
MODEL      103
REMARK 921   NORMALIZED FREE ENERGY PREDICTED BY IDOCK:   -2.66 KCAL/MOL
REMARK 922        TOTAL FREE ENERGY PREDICTED BY IDOCK:   -3.47 KCAL/MOL
REMARK 923 INTER-LIGAND FREE ENERGY PREDICTED BY IDOCK:   -3.16 KCAL/MOL
REMARK 924 INTRA-LIGAND FREE ENERGY PREDICTED BY IDOCK:   -0.30 KCAL/MOL
REMARK 927      BINDING AFFINITY PREDICTED BY RF-SCORE:    0.00 PKD
ROOT
HETATM    1  C   UNL     1     -10.328  20.216  67.761  1.00  0.00    -0.320 C  
HETATM    2  N   UNL     1      -9.052  19.649  68.176  1.00  0.00    -0.328 NA 
HETATM    3  H   UNL     1      -9.051  18.631  68.111  1.00  0.00     0.000 HD 
ENDROOT
BRANCH   2   4
HETATM    4  C   UNL     1      -7.946  20.244  67.412  1.00  0.00    -0.329 C  
BRANCH   4   5
HETATM    5  C   UNL     1      -7.614  19.392  66.182  1.00  0.00    -0.308 C  
BRANCH   5   6
HETATM    6  C   UNL     1      -7.840  17.924  66.450  1.00  0.00    -0.272 A  
HETATM    7  C   UNL     1      -6.863  17.156  67.077  1.00  0.00    -0.228 A  
HETATM    8  C   UNL     1      -7.106  15.800  67.289  1.00  0.00    -0.245 A  
HETATM    9  C   UNL     1      -8.309  15.249  66.867  1.00  0.00    -0.278 A  
HETATM   10  C   UNL     1      -9.224  16.080  66.247  1.00  0.00    -0.333 A  
HETATM   11  N   UNL     1      -9.016  17.397  66.031  1.00  0.00    -0.522 NA 
ENDBRANCH   5   6
ENDBRANCH   4   5
ENDBRANCH   2   4
TORSDOF 3
ENDMDL
MODEL      104
REMARK 921   NORMALIZED FREE ENERGY PREDICTED BY IDOCK:   -2.64 KCAL/MOL
REMARK 922        TOTAL FREE ENERGY PREDICTED BY IDOCK:   -3.44 KCAL/MOL
REMARK 923 INTER-LIGAND FREE ENERGY PREDICTED BY IDOCK:   -3.14 KCAL/MOL
REMARK 924 INTRA-LIGAND FREE ENERGY PREDICTED BY IDOCK:   -0.31 KCAL/MOL
REMARK 927      BINDING AFFINITY PREDICTED BY RF-SCORE:    0.00 PKD
ROOT
HETATM    1  C   UNL     1     -13.157   9.657  72.229  1.00  0.00    -0.382 C  
HETATM    2  N   UNL     1     -12.731   8.295  72.523  1.00  0.00    -0.582 NA 
HETATM    3  H   UNL     1     -13.023   8.001  73.455  1.00  0.00     0.000 HD 
ENDROOT
BRANCH   2   4
HETATM    4  C   UNL     1     -13.205   7.367  71.486  1.00  0.00    -0.372 C  
BRANCH   4   5
HETATM    5  C   UNL     1     -12.031   6.828  70.660  1.00  0.00    -0.418 C  
BRANCH   5   6
HETATM    6  C   UNL     1     -11.111   5.975  71.500  1.00  0.00    -0.276 A  
HETATM    7  C   UNL     1      -9.866   5.584  71.017  1.00  0.00    -0.238 A  
HETATM    8  C   UNL     1      -9.055   4.783  71.818  1.00  0.00    -0.166 A  
HETATM    9  C   UNL     1      -9.508   4.390  73.070  1.00  0.00    -0.150 A  
HETATM   10  C   UNL     1     -10.760   4.817  73.473  1.00  0.00    -0.273 A  
HETATM   11  N   UNL     1     -11.566   5.596  72.719  1.00  0.00    -0.280 NA 
ENDBRANCH   5   6
ENDBRANCH   4   5
ENDBRANCH   2   4
TORSDOF 3
ENDMDL
MODEL      105
REMARK 921   NORMALIZED FREE ENERGY PREDICTED BY IDOCK:   -2.62 KCAL/MOL
REMARK 922        TOTAL FREE ENERGY PREDICTED BY IDOCK:   -3.43 KCAL/MOL
REMARK 923 INTER-LIGAND FREE ENERGY PREDICTED BY IDOCK:   -3.28 KCAL/MOL
REMARK 924 INTRA-LIGAND FREE ENERGY PREDICTED BY IDOCK:   -0.14 KCAL/MOL
REMARK 927      BINDING AFFINITY PREDICTED BY RF-SCORE:    0.00 PKD
ROOT
HETATM    1  C   UNL     1      -8.359  11.200  66.344  1.00  0.00    -0.167 C  
HETATM    2  N   UNL     1      -9.296  11.895  65.472  1.00  0.00    -0.408 NA 
HETATM    3  H   UNL     1      -9.985  11.258  65.072  1.00  0.00     0.000 HD 
ENDROOT
BRANCH   2   4
HETATM    4  C   UNL     1      -9.937  13.012  66.183  1.00  0.00    -0.278 C  
BRANCH   4   5
HETATM    5  C   UNL     1     -11.425  12.727  66.415  1.00  0.00    -0.409 C  
BRANCH   5   6
HETATM    6  C   UNL     1     -11.703  12.384  67.858  1.00  0.00    -0.360 A  
HETATM    7  C   UNL     1     -11.837  11.058  68.261  1.00  0.00    -0.221 A  
HETATM    8  C   UNL     1     -12.111  10.786  69.599  1.00  0.00    -0.361 A  
HETATM    9  C   UNL     1     -12.249  11.838  70.495  1.00  0.00    -0.438 A  
HETATM   10  C   UNL     1     -12.107  13.126  70.013  1.00  0.00    -0.305 A  
HETATM   11  N   UNL     1     -11.840  13.419  68.721  1.00  0.00    -0.338 NA 
ENDBRANCH   5   6
ENDBRANCH   4   5
ENDBRANCH   2   4
TORSDOF 3
ENDMDL
MODEL      106
REMARK 921   NORMALIZED FREE ENERGY PREDICTED BY IDOCK:   -2.62 KCAL/MOL
REMARK 922        TOTAL FREE ENERGY PREDICTED BY IDOCK:   -3.43 KCAL/MOL
REMARK 923 INTER-LIGAND FREE ENERGY PREDICTED BY IDOCK:   -3.32 KCAL/MOL
REMARK 924 INTRA-LIGAND FREE ENERGY PREDICTED BY IDOCK:   -0.10 KCAL/MOL
REMARK 927      BINDING AFFINITY PREDICTED BY RF-SCORE:    0.00 PKD
ROOT
HETATM    1  C   UNL     1      -9.567  11.917  66.233  1.00  0.00    -0.229 C  
HETATM    2  N   UNL     1      -9.334  13.340  66.025  1.00  0.00    -0.481 NA 
HETATM    3  H   UNL     1     -10.033  13.751  65.406  1.00  0.00     0.000 HD 
ENDROOT
BRANCH   2   4
HETATM    4  C   UNL     1      -9.262  14.048  67.312  1.00  0.00    -0.230 C  
BRANCH   4   5
HETATM    5  C   UNL     1     -10.459  14.990  67.482  1.00  0.00    -0.256 C  
BRANCH   5   6
HETATM    6  C   UNL     1     -11.054  14.883  68.865  1.00  0.00    -0.257 A  
HETATM    7  C   UNL     1     -10.756  15.828  69.843  1.00  0.00    -0.332 A  
HETATM    8  C   UNL     1     -11.313  15.682  71.111  1.00  0.00    -0.446 A  
HETATM    9  C   UNL     1     -12.145  14.600  71.371  1.00  0.00    -0.416 A  
HETATM   10  C   UNL     1     -12.385  13.704  70.346  1.00  0.00    -0.345 A  
HETATM   11  N   UNL     1     -11.860  13.822  69.107  1.00  0.00    -0.334 NA 
ENDBRANCH   5   6
ENDBRANCH   4   5
ENDBRANCH   2   4
TORSDOF 3
ENDMDL
MODEL      107
REMARK 921   NORMALIZED FREE ENERGY PREDICTED BY IDOCK:   -2.62 KCAL/MOL
REMARK 922        TOTAL FREE ENERGY PREDICTED BY IDOCK:   -3.43 KCAL/MOL
REMARK 923 INTER-LIGAND FREE ENERGY PREDICTED BY IDOCK:   -3.17 KCAL/MOL
REMARK 924 INTRA-LIGAND FREE ENERGY PREDICTED BY IDOCK:   -0.26 KCAL/MOL
REMARK 927      BINDING AFFINITY PREDICTED BY RF-SCORE:    0.00 PKD
ROOT
HETATM    1  C   UNL     1      -9.964   8.737  67.310  1.00  0.00    -0.220 C  
HETATM    2  N   UNL     1     -10.214  10.058  67.870  1.00  0.00    -0.177 NA 
HETATM    3  H   UNL     1     -10.935  10.559  67.350  1.00  0.00     0.000 HD 
ENDROOT
BRANCH   2   4
HETATM    4  C   UNL     1     -10.542   9.963  69.300  1.00  0.00    -0.224 C  
BRANCH   4   5
HETATM    5  C   UNL     1     -11.895  10.621  69.593  1.00  0.00    -0.358 C  
BRANCH   5   6
HETATM    6  C   UNL     1     -11.878  12.093  69.257  1.00  0.00    -0.313 A  
HETATM    7  C   UNL     1     -11.920  13.053  70.263  1.00  0.00    -0.360 A  
HETATM    8  C   UNL     1     -11.920  14.401  69.909  1.00  0.00    -0.391 A  
HETATM    9  C   UNL     1     -11.883  14.752  68.566  1.00  0.00    -0.340 A  
HETATM   10  C   UNL     1     -11.849  13.736  67.628  1.00  0.00    -0.378 A  
HETATM   11  N   UNL     1     -11.846  12.423  67.943  1.00  0.00    -0.411 NA 
ENDBRANCH   5   6
ENDBRANCH   4   5
ENDBRANCH   2   4
TORSDOF 3
ENDMDL
MODEL      108
REMARK 921   NORMALIZED FREE ENERGY PREDICTED BY IDOCK:   -2.62 KCAL/MOL
REMARK 922        TOTAL FREE ENERGY PREDICTED BY IDOCK:   -3.42 KCAL/MOL
REMARK 923 INTER-LIGAND FREE ENERGY PREDICTED BY IDOCK:   -3.13 KCAL/MOL
REMARK 924 INTRA-LIGAND FREE ENERGY PREDICTED BY IDOCK:   -0.29 KCAL/MOL
REMARK 927      BINDING AFFINITY PREDICTED BY RF-SCORE:    0.00 PKD
ROOT
HETATM    1  C   UNL     1     -10.396   7.542  67.170  1.00  0.00    -0.313 C  
HETATM    2  N   UNL     1     -10.842   8.693  67.943  1.00  0.00    -0.487 NA 
HETATM    3  H   UNL     1     -10.497   8.662  68.903  1.00  0.00     0.000 HD 
ENDROOT
BRANCH   2   4
HETATM    4  C   UNL     1     -10.467   9.947  67.271  1.00  0.00    -0.258 C  
BRANCH   4   5
HETATM    5  C   UNL     1      -9.799  10.913  68.256  1.00  0.00    -0.179 C  
BRANCH   5   6
HETATM    6  C   UNL     1     -10.816  11.589  69.142  1.00  0.00    -0.195 A  
HETATM    7  C   UNL     1     -11.071  12.952  69.022  1.00  0.00    -0.284 A  
HETATM    8  C   UNL     1     -12.005  13.540  69.872  1.00  0.00    -0.416 A  
HETATM    9  C   UNL     1     -12.653  12.758  70.818  1.00  0.00    -0.308 A  
HETATM   10  C   UNL     1     -12.339  11.412  70.877  1.00  0.00    -0.381 A  
HETATM   11  N   UNL     1     -11.439  10.816  70.064  1.00  0.00    -0.306 NA 
ENDBRANCH   5   6
ENDBRANCH   4   5
ENDBRANCH   2   4
TORSDOF 3
ENDMDL
MODEL      109
REMARK 921   NORMALIZED FREE ENERGY PREDICTED BY IDOCK:   -2.61 KCAL/MOL
REMARK 922        TOTAL FREE ENERGY PREDICTED BY IDOCK:   -3.41 KCAL/MOL
REMARK 923 INTER-LIGAND FREE ENERGY PREDICTED BY IDOCK:   -3.09 KCAL/MOL
REMARK 924 INTRA-LIGAND FREE ENERGY PREDICTED BY IDOCK:   -0.32 KCAL/MOL
REMARK 927      BINDING AFFINITY PREDICTED BY RF-SCORE:    0.00 PKD
ROOT
HETATM    1  C   UNL     1      -8.299   6.438  71.017  1.00  0.00    -0.123 C  
HETATM    2  N   UNL     1      -9.642   6.524  70.461  1.00  0.00    -0.169 NA 
HETATM    3  H   UNL     1     -10.352   6.572  71.192  1.00  0.00     0.000 HD 
ENDROOT
BRANCH   2   4
HETATM    4  C   UNL     1      -9.747   7.654  69.526  1.00  0.00    -0.168 C  
BRANCH   4   5
HETATM    5  C   UNL     1      -9.668   8.989  70.275  1.00  0.00    -0.229 C  
BRANCH   5   6
HETATM    6  C   UNL     1     -10.970   9.312  70.968  1.00  0.00    -0.320 A  
HETATM    7  C   UNL     1     -11.565  10.561  70.819  1.00  0.00    -0.432 A  
HETATM    8  C   UNL     1     -12.758  10.823  71.489  1.00  0.00    -0.536 A  
HETATM    9  C   UNL     1     -13.320   9.838  72.290  1.00  0.00    -0.472 A  
HETATM   10  C   UNL     1     -12.663   8.625  72.389  1.00  0.00    -0.362 A  
HETATM   11  N   UNL     1     -11.507   8.344  71.749  1.00  0.00    -0.280 NA 
ENDBRANCH   5   6
ENDBRANCH   4   5
ENDBRANCH   2   4
TORSDOF 3
ENDMDL
MODEL      110
REMARK 921   NORMALIZED FREE ENERGY PREDICTED BY IDOCK:   -2.60 KCAL/MOL
REMARK 922        TOTAL FREE ENERGY PREDICTED BY IDOCK:   -3.40 KCAL/MOL
REMARK 923 INTER-LIGAND FREE ENERGY PREDICTED BY IDOCK:   -3.31 KCAL/MOL
REMARK 924 INTRA-LIGAND FREE ENERGY PREDICTED BY IDOCK:   -0.09 KCAL/MOL
REMARK 927      BINDING AFFINITY PREDICTED BY RF-SCORE:    0.00 PKD
ROOT
HETATM    1  C   UNL     1     -12.010  10.950  69.117  1.00  0.00    -0.288 C  
HETATM    2  N   UNL     1     -11.216  10.952  70.338  1.00  0.00    -0.462 NA 
HETATM    3  H   UNL     1     -11.174  11.880  70.761  1.00  0.00     0.000 HD 
ENDROOT
BRANCH   2   4
HETATM    4  C   UNL     1     -11.716   9.945  71.286  1.00  0.00    -0.392 C  
BRANCH   4   5
HETATM    5  C   UNL     1     -11.067   8.582  71.023  1.00  0.00    -0.306 C  
BRANCH   5   6
HETATM    6  C   UNL     1     -10.274   8.108  72.217  1.00  0.00    -0.278 A  
HETATM    7  C   UNL     1     -10.836   7.233  73.142  1.00  0.00    -0.401 A  
HETATM    8  C   UNL     1     -10.076   6.834  74.239  1.00  0.00    -0.348 A  
HETATM    9  C   UNL     1      -8.783   7.320  74.387  1.00  0.00    -0.242 A  
HETATM   10  C   UNL     1      -8.302   8.191  73.426  1.00  0.00    -0.219 A  
HETATM   11  N   UNL     1      -9.016   8.592  72.352  1.00  0.00    -0.373 NA 
ENDBRANCH   5   6
ENDBRANCH   4   5
ENDBRANCH   2   4
TORSDOF 3
ENDMDL
MODEL      111
REMARK 921   NORMALIZED FREE ENERGY PREDICTED BY IDOCK:   -2.58 KCAL/MOL
REMARK 922        TOTAL FREE ENERGY PREDICTED BY IDOCK:   -3.37 KCAL/MOL
REMARK 923 INTER-LIGAND FREE ENERGY PREDICTED BY IDOCK:   -3.31 KCAL/MOL
REMARK 924 INTRA-LIGAND FREE ENERGY PREDICTED BY IDOCK:   -0.07 KCAL/MOL
REMARK 927      BINDING AFFINITY PREDICTED BY RF-SCORE:    0.00 PKD
ROOT
HETATM    1  C   UNL     1     -11.216  14.891  64.820  1.00  0.00    -0.386 C  
HETATM    2  N   UNL     1     -10.860  14.964  66.231  1.00  0.00    -0.325 NA 
HETATM    3  H   UNL     1     -10.711  14.038  66.632  1.00  0.00     0.000 HD 
ENDROOT
BRANCH   2   4
HETATM    4  C   UNL     1      -9.693  15.837  66.428  1.00  0.00    -0.282 C  
BRANCH   4   5
HETATM    5  C   UNL     1     -10.133  17.254  66.815  1.00  0.00    -0.302 C  
BRANCH   5   6
HETATM    6  C   UNL     1      -8.947  18.169  66.998  1.00  0.00    -0.263 A  
HETATM    7  C   UNL     1      -8.724  18.810  68.214  1.00  0.00    -0.363 A  
HETATM    8  C   UNL     1      -7.627  19.661  68.335  1.00  0.00    -0.362 A  
HETATM    9  C   UNL     1      -6.789  19.853  67.244  1.00  0.00    -0.244 A  
HETATM   10  C   UNL     1      -7.084  19.183  66.070  1.00  0.00    -0.266 A  
HETATM   11  N   UNL     1      -8.139  18.352  65.926  1.00  0.00    -0.511 NA 
ENDBRANCH   5   6
ENDBRANCH   4   5
ENDBRANCH   2   4
TORSDOF 3
ENDMDL
MODEL      112
REMARK 921   NORMALIZED FREE ENERGY PREDICTED BY IDOCK:   -2.57 KCAL/MOL
REMARK 922        TOTAL FREE ENERGY PREDICTED BY IDOCK:   -3.37 KCAL/MOL
REMARK 923 INTER-LIGAND FREE ENERGY PREDICTED BY IDOCK:   -3.10 KCAL/MOL
REMARK 924 INTRA-LIGAND FREE ENERGY PREDICTED BY IDOCK:   -0.27 KCAL/MOL
REMARK 927      BINDING AFFINITY PREDICTED BY RF-SCORE:    0.00 PKD
ROOT
HETATM    1  C   UNL     1      -5.904  11.298  66.438  1.00  0.00    -0.136 C  
HETATM    2  N   UNL     1      -7.220  11.324  65.815  1.00  0.00    -0.357 NA 
HETATM    3  H   UNL     1      -7.260  10.724  64.991  1.00  0.00     0.000 HD 
ENDROOT
BRANCH   2   4
HETATM    4  C   UNL     1      -8.265  10.978  66.790  1.00  0.00    -0.149 C  
BRANCH   4   5
HETATM    5  C   UNL     1      -9.502  10.413  66.085  1.00  0.00    -0.227 C  
BRANCH   5   6
HETATM    6  C   UNL     1     -10.259  11.492  65.348  1.00  0.00    -0.264 A  
HETATM    7  C   UNL     1     -10.875  11.223  64.129  1.00  0.00    -0.407 A  
HETATM    8  C   UNL     1     -11.548  12.252  63.474  1.00  0.00    -0.570 A  
HETATM    9  C   UNL     1     -11.585  13.516  64.047  1.00  0.00    -0.394 A  
HETATM   10  C   UNL     1     -10.943  13.701  65.258  1.00  0.00    -0.310 A  
HETATM   11  N   UNL     1     -10.284  12.722  65.915  1.00  0.00    -0.283 NA 
ENDBRANCH   5   6
ENDBRANCH   4   5
ENDBRANCH   2   4
TORSDOF 3
ENDMDL
MODEL      113
REMARK 921   NORMALIZED FREE ENERGY PREDICTED BY IDOCK:   -2.57 KCAL/MOL
REMARK 922        TOTAL FREE ENERGY PREDICTED BY IDOCK:   -3.37 KCAL/MOL
REMARK 923 INTER-LIGAND FREE ENERGY PREDICTED BY IDOCK:   -3.05 KCAL/MOL
REMARK 924 INTRA-LIGAND FREE ENERGY PREDICTED BY IDOCK:   -0.31 KCAL/MOL
REMARK 927      BINDING AFFINITY PREDICTED BY RF-SCORE:    0.00 PKD
ROOT
HETATM    1  C   UNL     1     -12.498  13.313  64.864  1.00  0.00    -0.409 C  
HETATM    2  N   UNL     1     -11.137  13.069  65.321  1.00  0.00    -0.283 NA 
HETATM    3  H   UNL     1     -10.448  13.334  64.617  1.00  0.00     0.000 HD 
ENDROOT
BRANCH   2   4
HETATM    4  C   UNL     1     -10.890  13.743  66.605  1.00  0.00    -0.288 C  
BRANCH   4   5
HETATM    5  C   UNL     1     -11.878  13.258  67.672  1.00  0.00    -0.400 C  
BRANCH   5   6
HETATM    6  C   UNL     1     -11.293  12.139  68.499  1.00  0.00    -0.275 A  
HETATM    7  C   UNL     1     -11.906  11.732  69.680  1.00  0.00    -0.407 A  
HETATM    8  C   UNL     1     -11.323  10.707  70.423  1.00  0.00    -0.389 A  
HETATM    9  C   UNL     1     -10.147  10.122  69.972  1.00  0.00    -0.241 A  
HETATM   10  C   UNL     1      -9.599  10.589  68.791  1.00  0.00    -0.179 A  
HETATM   11  N   UNL     1     -10.143  11.579  68.051  1.00  0.00    -0.181 NA 
ENDBRANCH   5   6
ENDBRANCH   4   5
ENDBRANCH   2   4
TORSDOF 3
ENDMDL
MODEL      114
REMARK 921   NORMALIZED FREE ENERGY PREDICTED BY IDOCK:   -2.56 KCAL/MOL
REMARK 922        TOTAL FREE ENERGY PREDICTED BY IDOCK:   -3.36 KCAL/MOL
REMARK 923 INTER-LIGAND FREE ENERGY PREDICTED BY IDOCK:   -3.22 KCAL/MOL
REMARK 924 INTRA-LIGAND FREE ENERGY PREDICTED BY IDOCK:   -0.14 KCAL/MOL
REMARK 927      BINDING AFFINITY PREDICTED BY RF-SCORE:    0.00 PKD
ROOT
HETATM    1  C   UNL     1     -10.937  16.542  68.344  1.00  0.00    -0.348 C  
HETATM    2  N   UNL     1     -10.456  16.908  67.018  1.00  0.00    -0.306 NA 
HETATM    3  H   UNL     1     -10.031  17.835  67.012  1.00  0.00     0.000 HD 
ENDROOT
BRANCH   2   4
HETATM    4  C   UNL     1      -9.538  15.884  66.497  1.00  0.00    -0.268 C  
BRANCH   4   5
HETATM    5  C   UNL     1      -9.789  14.533  67.176  1.00  0.00    -0.245 C  
BRANCH   5   6
HETATM    6  C   UNL     1     -10.162  13.470  66.170  1.00  0.00    -0.302 A  
HETATM    7  C   UNL     1     -10.304  12.141  66.559  1.00  0.00    -0.239 A  
HETATM    8  C   UNL     1     -10.632  11.190  65.596  1.00  0.00    -0.286 A  
HETATM    9  C   UNL     1     -10.805  11.587  64.276  1.00  0.00    -0.421 A  
HETATM   10  C   UNL     1     -10.640  12.926  63.972  1.00  0.00    -0.389 A  
HETATM   11  N   UNL     1     -10.324  13.869  64.885  1.00  0.00    -0.413 NA 
ENDBRANCH   5   6
ENDBRANCH   4   5
ENDBRANCH   2   4
TORSDOF 3
ENDMDL
MODEL      115
REMARK 921   NORMALIZED FREE ENERGY PREDICTED BY IDOCK:   -2.56 KCAL/MOL
REMARK 922        TOTAL FREE ENERGY PREDICTED BY IDOCK:   -3.36 KCAL/MOL
REMARK 923 INTER-LIGAND FREE ENERGY PREDICTED BY IDOCK:   -3.05 KCAL/MOL
REMARK 924 INTRA-LIGAND FREE ENERGY PREDICTED BY IDOCK:   -0.30 KCAL/MOL
REMARK 927      BINDING AFFINITY PREDICTED BY RF-SCORE:    0.00 PKD
ROOT
HETATM    1  C   UNL     1     -10.813   6.253  72.986  1.00  0.00    -0.259 C  
HETATM    2  N   UNL     1     -11.612   7.461  73.147  1.00  0.00    -0.588 NA 
HETATM    3  H   UNL     1     -11.027   8.284  73.294  1.00  0.00     0.000 HD 
ENDROOT
BRANCH   2   4
HETATM    4  C   UNL     1     -12.524   7.637  72.008  1.00  0.00    -0.270 C  
BRANCH   4   5
HETATM    5  C   UNL     1     -12.672   9.121  71.654  1.00  0.00    -0.429 C  
BRANCH   5   6
HETATM    6  C   UNL     1     -11.673   9.541  70.603  1.00  0.00    -0.262 A  
HETATM    7  C   UNL     1     -11.572  10.872  70.208  1.00  0.00    -0.426 A  
HETATM    8  C   UNL     1     -10.649  11.214  69.222  1.00  0.00    -0.212 A  
HETATM    9  C   UNL     1      -9.858  10.222  68.655  1.00  0.00    -0.180 A  
HETATM   10  C   UNL     1     -10.025   8.923  69.100  1.00  0.00    -0.190 A  
HETATM   11  N   UNL     1     -10.910   8.564  70.055  1.00  0.00    -0.236 NA 
ENDBRANCH   5   6
ENDBRANCH   4   5
ENDBRANCH   2   4
TORSDOF 3
ENDMDL
MODEL      116
REMARK 921   NORMALIZED FREE ENERGY PREDICTED BY IDOCK:   -2.56 KCAL/MOL
REMARK 922        TOTAL FREE ENERGY PREDICTED BY IDOCK:   -3.35 KCAL/MOL
REMARK 923 INTER-LIGAND FREE ENERGY PREDICTED BY IDOCK:   -3.28 KCAL/MOL
REMARK 924 INTRA-LIGAND FREE ENERGY PREDICTED BY IDOCK:   -0.07 KCAL/MOL
REMARK 927      BINDING AFFINITY PREDICTED BY RF-SCORE:    0.00 PKD
ROOT
HETATM    1  C   UNL     1     -10.347   9.210  68.253  1.00  0.00    -0.214 C  
HETATM    2  N   UNL     1     -11.401  10.178  68.526  1.00  0.00    -0.491 NA 
HETATM    3  H   UNL     1     -11.807  10.044  69.452  1.00  0.00     0.000 HD 
ENDROOT
BRANCH   2   4
HETATM    4  C   UNL     1     -10.905  11.550  68.343  1.00  0.00    -0.211 C  
BRANCH   4   5
HETATM    5  C   UNL     1     -11.641  12.245  67.191  1.00  0.00    -0.423 C  
BRANCH   5   6
HETATM    6  C   UNL     1     -11.167  13.667  67.011  1.00  0.00    -0.312 A  
HETATM    7  C   UNL     1     -10.430  14.034  65.889  1.00  0.00    -0.314 A  
HETATM    8  C   UNL     1      -9.997  15.353  65.770  1.00  0.00    -0.393 A  
HETATM    9  C   UNL     1     -10.305  16.265  66.772  1.00  0.00    -0.296 A  
HETATM   10  C   UNL     1     -11.037  15.818  67.857  1.00  0.00    -0.326 A  
HETATM   11  N   UNL     1     -11.470  14.546  67.996  1.00  0.00    -0.305 NA 
ENDBRANCH   5   6
ENDBRANCH   4   5
ENDBRANCH   2   4
TORSDOF 3
ENDMDL
MODEL      117
REMARK 921   NORMALIZED FREE ENERGY PREDICTED BY IDOCK:   -2.55 KCAL/MOL
REMARK 922        TOTAL FREE ENERGY PREDICTED BY IDOCK:   -3.34 KCAL/MOL
REMARK 923 INTER-LIGAND FREE ENERGY PREDICTED BY IDOCK:   -2.97 KCAL/MOL
REMARK 924 INTRA-LIGAND FREE ENERGY PREDICTED BY IDOCK:   -0.37 KCAL/MOL
REMARK 927      BINDING AFFINITY PREDICTED BY RF-SCORE:    0.00 PKD
ROOT
HETATM    1  C   UNL     1      -9.773  10.969  63.235  1.00  0.00    -0.364 C  
HETATM    2  N   UNL     1      -9.046  11.687  64.274  1.00  0.00    -0.398 NA 
HETATM    3  H   UNL     1      -9.454  12.604  64.457  1.00  0.00     0.000 HD 
ENDROOT
BRANCH   2   4
HETATM    4  C   UNL     1      -8.955  10.877  65.498  1.00  0.00    -0.197 C  
BRANCH   4   5
HETATM    5  C   UNL     1      -9.068  11.762  66.745  1.00  0.00    -0.194 C  
BRANCH   5   6
HETATM    6  C   UNL     1     -10.180  12.773  66.606  1.00  0.00    -0.238 A  
HETATM    7  C   UNL     1     -10.000  14.090  67.017  1.00  0.00    -0.257 A  
HETATM    8  C   UNL     1     -11.059  14.987  66.888  1.00  0.00    -0.331 A  
HETATM    9  C   UNL     1     -12.264  14.546  66.358  1.00  0.00    -0.274 A  
HETATM   10  C   UNL     1     -12.363  13.220  65.979  1.00  0.00    -0.386 A  
HETATM   11  N   UNL     1     -11.353  12.330  66.092  1.00  0.00    -0.336 NA 
ENDBRANCH   5   6
ENDBRANCH   4   5
ENDBRANCH   2   4
TORSDOF 3
ENDMDL
MODEL      118
REMARK 921   NORMALIZED FREE ENERGY PREDICTED BY IDOCK:   -2.53 KCAL/MOL
REMARK 922        TOTAL FREE ENERGY PREDICTED BY IDOCK:   -3.32 KCAL/MOL
REMARK 923 INTER-LIGAND FREE ENERGY PREDICTED BY IDOCK:   -3.21 KCAL/MOL
REMARK 924 INTRA-LIGAND FREE ENERGY PREDICTED BY IDOCK:   -0.11 KCAL/MOL
REMARK 927      BINDING AFFINITY PREDICTED BY RF-SCORE:    0.00 PKD
ROOT
HETATM    1  C   UNL     1      -7.678  18.886  68.742  1.00  0.00    -0.331 C  
HETATM    2  N   UNL     1      -9.028  19.433  68.741  1.00  0.00    -0.372 NA 
HETATM    3  H   UNL     1      -9.119  20.214  68.091  1.00  0.00     0.000 HD 
ENDROOT
BRANCH   2   4
HETATM    4  C   UNL     1     -10.016  18.379  68.468  1.00  0.00    -0.387 C  
BRANCH   4   5
HETATM    5  C   UNL     1      -9.383  16.990  68.610  1.00  0.00    -0.270 C  
BRANCH   5   6
HETATM    6  C   UNL     1     -10.389  15.971  69.087  1.00  0.00    -0.247 A  
HETATM    7  C   UNL     1     -11.381  16.322  69.998  1.00  0.00    -0.276 A  
HETATM    8  C   UNL     1     -12.278  15.346  70.426  1.00  0.00    -0.430 A  
HETATM    9  C   UNL     1     -12.160  14.051  69.940  1.00  0.00    -0.406 A  
HETATM   10  C   UNL     1     -11.142  13.783  69.042  1.00  0.00    -0.259 A  
HETATM   11  N   UNL     1     -10.260  14.710  68.609  1.00  0.00    -0.238 NA 
ENDBRANCH   5   6
ENDBRANCH   4   5
ENDBRANCH   2   4
TORSDOF 3
ENDMDL
MODEL      119
REMARK 921   NORMALIZED FREE ENERGY PREDICTED BY IDOCK:   -2.53 KCAL/MOL
REMARK 922        TOTAL FREE ENERGY PREDICTED BY IDOCK:   -3.32 KCAL/MOL
REMARK 923 INTER-LIGAND FREE ENERGY PREDICTED BY IDOCK:   -3.22 KCAL/MOL
REMARK 924 INTRA-LIGAND FREE ENERGY PREDICTED BY IDOCK:   -0.10 KCAL/MOL
REMARK 927      BINDING AFFINITY PREDICTED BY RF-SCORE:    0.00 PKD
ROOT
HETATM    1  C   UNL     1     -12.365  14.133  64.847  1.00  0.00    -0.430 C  
HETATM    2  N   UNL     1     -11.064  13.487  64.967  1.00  0.00    -0.315 NA 
HETATM    3  H   UNL     1     -10.702  13.194  64.060  1.00  0.00     0.000 HD 
ENDROOT
BRANCH   2   4
HETATM    4  C   UNL     1     -10.115  14.358  65.675  1.00  0.00    -0.353 C  
BRANCH   4   5
HETATM    5  C   UNL     1     -10.768  15.699  66.032  1.00  0.00    -0.322 C  
BRANCH   5   6
HETATM    6  C   UNL     1      -9.805  16.607  66.757  1.00  0.00    -0.273 A  
HETATM    7  C   UNL     1      -8.449  16.603  66.443  1.00  0.00    -0.348 A  
HETATM    8  C   UNL     1      -7.592  17.444  67.149  1.00  0.00    -0.226 A  
HETATM    9  C   UNL     1      -8.107  18.260  68.148  1.00  0.00    -0.297 A  
HETATM   10  C   UNL     1      -9.465  18.199  68.402  1.00  0.00    -0.318 A  
HETATM   11  N   UNL     1     -10.319  17.395  67.732  1.00  0.00    -0.344 NA 
ENDBRANCH   5   6
ENDBRANCH   4   5
ENDBRANCH   2   4
TORSDOF 3
ENDMDL
MODEL      120
REMARK 921   NORMALIZED FREE ENERGY PREDICTED BY IDOCK:   -2.53 KCAL/MOL
REMARK 922        TOTAL FREE ENERGY PREDICTED BY IDOCK:   -3.32 KCAL/MOL
REMARK 923 INTER-LIGAND FREE ENERGY PREDICTED BY IDOCK:   -3.21 KCAL/MOL
REMARK 924 INTRA-LIGAND FREE ENERGY PREDICTED BY IDOCK:   -0.11 KCAL/MOL
REMARK 927      BINDING AFFINITY PREDICTED BY RF-SCORE:    0.00 PKD
ROOT
HETATM    1  C   UNL     1     -10.461   7.289  66.870  1.00  0.00    -0.299 C  
HETATM    2  N   UNL     1     -11.481   6.579  67.629  1.00  0.00    -0.688 NA 
HETATM    3  H   UNL     1     -11.893   5.817  67.090  1.00  0.00     0.000 HD 
ENDROOT
BRANCH   2   4
HETATM    4  C   UNL     1     -10.939   6.105  68.912  1.00  0.00    -0.356 C  
BRANCH   4   5
HETATM    5  C   UNL     1     -11.736   6.686  70.086  1.00  0.00    -0.412 C  
BRANCH   5   6
HETATM    6  C   UNL     1     -10.830   7.080  71.227  1.00  0.00    -0.235 A  
HETATM    7  C   UNL     1      -9.451   7.144  71.052  1.00  0.00    -0.159 A  
HETATM    8  C   UNL     1      -8.650   7.495  72.136  1.00  0.00    -0.137 A  
HETATM    9  C   UNL     1      -9.243   7.767  73.362  1.00  0.00    -0.344 A  
HETATM   10  C   UNL     1     -10.620   7.675  73.454  1.00  0.00    -0.293 A  
HETATM   11  N   UNL     1     -11.420   7.339  72.419  1.00  0.00    -0.285 NA 
ENDBRANCH   5   6
ENDBRANCH   4   5
ENDBRANCH   2   4
TORSDOF 3
ENDMDL
MODEL      121
REMARK 921   NORMALIZED FREE ENERGY PREDICTED BY IDOCK:   -2.53 KCAL/MOL
REMARK 922        TOTAL FREE ENERGY PREDICTED BY IDOCK:   -3.32 KCAL/MOL
REMARK 923 INTER-LIGAND FREE ENERGY PREDICTED BY IDOCK:   -3.16 KCAL/MOL
REMARK 924 INTRA-LIGAND FREE ENERGY PREDICTED BY IDOCK:   -0.16 KCAL/MOL
REMARK 927      BINDING AFFINITY PREDICTED BY RF-SCORE:    0.00 PKD
ROOT
HETATM    1  C   UNL     1      -9.237  11.536  66.130  1.00  0.00    -0.219 C  
HETATM    2  N   UNL     1     -10.145  12.616  66.494  1.00  0.00    -0.243 NA 
HETATM    3  H   UNL     1     -11.030  12.551  65.991  1.00  0.00     0.000 HD 
ENDROOT
BRANCH   2   4
HETATM    4  C   UNL     1     -10.347  12.656  67.950  1.00  0.00    -0.218 C  
BRANCH   4   5
HETATM    5  C   UNL     1     -11.633  11.919  68.341  1.00  0.00    -0.376 C  
BRANCH   5   6
HETATM    6  C   UNL     1     -11.381  10.914  69.439  1.00  0.00    -0.280 A  
HETATM    7  C   UNL     1     -12.301  10.737  70.467  1.00  0.00    -0.458 A  
HETATM    8  C   UNL     1     -12.022   9.811  71.470  1.00  0.00    -0.488 A  
HETATM    9  C   UNL     1     -10.834   9.093  71.423  1.00  0.00    -0.419 A  
HETATM   10  C   UNL     1      -9.970   9.332  70.370  1.00  0.00    -0.237 A  
HETATM   11  N   UNL     1     -10.217  10.222  69.384  1.00  0.00    -0.223 NA 
ENDBRANCH   5   6
ENDBRANCH   4   5
ENDBRANCH   2   4
TORSDOF 3
ENDMDL
MODEL      122
REMARK 921   NORMALIZED FREE ENERGY PREDICTED BY IDOCK:   -2.52 KCAL/MOL
REMARK 922        TOTAL FREE ENERGY PREDICTED BY IDOCK:   -3.30 KCAL/MOL
REMARK 923 INTER-LIGAND FREE ENERGY PREDICTED BY IDOCK:   -3.01 KCAL/MOL
REMARK 924 INTRA-LIGAND FREE ENERGY PREDICTED BY IDOCK:   -0.29 KCAL/MOL
REMARK 927      BINDING AFFINITY PREDICTED BY RF-SCORE:    0.00 PKD
ROOT
HETATM    1  C   UNL     1      -5.881  20.841  68.601  1.00  0.00    -0.356 C  
HETATM    2  N   UNL     1      -6.267  19.589  67.963  1.00  0.00    -0.214 NA 
HETATM    3  H   UNL     1      -7.253  19.377  68.111  1.00  0.00     0.000 HD 
ENDROOT
BRANCH   2   4
HETATM    4  C   UNL     1      -5.923  19.607  66.533  1.00  0.00    -0.167 C  
BRANCH   4   5
HETATM    5  C   UNL     1      -7.078  19.056  65.689  1.00  0.00    -0.250 C  
BRANCH   5   6
HETATM    6  C   UNL     1      -8.354  18.966  66.491  1.00  0.00    -0.302 A  
HETATM    7  C   UNL     1      -8.858  17.732  66.889  1.00  0.00    -0.260 A  
HETATM    8  C   UNL     1     -10.049  17.693  67.612  1.00  0.00    -0.339 A  
HETATM    9  C   UNL     1     -10.703  18.881  67.913  1.00  0.00    -0.362 A  
HETATM   10  C   UNL     1     -10.138  20.064  67.475  1.00  0.00    -0.425 A  
HETATM   11  N   UNL     1      -8.985  20.131  66.775  1.00  0.00    -0.337 NA 
ENDBRANCH   5   6
ENDBRANCH   4   5
ENDBRANCH   2   4
TORSDOF 3
ENDMDL
MODEL      123
REMARK 921   NORMALIZED FREE ENERGY PREDICTED BY IDOCK:   -2.51 KCAL/MOL
REMARK 922        TOTAL FREE ENERGY PREDICTED BY IDOCK:   -3.29 KCAL/MOL
REMARK 923 INTER-LIGAND FREE ENERGY PREDICTED BY IDOCK:   -3.14 KCAL/MOL
REMARK 924 INTRA-LIGAND FREE ENERGY PREDICTED BY IDOCK:   -0.15 KCAL/MOL
REMARK 927      BINDING AFFINITY PREDICTED BY RF-SCORE:    0.00 PKD
ROOT
HETATM    1  C   UNL     1     -10.332  18.295  66.058  1.00  0.00    -0.363 C  
HETATM    2  N   UNL     1     -11.021  18.849  67.215  1.00  0.00    -0.363 NA 
HETATM    3  H   UNL     1     -11.352  18.117  67.845  1.00  0.00     0.000 HD 
ENDROOT
BRANCH   2   4
HETATM    4  C   UNL     1     -10.167  19.821  67.913  1.00  0.00    -0.444 C  
BRANCH   4   5
HETATM    5  C   UNL     1      -9.256  19.118  68.925  1.00  0.00    -0.365 C  
BRANCH   5   6
HETATM    6  C   UNL     1      -7.799  19.389  68.639  1.00  0.00    -0.364 A  
HETATM    7  C   UNL     1      -7.423  20.397  67.756  1.00  0.00    -0.303 A  
HETATM    8  C   UNL     1      -6.068  20.603  67.506  1.00  0.00    -0.296 A  
HETATM    9  C   UNL     1      -5.128  19.799  68.138  1.00  0.00    -0.179 A  
HETATM   10  C   UNL     1      -5.585  18.816  68.998  1.00  0.00    -0.205 A  
HETATM   11  N   UNL     1      -6.892  18.596  69.259  1.00  0.00    -0.259 NA 
ENDBRANCH   5   6
ENDBRANCH   4   5
ENDBRANCH   2   4
TORSDOF 3
ENDMDL
MODEL      124
REMARK 921   NORMALIZED FREE ENERGY PREDICTED BY IDOCK:   -2.50 KCAL/MOL
REMARK 922        TOTAL FREE ENERGY PREDICTED BY IDOCK:   -3.28 KCAL/MOL
REMARK 923 INTER-LIGAND FREE ENERGY PREDICTED BY IDOCK:   -2.94 KCAL/MOL
REMARK 924 INTRA-LIGAND FREE ENERGY PREDICTED BY IDOCK:   -0.34 KCAL/MOL
REMARK 927      BINDING AFFINITY PREDICTED BY RF-SCORE:    0.00 PKD
ROOT
HETATM    1  C   UNL     1      -6.331  19.714  69.860  1.00  0.00    -0.318 C  
HETATM    2  N   UNL     1      -6.719  18.591  69.018  1.00  0.00    -0.267 NA 
HETATM    3  H   UNL     1      -7.491  18.062  69.424  1.00  0.00     0.000 HD 
ENDROOT
BRANCH   2   4
HETATM    4  C   UNL     1      -7.028  19.046  67.654  1.00  0.00    -0.213 C  
BRANCH   4   5
HETATM    5  C   UNL     1      -8.524  19.348  67.508  1.00  0.00    -0.328 C  
BRANCH   5   6
HETATM    6  C   UNL     1      -9.359  18.102  67.679  1.00  0.00    -0.260 A  
HETATM    7  C   UNL     1      -9.711  17.325  66.580  1.00  0.00    -0.295 A  
HETATM    8  C   UNL     1     -10.498  16.193  66.781  1.00  0.00    -0.294 A  
HETATM    9  C   UNL     1     -10.914  15.870  68.066  1.00  0.00    -0.336 A  
HETATM   10  C   UNL     1     -10.525  16.698  69.103  1.00  0.00    -0.333 A  
HETATM   11  N   UNL     1      -9.761  17.800  68.938  1.00  0.00    -0.293 NA 
ENDBRANCH   5   6
ENDBRANCH   4   5
ENDBRANCH   2   4
TORSDOF 3
ENDMDL
MODEL      125
REMARK 921   NORMALIZED FREE ENERGY PREDICTED BY IDOCK:   -2.50 KCAL/MOL
REMARK 922        TOTAL FREE ENERGY PREDICTED BY IDOCK:   -3.28 KCAL/MOL
REMARK 923 INTER-LIGAND FREE ENERGY PREDICTED BY IDOCK:   -3.16 KCAL/MOL
REMARK 924 INTRA-LIGAND FREE ENERGY PREDICTED BY IDOCK:   -0.12 KCAL/MOL
REMARK 927      BINDING AFFINITY PREDICTED BY RF-SCORE:    0.00 PKD
ROOT
HETATM    1  C   UNL     1      -6.728   9.682  70.435  1.00  0.00    -0.104 C  
HETATM    2  N   UNL     1      -8.105  10.122  70.612  1.00  0.00    -0.323 NA 
HETATM    3  H   UNL     1      -8.170  11.137  70.697  1.00  0.00     0.000 HD 
ENDROOT
BRANCH   2   4
HETATM    4  C   UNL     1      -8.958   9.611  69.529  1.00  0.00    -0.194 C  
BRANCH   4   5
HETATM    5  C   UNL     1     -10.289  10.370  69.480  1.00  0.00    -0.264 C  
BRANCH   5   6
HETATM    6  C   UNL     1     -11.324   9.729  70.372  1.00  0.00    -0.297 A  
HETATM    7  C   UNL     1     -12.198  10.509  71.124  1.00  0.00    -0.496 A  
HETATM    8  C   UNL     1     -13.126   9.877  71.948  1.00  0.00    -0.559 A  
HETATM    9  C   UNL     1     -13.154   8.490  72.004  1.00  0.00    -0.403 A  
HETATM   10  C   UNL     1     -12.248   7.788  71.231  1.00  0.00    -0.303 A  
HETATM   11  N   UNL     1     -11.339   8.375  70.422  1.00  0.00    -0.220 NA 
ENDBRANCH   5   6
ENDBRANCH   4   5
ENDBRANCH   2   4
TORSDOF 3
ENDMDL
MODEL      126
REMARK 921   NORMALIZED FREE ENERGY PREDICTED BY IDOCK:   -2.47 KCAL/MOL
REMARK 922        TOTAL FREE ENERGY PREDICTED BY IDOCK:   -3.25 KCAL/MOL
REMARK 923 INTER-LIGAND FREE ENERGY PREDICTED BY IDOCK:   -2.95 KCAL/MOL
REMARK 924 INTRA-LIGAND FREE ENERGY PREDICTED BY IDOCK:   -0.30 KCAL/MOL
REMARK 927      BINDING AFFINITY PREDICTED BY RF-SCORE:    0.00 PKD
ROOT
HETATM    1  C   UNL     1     -10.106  19.025  68.121  1.00  0.00    -0.395 C  
HETATM    2  N   UNL     1      -9.321  17.820  67.890  1.00  0.00    -0.261 NA 
HETATM    3  H   UNL     1      -9.781  16.991  68.264  1.00  0.00     0.000 HD 
ENDROOT
BRANCH   2   4
HETATM    4  C   UNL     1      -9.008  17.670  66.461  1.00  0.00    -0.262 C  
BRANCH   4   5
HETATM    5  C   UNL     1      -7.494  17.728  66.226  1.00  0.00    -0.328 C  
BRANCH   5   6
HETATM    6  C   UNL     1      -6.884  18.957  66.856  1.00  0.00    -0.195 A  
HETATM    7  C   UNL     1      -6.811  20.155  66.152  1.00  0.00    -0.272 A  
HETATM    8  C   UNL     1      -6.224  21.261  66.764  1.00  0.00    -0.392 A  
HETATM    9  C   UNL     1      -5.724  21.140  68.054  1.00  0.00    -0.396 A  
HETATM   10  C   UNL     1      -5.830  19.913  68.682  1.00  0.00    -0.237 A  
HETATM   11  N   UNL     1      -6.396  18.826  68.113  1.00  0.00    -0.209 NA 
ENDBRANCH   5   6
ENDBRANCH   4   5
ENDBRANCH   2   4
TORSDOF 3
ENDMDL
MODEL      127
REMARK 921   NORMALIZED FREE ENERGY PREDICTED BY IDOCK:   -2.45 KCAL/MOL
REMARK 922        TOTAL FREE ENERGY PREDICTED BY IDOCK:   -3.23 KCAL/MOL
REMARK 923 INTER-LIGAND FREE ENERGY PREDICTED BY IDOCK:   -2.99 KCAL/MOL
REMARK 924 INTRA-LIGAND FREE ENERGY PREDICTED BY IDOCK:   -0.24 KCAL/MOL
REMARK 927      BINDING AFFINITY PREDICTED BY RF-SCORE:    0.00 PKD
ROOT
HETATM    1  C   UNL     1     -10.269   5.052  67.108  1.00  0.00    -0.186 C  
HETATM    2  N   UNL     1     -10.691   6.218  67.872  1.00  0.00    -0.274 NA 
HETATM    3  H   UNL     1     -10.138   6.333  68.722  1.00  0.00     0.000 HD 
ENDROOT
BRANCH   2   4
HETATM    4  C   UNL     1     -10.663   7.426  67.035  1.00  0.00    -0.319 C  
BRANCH   4   5
HETATM    5  C   UNL     1      -9.825   8.526  67.697  1.00  0.00    -0.222 C  
BRANCH   5   6
HETATM    6  C   UNL     1     -10.644   9.331  68.676  1.00  0.00    -0.187 A  
HETATM    7  C   UNL     1     -11.280  10.503  68.278  1.00  0.00    -0.354 A  
HETATM    8  C   UNL     1     -12.012  11.225  69.219  1.00  0.00    -0.411 A  
HETATM    9  C   UNL     1     -12.085  10.763  70.526  1.00  0.00    -0.459 A  
HETATM   10  C   UNL     1     -11.419   9.593  70.842  1.00  0.00    -0.353 A  
HETATM   11  N   UNL     1     -10.705   8.872  69.950  1.00  0.00    -0.228 NA 
ENDBRANCH   5   6
ENDBRANCH   4   5
ENDBRANCH   2   4
TORSDOF 3
ENDMDL
MODEL      128
REMARK 921   NORMALIZED FREE ENERGY PREDICTED BY IDOCK:   -2.45 KCAL/MOL
REMARK 922        TOTAL FREE ENERGY PREDICTED BY IDOCK:   -3.22 KCAL/MOL
REMARK 923 INTER-LIGAND FREE ENERGY PREDICTED BY IDOCK:   -3.13 KCAL/MOL
REMARK 924 INTRA-LIGAND FREE ENERGY PREDICTED BY IDOCK:   -0.10 KCAL/MOL
REMARK 927      BINDING AFFINITY PREDICTED BY RF-SCORE:    0.00 PKD
ROOT
HETATM    1  C   UNL     1      -6.861  17.883  67.487  1.00  0.00    -0.181 C  
HETATM    2  N   UNL     1      -7.858  17.891  66.424  1.00  0.00    -0.270 NA 
HETATM    3  H   UNL     1      -7.482  18.270  65.555  1.00  0.00     0.000 HD 
ENDROOT
BRANCH   2   4
HETATM    4  C   UNL     1      -8.423  16.547  66.231  1.00  0.00    -0.328 C  
BRANCH   4   5
HETATM    5  C   UNL     1      -9.931  16.623  65.968  1.00  0.00    -0.346 C  
BRANCH   5   6
HETATM    6  C   UNL     1     -10.716  15.895  67.032  1.00  0.00    -0.292 A  
HETATM    7  C   UNL     1     -11.028  16.516  68.237  1.00  0.00    -0.346 A  
HETATM    8  C   UNL     1     -11.739  15.801  69.199  1.00  0.00    -0.398 A  
HETATM    9  C   UNL     1     -12.113  14.490  68.935  1.00  0.00    -0.272 A  
HETATM   10  C   UNL     1     -11.758  13.944  67.715  1.00  0.00    -0.366 A  
HETATM   11  N   UNL     1     -11.071  14.614  66.765  1.00  0.00    -0.328 NA 
ENDBRANCH   5   6
ENDBRANCH   4   5
ENDBRANCH   2   4
TORSDOF 3
ENDMDL
MODEL      129
REMARK 921   NORMALIZED FREE ENERGY PREDICTED BY IDOCK:   -2.45 KCAL/MOL
REMARK 922        TOTAL FREE ENERGY PREDICTED BY IDOCK:   -3.22 KCAL/MOL
REMARK 923 INTER-LIGAND FREE ENERGY PREDICTED BY IDOCK:   -2.89 KCAL/MOL
REMARK 924 INTRA-LIGAND FREE ENERGY PREDICTED BY IDOCK:   -0.33 KCAL/MOL
REMARK 927      BINDING AFFINITY PREDICTED BY RF-SCORE:    0.00 PKD
ROOT
HETATM    1  C   UNL     1     -10.564  10.861  67.279  1.00  0.00    -0.251 C  
HETATM    2  N   UNL     1     -11.486  10.579  68.371  1.00  0.00    -0.517 NA 
HETATM    3  H   UNL     1     -11.755   9.595  68.393  1.00  0.00     0.000 HD 
ENDROOT
BRANCH   2   4
HETATM    4  C   UNL     1     -10.921  11.018  69.656  1.00  0.00    -0.225 C  
BRANCH   4   5
HETATM    5  C   UNL     1     -11.548  10.241  70.819  1.00  0.00    -0.446 C  
BRANCH   5   6
HETATM    6  C   UNL     1     -10.853   8.919  71.039  1.00  0.00    -0.259 A  
HETATM    7  C   UNL     1     -10.578   8.465  72.325  1.00  0.00    -0.412 A  
HETATM    8  C   UNL     1      -9.919   7.247  72.483  1.00  0.00    -0.213 A  
HETATM    9  C   UNL     1      -9.550   6.521  71.358  1.00  0.00    -0.174 A  
HETATM   10  C   UNL     1      -9.856   7.045  70.115  1.00  0.00    -0.175 A  
HETATM   11  N   UNL     1     -10.495   8.221  69.934  1.00  0.00    -0.219 NA 
ENDBRANCH   5   6
ENDBRANCH   4   5
ENDBRANCH   2   4
TORSDOF 3
ENDMDL
MODEL      130
REMARK 921   NORMALIZED FREE ENERGY PREDICTED BY IDOCK:   -2.43 KCAL/MOL
REMARK 922        TOTAL FREE ENERGY PREDICTED BY IDOCK:   -3.20 KCAL/MOL
REMARK 923 INTER-LIGAND FREE ENERGY PREDICTED BY IDOCK:   -3.13 KCAL/MOL
REMARK 924 INTRA-LIGAND FREE ENERGY PREDICTED BY IDOCK:   -0.08 KCAL/MOL
REMARK 927      BINDING AFFINITY PREDICTED BY RF-SCORE:    0.00 PKD
ROOT
HETATM    1  C   UNL     1     -11.400  15.651  70.239  1.00  0.00    -0.344 C  
HETATM    2  N   UNL     1     -10.670  15.650  68.978  1.00  0.00    -0.223 NA 
HETATM    3  H   UNL     1     -11.288  15.490  68.183  1.00  0.00     0.000 HD 
ENDROOT
BRANCH   2   4
HETATM    4  C   UNL     1      -9.896  16.891  68.825  1.00  0.00    -0.269 C  
BRANCH   4   5
HETATM    5  C   UNL     1      -9.285  16.981  67.422  1.00  0.00    -0.234 C  
BRANCH   5   6
HETATM    6  C   UNL     1      -8.476  18.244  67.252  1.00  0.00    -0.250 A  
HETATM    7  C   UNL     1      -8.138  19.027  68.352  1.00  0.00    -0.381 A  
HETATM    8  C   UNL     1      -7.406  20.195  68.148  1.00  0.00    -0.279 A  
HETATM    9  C   UNL     1      -7.036  20.551  66.858  1.00  0.00    -0.344 A  
HETATM   10  C   UNL     1      -7.417  19.721  65.818  1.00  0.00    -0.311 A  
HETATM   11  N   UNL     1      -8.125  18.584  65.988  1.00  0.00    -0.490 NA 
ENDBRANCH   5   6
ENDBRANCH   4   5
ENDBRANCH   2   4
TORSDOF 3
ENDMDL
MODEL      131
REMARK 921   NORMALIZED FREE ENERGY PREDICTED BY IDOCK:   -2.43 KCAL/MOL
REMARK 922        TOTAL FREE ENERGY PREDICTED BY IDOCK:   -3.20 KCAL/MOL
REMARK 923 INTER-LIGAND FREE ENERGY PREDICTED BY IDOCK:   -3.09 KCAL/MOL
REMARK 924 INTRA-LIGAND FREE ENERGY PREDICTED BY IDOCK:   -0.11 KCAL/MOL
REMARK 927      BINDING AFFINITY PREDICTED BY RF-SCORE:    0.00 PKD
ROOT
HETATM    1  C   UNL     1     -10.550   4.103  73.995  1.00  0.00    -0.238 C  
HETATM    2  N   UNL     1      -9.852   4.560  72.801  1.00  0.00    -0.140 NA 
HETATM    3  H   UNL     1     -10.372   4.340  71.951  1.00  0.00     0.000 HD 
ENDROOT
BRANCH   2   4
HETATM    4  C   UNL     1      -9.546   5.995  72.896  1.00  0.00    -0.154 C  
BRANCH   4   5
HETATM    5  C   UNL     1     -10.757   6.776  73.419  1.00  0.00    -0.332 C  
BRANCH   5   6
HETATM    6  C   UNL     1     -11.058   7.975  72.553  1.00  0.00    -0.375 A  
HETATM    7  C   UNL     1     -12.342   8.510  72.500  1.00  0.00    -0.372 A  
HETATM    8  C   UNL     1     -12.581   9.606  71.674  1.00  0.00    -0.493 A  
HETATM    9  C   UNL     1     -11.539  10.134  70.923  1.00  0.00    -0.459 A  
HETATM   10  C   UNL     1     -10.294   9.540  71.028  1.00  0.00    -0.283 A  
HETATM   11  N   UNL     1     -10.034   8.478  71.822  1.00  0.00    -0.246 NA 
ENDBRANCH   5   6
ENDBRANCH   4   5
ENDBRANCH   2   4
TORSDOF 3
ENDMDL
MODEL      132
REMARK 921   NORMALIZED FREE ENERGY PREDICTED BY IDOCK:   -2.42 KCAL/MOL
REMARK 922        TOTAL FREE ENERGY PREDICTED BY IDOCK:   -3.19 KCAL/MOL
REMARK 923 INTER-LIGAND FREE ENERGY PREDICTED BY IDOCK:   -3.08 KCAL/MOL
REMARK 924 INTRA-LIGAND FREE ENERGY PREDICTED BY IDOCK:   -0.11 KCAL/MOL
REMARK 927      BINDING AFFINITY PREDICTED BY RF-SCORE:    0.00 PKD
ROOT
HETATM    1  C   UNL     1      -7.445   9.372  70.218  1.00  0.00    -0.128 C  
HETATM    2  N   UNL     1      -7.502   9.212  71.665  1.00  0.00    -0.340 NA 
HETATM    3  H   UNL     1      -7.275  10.080  72.151  1.00  0.00     0.000 HD 
ENDROOT
BRANCH   2   4
HETATM    4  C   UNL     1      -8.811   8.684  72.078  1.00  0.00    -0.194 C  
BRANCH   4   5
HETATM    5  C   UNL     1      -9.710   8.445  70.861  1.00  0.00    -0.212 C  
BRANCH   5   6
HETATM    6  C   UNL     1     -11.164   8.677  71.193  1.00  0.00    -0.272 A  
HETATM    7  C   UNL     1     -12.067   7.618  71.214  1.00  0.00    -0.337 A  
HETATM    8  C   UNL     1     -13.404   7.879  71.509  1.00  0.00    -0.343 A  
HETATM    9  C   UNL     1     -13.802   9.183  71.769  1.00  0.00    -0.425 A  
HETATM   10  C   UNL     1     -12.844  10.179  71.724  1.00  0.00    -0.452 A  
HETATM   11  N   UNL     1     -11.542   9.954  71.442  1.00  0.00    -0.375 NA 
ENDBRANCH   5   6
ENDBRANCH   4   5
ENDBRANCH   2   4
TORSDOF 3
ENDMDL
MODEL      133
REMARK 921   NORMALIZED FREE ENERGY PREDICTED BY IDOCK:   -2.39 KCAL/MOL
REMARK 922        TOTAL FREE ENERGY PREDICTED BY IDOCK:   -3.15 KCAL/MOL
REMARK 923 INTER-LIGAND FREE ENERGY PREDICTED BY IDOCK:   -2.78 KCAL/MOL
REMARK 924 INTRA-LIGAND FREE ENERGY PREDICTED BY IDOCK:   -0.37 KCAL/MOL
REMARK 927      BINDING AFFINITY PREDICTED BY RF-SCORE:    0.00 PKD
ROOT
HETATM    1  C   UNL     1      -7.551   9.732  69.756  1.00  0.00    -0.137 C  
HETATM    2  N   UNL     1      -8.718   8.917  69.444  1.00  0.00    -0.139 NA 
HETATM    3  H   UNL     1      -8.921   8.248  70.187  1.00  0.00     0.000 HD 
ENDROOT
BRANCH   2   4
HETATM    4  C   UNL     1      -9.879   9.767  69.143  1.00  0.00    -0.188 C  
BRANCH   4   5
HETATM    5  C   UNL     1     -10.778   9.917  70.376  1.00  0.00    -0.379 C  
BRANCH   5   6
HETATM    6  C   UNL     1     -10.988   8.593  71.071  1.00  0.00    -0.260 A  
HETATM    7  C   UNL     1     -10.732   8.455  72.431  1.00  0.00    -0.405 A  
HETATM    8  C   UNL     1     -10.923   7.211  73.029  1.00  0.00    -0.357 A  
HETATM    9  C   UNL     1     -11.357   6.142  72.256  1.00  0.00    -0.346 A  
HETATM   10  C   UNL     1     -11.584   6.362  70.910  1.00  0.00    -0.331 A  
HETATM   11  N   UNL     1     -11.409   7.557  70.305  1.00  0.00    -0.242 NA 
ENDBRANCH   5   6
ENDBRANCH   4   5
ENDBRANCH   2   4
TORSDOF 3
ENDMDL
MODEL      134
REMARK 921   NORMALIZED FREE ENERGY PREDICTED BY IDOCK:   -2.37 KCAL/MOL
REMARK 922        TOTAL FREE ENERGY PREDICTED BY IDOCK:   -3.13 KCAL/MOL
REMARK 923 INTER-LIGAND FREE ENERGY PREDICTED BY IDOCK:   -2.82 KCAL/MOL
REMARK 924 INTRA-LIGAND FREE ENERGY PREDICTED BY IDOCK:   -0.31 KCAL/MOL
REMARK 927      BINDING AFFINITY PREDICTED BY RF-SCORE:    0.00 PKD
ROOT
HETATM    1  C   UNL     1      -5.428  19.642  62.955  1.00  0.00    -0.321 C  
HETATM    2  N   UNL     1      -5.838  19.423  64.336  1.00  0.00    -0.272 NA 
HETATM    3  H   UNL     1      -5.039  19.235  64.942  1.00  0.00     0.000 HD 
ENDROOT
BRANCH   2   4
HETATM    4  C   UNL     1      -6.639  20.554  64.826  1.00  0.00    -0.258 C  
BRANCH   4   5
HETATM    5  C   UNL     1      -7.046  20.339  66.288  1.00  0.00    -0.306 C  
BRANCH   5   6
HETATM    6  C   UNL     1      -7.122  18.871  66.631  1.00  0.00    -0.212 A  
HETATM    7  C   UNL     1      -6.293  18.324  67.606  1.00  0.00    -0.188 A  
HETATM    8  C   UNL     1      -6.384  16.961  67.879  1.00  0.00    -0.149 A  
HETATM    9  C   UNL     1      -7.291  16.183  67.172  1.00  0.00    -0.250 A  
HETATM   10  C   UNL     1      -8.074  16.803  66.215  1.00  0.00    -0.330 A  
HETATM   11  N   UNL     1      -8.008  18.122  65.931  1.00  0.00    -0.535 NA 
ENDBRANCH   5   6
ENDBRANCH   4   5
ENDBRANCH   2   4
TORSDOF 3
ENDMDL
MODEL      135
REMARK 921   NORMALIZED FREE ENERGY PREDICTED BY IDOCK:   -2.37 KCAL/MOL
REMARK 922        TOTAL FREE ENERGY PREDICTED BY IDOCK:   -3.13 KCAL/MOL
REMARK 923 INTER-LIGAND FREE ENERGY PREDICTED BY IDOCK:   -2.77 KCAL/MOL
REMARK 924 INTRA-LIGAND FREE ENERGY PREDICTED BY IDOCK:   -0.36 KCAL/MOL
REMARK 927      BINDING AFFINITY PREDICTED BY RF-SCORE:    0.00 PKD
ROOT
HETATM    1  C   UNL     1      -6.923   8.190  72.063  1.00  0.00    -0.081 C  
HETATM    2  N   UNL     1      -7.961   8.470  73.045  1.00  0.00    -0.382 NA 
HETATM    3  H   UNL     1      -8.863   8.650  72.602  1.00  0.00     0.000 HD 
ENDROOT
BRANCH   2   4
HETATM    4  C   UNL     1      -8.048   7.385  74.034  1.00  0.00    -0.148 C  
BRANCH   4   5
HETATM    5  C   UNL     1      -9.508   6.992  74.284  1.00  0.00    -0.267 C  
BRANCH   5   6
HETATM    6  C   UNL     1     -10.306   6.987  73.002  1.00  0.00    -0.260 A  
HETATM    7  C   UNL     1     -10.241   5.906  72.128  1.00  0.00    -0.231 A  
HETATM    8  C   UNL     1     -10.980   5.949  70.948  1.00  0.00    -0.335 A  
HETATM    9  C   UNL     1     -11.756   7.066  70.670  1.00  0.00    -0.384 A  
HETATM   10  C   UNL     1     -11.761   8.101  71.588  1.00  0.00    -0.287 A  
HETATM   11  N   UNL     1     -11.057   8.084  72.740  1.00  0.00    -0.392 NA 
ENDBRANCH   5   6
ENDBRANCH   4   5
ENDBRANCH   2   4
TORSDOF 3
ENDMDL
MODEL      136
REMARK 921   NORMALIZED FREE ENERGY PREDICTED BY IDOCK:   -2.37 KCAL/MOL
REMARK 922        TOTAL FREE ENERGY PREDICTED BY IDOCK:   -3.13 KCAL/MOL
REMARK 923 INTER-LIGAND FREE ENERGY PREDICTED BY IDOCK:   -2.85 KCAL/MOL
REMARK 924 INTRA-LIGAND FREE ENERGY PREDICTED BY IDOCK:   -0.27 KCAL/MOL
REMARK 927      BINDING AFFINITY PREDICTED BY RF-SCORE:    0.00 PKD
ROOT
HETATM    1  C   UNL     1     -14.228   8.755  72.065  1.00  0.00    -0.414 C  
HETATM    2  N   UNL     1     -13.130   7.924  72.541  1.00  0.00    -0.519 NA 
HETATM    3  H   UNL     1     -13.447   7.232  73.220  1.00  0.00     0.000 HD 
ENDROOT
BRANCH   2   4
HETATM    4  C   UNL     1     -12.425   7.298  71.413  1.00  0.00    -0.383 C  
BRANCH   4   5
HETATM    5  C   UNL     1     -10.912   7.510  71.532  1.00  0.00    -0.256 C  
BRANCH   5   6
HETATM    6  C   UNL     1     -10.435   8.613  70.619  1.00  0.00    -0.204 A  
HETATM    7  C   UNL     1      -9.075   8.854  70.443  1.00  0.00    -0.217 A  
HETATM    8  C   UNL     1      -8.679   9.893  69.604  1.00  0.00    -0.218 A  
HETATM    9  C   UNL     1      -9.644  10.664  68.970  1.00  0.00    -0.207 A  
HETATM   10  C   UNL     1     -10.974  10.363  69.202  1.00  0.00    -0.241 A  
HETATM   11  N   UNL     1     -11.386   9.360  70.008  1.00  0.00    -0.192 NA 
ENDBRANCH   5   6
ENDBRANCH   4   5
ENDBRANCH   2   4
TORSDOF 3
ENDMDL
MODEL      137
REMARK 921   NORMALIZED FREE ENERGY PREDICTED BY IDOCK:   -2.35 KCAL/MOL
REMARK 922        TOTAL FREE ENERGY PREDICTED BY IDOCK:   -3.11 KCAL/MOL
REMARK 923 INTER-LIGAND FREE ENERGY PREDICTED BY IDOCK:   -2.78 KCAL/MOL
REMARK 924 INTRA-LIGAND FREE ENERGY PREDICTED BY IDOCK:   -0.33 KCAL/MOL
REMARK 927      BINDING AFFINITY PREDICTED BY RF-SCORE:    0.00 PKD
ROOT
HETATM    1  C   UNL     1      -7.157   8.631  63.330  1.00  0.00    -0.090 C  
HETATM    2  N   UNL     1      -7.874   9.598  64.150  1.00  0.00    -0.123 NA 
HETATM    3  H   UNL     1      -8.682   9.983  63.661  1.00  0.00     0.000 HD 
ENDROOT
BRANCH   2   4
HETATM    4  C   UNL     1      -8.252   9.005  65.442  1.00  0.00    -0.130 C  
BRANCH   4   5
HETATM    5  C   UNL     1      -9.675   9.418  65.835  1.00  0.00    -0.355 C  
BRANCH   5   6
HETATM    6  C   UNL     1      -9.997  10.813  65.357  1.00  0.00    -0.271 A  
HETATM    7  C   UNL     1      -9.855  11.907  66.206  1.00  0.00    -0.246 A  
HETATM    8  C   UNL     1     -10.180  13.175  65.730  1.00  0.00    -0.294 A  
HETATM    9  C   UNL     1     -10.642  13.317  64.428  1.00  0.00    -0.438 A  
HETATM   10  C   UNL     1     -10.760  12.179  63.651  1.00  0.00    -0.467 A  
HETATM   11  N   UNL     1     -10.450  10.938  64.086  1.00  0.00    -0.370 NA 
ENDBRANCH   5   6
ENDBRANCH   4   5
ENDBRANCH   2   4
TORSDOF 3
ENDMDL
MODEL      138
REMARK 921   NORMALIZED FREE ENERGY PREDICTED BY IDOCK:   -2.33 KCAL/MOL
REMARK 922        TOTAL FREE ENERGY PREDICTED BY IDOCK:   -3.08 KCAL/MOL
REMARK 923 INTER-LIGAND FREE ENERGY PREDICTED BY IDOCK:   -2.79 KCAL/MOL
REMARK 924 INTRA-LIGAND FREE ENERGY PREDICTED BY IDOCK:   -0.29 KCAL/MOL
REMARK 927      BINDING AFFINITY PREDICTED BY RF-SCORE:    0.00 PKD
ROOT
HETATM    1  C   UNL     1      -9.620   3.751  67.263  1.00  0.00    -0.169 C  
HETATM    2  N   UNL     1      -9.926   4.661  68.359  1.00  0.00    -0.108 NA 
HETATM    3  H   UNL     1      -9.088   4.920  68.881  1.00  0.00     0.000 HD 
ENDROOT
BRANCH   2   4
HETATM    4  C   UNL     1     -10.648   5.844  67.867  1.00  0.00    -0.251 C  
BRANCH   4   5
HETATM    5  C   UNL     1     -10.073   7.126  68.480  1.00  0.00    -0.177 C  
BRANCH   5   6
HETATM    6  C   UNL     1     -10.782   7.492  69.761  1.00  0.00    -0.242 A  
HETATM    7  C   UNL     1     -10.513   8.696  70.404  1.00  0.00    -0.233 A  
HETATM    8  C   UNL     1     -11.177   8.987  71.594  1.00  0.00    -0.431 A  
HETATM    9  C   UNL     1     -12.084   8.071  72.110  1.00  0.00    -0.391 A  
HETATM   10  C   UNL     1     -12.290   6.895  71.413  1.00  0.00    -0.376 A  
HETATM   11  N   UNL     1     -11.662   6.588  70.257  1.00  0.00    -0.410 NA 
ENDBRANCH   5   6
ENDBRANCH   4   5
ENDBRANCH   2   4
TORSDOF 3
ENDMDL
MODEL      139
REMARK 921   NORMALIZED FREE ENERGY PREDICTED BY IDOCK:   -2.31 KCAL/MOL
REMARK 922        TOTAL FREE ENERGY PREDICTED BY IDOCK:   -3.06 KCAL/MOL
REMARK 923 INTER-LIGAND FREE ENERGY PREDICTED BY IDOCK:   -2.75 KCAL/MOL
REMARK 924 INTRA-LIGAND FREE ENERGY PREDICTED BY IDOCK:   -0.30 KCAL/MOL
REMARK 927      BINDING AFFINITY PREDICTED BY RF-SCORE:    0.00 PKD
ROOT
HETATM    1  C   UNL     1     -11.775  15.765  70.512  1.00  0.00    -0.377 C  
HETATM    2  N   UNL     1     -12.497  14.888  69.600  1.00  0.00    -0.564 NA 
HETATM    3  H   UNL     1     -12.387  15.180  68.629  1.00  0.00     0.000 HD 
ENDROOT
BRANCH   2   4
HETATM    4  C   UNL     1     -12.093  13.488  69.796  1.00  0.00    -0.318 C  
BRANCH   4   5
HETATM    5  C   UNL     1     -11.758  12.825  68.456  1.00  0.00    -0.371 C  
BRANCH   5   6
HETATM    6  C   UNL     1     -10.285  12.922  68.144  1.00  0.00    -0.239 A  
HETATM    7  C   UNL     1      -9.544  11.783  67.844  1.00  0.00    -0.187 A  
HETATM    8  C   UNL     1      -8.182  11.915  67.580  1.00  0.00    -0.148 A  
HETATM    9  C   UNL     1      -7.598  13.174  67.625  1.00  0.00    -0.171 A  
HETATM   10  C   UNL     1      -8.404  14.255  67.936  1.00  0.00    -0.162 A  
HETATM   11  N   UNL     1      -9.726  14.155  68.195  1.00  0.00    -0.218 NA 
ENDBRANCH   5   6
ENDBRANCH   4   5
ENDBRANCH   2   4
TORSDOF 3
ENDMDL
MODEL      140
REMARK 921   NORMALIZED FREE ENERGY PREDICTED BY IDOCK:   -2.28 KCAL/MOL
REMARK 922        TOTAL FREE ENERGY PREDICTED BY IDOCK:   -3.03 KCAL/MOL
REMARK 923 INTER-LIGAND FREE ENERGY PREDICTED BY IDOCK:   -2.89 KCAL/MOL
REMARK 924 INTRA-LIGAND FREE ENERGY PREDICTED BY IDOCK:   -0.13 KCAL/MOL
REMARK 927      BINDING AFFINITY PREDICTED BY RF-SCORE:    0.00 PKD
ROOT
HETATM    1  C   UNL     1     -11.047   5.707  73.174  1.00  0.00    -0.270 C  
HETATM    2  N   UNL     1     -10.996   7.149  73.374  1.00  0.00    -0.555 NA 
HETATM    3  H   UNL     1     -10.037   7.497  73.381  1.00  0.00     0.000 HD 
ENDROOT
BRANCH   2   4
HETATM    4  C   UNL     1     -11.818   7.843  72.371  1.00  0.00    -0.348 C  
BRANCH   4   5
HETATM    5  C   UNL     1     -10.941   8.680  71.434  1.00  0.00    -0.341 C  
BRANCH   5   6
HETATM    6  C   UNL     1     -10.669   7.956  70.137  1.00  0.00    -0.244 A  
HETATM    7  C   UNL     1     -11.451   6.871  69.751  1.00  0.00    -0.247 A  
HETATM    8  C   UNL     1     -11.155   6.220  68.555  1.00  0.00    -0.397 A  
HETATM    9  C   UNL     1     -10.089   6.664  67.783  1.00  0.00    -0.180 A  
HETATM   10  C   UNL     1      -9.359   7.745  68.241  1.00  0.00    -0.143 A  
HETATM   11  N   UNL     1      -9.625   8.396  69.395  1.00  0.00    -0.169 NA 
ENDBRANCH   5   6
ENDBRANCH   4   5
ENDBRANCH   2   4
TORSDOF 3
ENDMDL
MODEL      141
REMARK 921   NORMALIZED FREE ENERGY PREDICTED BY IDOCK:   -2.28 KCAL/MOL
REMARK 922        TOTAL FREE ENERGY PREDICTED BY IDOCK:   -3.02 KCAL/MOL
REMARK 923 INTER-LIGAND FREE ENERGY PREDICTED BY IDOCK:   -2.73 KCAL/MOL
REMARK 924 INTRA-LIGAND FREE ENERGY PREDICTED BY IDOCK:   -0.29 KCAL/MOL
REMARK 927      BINDING AFFINITY PREDICTED BY RF-SCORE:    0.00 PKD
ROOT
HETATM    1  C   UNL     1      -6.405  19.116  65.146  1.00  0.00    -0.274 C  
HETATM    2  N   UNL     1      -7.488  18.401  65.806  1.00  0.00    -0.521 NA 
HETATM    3  H   UNL     1      -8.051  17.869  65.141  1.00  0.00     0.000 HD 
ENDROOT
BRANCH   2   4
HETATM    4  C   UNL     1      -6.967  17.546  66.883  1.00  0.00    -0.184 C  
BRANCH   4   5
HETATM    5  C   UNL     1      -7.541  16.129  66.779  1.00  0.00    -0.268 C  
BRANCH   5   6
HETATM    6  C   UNL     1      -8.787  15.974  67.617  1.00  0.00    -0.185 A  
HETATM    7  C   UNL     1      -8.991  14.832  68.385  1.00  0.00    -0.187 A  
HETATM    8  C   UNL     1     -10.163  14.721  69.130  1.00  0.00    -0.224 A  
HETATM    9  C   UNL     1     -11.098  15.747  69.086  1.00  0.00    -0.283 A  
HETATM   10  C   UNL     1     -10.822  16.846  68.294  1.00  0.00    -0.357 A  
HETATM   11  N   UNL     1      -9.693  16.980  67.563  1.00  0.00    -0.247 NA 
ENDBRANCH   5   6
ENDBRANCH   4   5
ENDBRANCH   2   4
TORSDOF 3
ENDMDL
MODEL      142
REMARK 921   NORMALIZED FREE ENERGY PREDICTED BY IDOCK:   -2.27 KCAL/MOL
REMARK 922        TOTAL FREE ENERGY PREDICTED BY IDOCK:   -3.01 KCAL/MOL
REMARK 923 INTER-LIGAND FREE ENERGY PREDICTED BY IDOCK:   -2.72 KCAL/MOL
REMARK 924 INTRA-LIGAND FREE ENERGY PREDICTED BY IDOCK:   -0.29 KCAL/MOL
REMARK 927      BINDING AFFINITY PREDICTED BY RF-SCORE:    0.00 PKD
ROOT
HETATM    1  C   UNL     1      -9.440  20.873  67.231  1.00  0.00    -0.236 C  
HETATM    2  N   UNL     1      -9.970  19.700  66.548  1.00  0.00    -0.401 NA 
HETATM    3  H   UNL     1      -9.230  19.045  66.293  1.00  0.00     0.000 HD 
ENDROOT
BRANCH   2   4
HETATM    4  C   UNL     1     -11.013  19.054  67.358  1.00  0.00    -0.283 C  
BRANCH   4   5
HETATM    5  C   UNL     1     -10.395  18.299  68.541  1.00  0.00    -0.341 C  
BRANCH   5   6
HETATM    6  C   UNL     1      -9.254  17.416  68.098  1.00  0.00    -0.270 A  
HETATM    7  C   UNL     1      -7.976  17.589  68.620  1.00  0.00    -0.268 A  
HETATM    8  C   UNL     1      -6.947  16.764  68.171  1.00  0.00    -0.160 A  
HETATM    9  C   UNL     1      -7.219  15.796  67.213  1.00  0.00    -0.254 A  
HETATM   10  C   UNL     1      -8.515  15.693  66.741  1.00  0.00    -0.272 A  
HETATM   11  N   UNL     1      -9.531  16.478  67.160  1.00  0.00    -0.236 NA 
ENDBRANCH   5   6
ENDBRANCH   4   5
ENDBRANCH   2   4
TORSDOF 3
ENDMDL
MODEL      143
REMARK 921   NORMALIZED FREE ENERGY PREDICTED BY IDOCK:   -2.27 KCAL/MOL
REMARK 922        TOTAL FREE ENERGY PREDICTED BY IDOCK:   -3.01 KCAL/MOL
REMARK 923 INTER-LIGAND FREE ENERGY PREDICTED BY IDOCK:   -2.66 KCAL/MOL
REMARK 924 INTRA-LIGAND FREE ENERGY PREDICTED BY IDOCK:   -0.36 KCAL/MOL
REMARK 927      BINDING AFFINITY PREDICTED BY RF-SCORE:    0.00 PKD
ROOT
HETATM    1  C   UNL     1      -5.258  18.968  63.335  1.00  0.00    -0.261 C  
HETATM    2  N   UNL     1      -6.403  19.187  64.209  1.00  0.00    -0.359 NA 
HETATM    3  H   UNL     1      -6.344  18.624  65.057  1.00  0.00     0.000 HD 
ENDROOT
BRANCH   2   4
HETATM    4  C   UNL     1      -6.557  20.617  64.515  1.00  0.00    -0.218 C  
BRANCH   4   5
HETATM    5  C   UNL     1      -5.978  20.943  65.896  1.00  0.00    -0.285 C  
BRANCH   5   6
HETATM    6  C   UNL     1      -6.533  20.027  66.959  1.00  0.00    -0.194 A  
HETATM    7  C   UNL     1      -7.782  20.267  67.523  1.00  0.00    -0.340 A  
HETATM    8  C   UNL     1      -8.250  19.406  68.514  1.00  0.00    -0.392 A  
HETATM    9  C   UNL     1      -7.460  18.337  68.917  1.00  0.00    -0.255 A  
HETATM   10  C   UNL     1      -6.228  18.173  68.310  1.00  0.00    -0.184 A  
HETATM   11  N   UNL     1      -5.752  18.990  67.346  1.00  0.00    -0.168 NA 
ENDBRANCH   5   6
ENDBRANCH   4   5
ENDBRANCH   2   4
TORSDOF 3
ENDMDL
MODEL      144
REMARK 921   NORMALIZED FREE ENERGY PREDICTED BY IDOCK:   -2.25 KCAL/MOL
REMARK 922        TOTAL FREE ENERGY PREDICTED BY IDOCK:   -2.99 KCAL/MOL
REMARK 923 INTER-LIGAND FREE ENERGY PREDICTED BY IDOCK:   -2.91 KCAL/MOL
REMARK 924 INTRA-LIGAND FREE ENERGY PREDICTED BY IDOCK:   -0.09 KCAL/MOL
REMARK 927      BINDING AFFINITY PREDICTED BY RF-SCORE:    0.00 PKD
ROOT
HETATM    1  C   UNL     1     -11.961   8.259  72.520  1.00  0.00    -0.356 C  
HETATM    2  N   UNL     1     -10.970   7.191  72.491  1.00  0.00    -0.257 NA 
HETATM    3  H   UNL     1     -11.369   6.297  72.779  1.00  0.00     0.000 HD 
ENDROOT
BRANCH   2   4
HETATM    4  C   UNL     1     -10.339   7.104  71.166  1.00  0.00    -0.202 C  
BRANCH   4   5
HETATM    5  C   UNL     1     -11.385   6.821  70.082  1.00  0.00    -0.404 C  
BRANCH   5   6
HETATM    6  C   UNL     1     -10.814   5.974  68.971  1.00  0.00    -0.342 A  
HETATM    7  C   UNL     1     -10.022   4.865  69.255  1.00  0.00    -0.270 A  
HETATM    8  C   UNL     1      -9.500   4.121  68.199  1.00  0.00    -0.215 A  
HETATM    9  C   UNL     1      -9.777   4.505  66.894  1.00  0.00    -0.226 A  
HETATM   10  C   UNL     1     -10.567   5.622  66.696  1.00  0.00    -0.295 A  
HETATM   11  N   UNL     1     -11.087   6.360  67.701  1.00  0.00    -0.341 NA 
ENDBRANCH   5   6
ENDBRANCH   4   5
ENDBRANCH   2   4
TORSDOF 3
ENDMDL
MODEL      145
REMARK 921   NORMALIZED FREE ENERGY PREDICTED BY IDOCK:   -2.24 KCAL/MOL
REMARK 922        TOTAL FREE ENERGY PREDICTED BY IDOCK:   -2.98 KCAL/MOL
REMARK 923 INTER-LIGAND FREE ENERGY PREDICTED BY IDOCK:   -2.91 KCAL/MOL
REMARK 924 INTRA-LIGAND FREE ENERGY PREDICTED BY IDOCK:   -0.06 KCAL/MOL
REMARK 927      BINDING AFFINITY PREDICTED BY RF-SCORE:    0.00 PKD
ROOT
HETATM    1  C   UNL     1      -9.698  10.750  63.024  1.00  0.00    -0.340 C  
HETATM    2  N   UNL     1     -10.272  11.850  63.788  1.00  0.00    -0.375 NA 
HETATM    3  H   UNL     1     -10.941  12.386  63.235  1.00  0.00     0.000 HD 
ENDROOT
BRANCH   2   4
HETATM    4  C   UNL     1     -10.869  11.358  65.038  1.00  0.00    -0.246 C  
BRANCH   4   5
HETATM    5  C   UNL     1      -9.887  11.508  66.206  1.00  0.00    -0.245 C  
BRANCH   5   6
HETATM    6  C   UNL     1     -10.537  11.159  67.523  1.00  0.00    -0.221 A  
HETATM    7  C   UNL     1     -11.536  11.965  68.059  1.00  0.00    -0.401 A  
HETATM    8  C   UNL     1     -12.097  11.617  69.285  1.00  0.00    -0.323 A  
HETATM    9  C   UNL     1     -11.645  10.481  69.944  1.00  0.00    -0.384 A  
HETATM   10  C   UNL     1     -10.644   9.737  69.346  1.00  0.00    -0.228 A  
HETATM   11  N   UNL     1     -10.084  10.051  68.157  1.00  0.00    -0.153 NA 
ENDBRANCH   5   6
ENDBRANCH   4   5
ENDBRANCH   2   4
TORSDOF 3
ENDMDL
MODEL      146
REMARK 921   NORMALIZED FREE ENERGY PREDICTED BY IDOCK:   -2.23 KCAL/MOL
REMARK 922        TOTAL FREE ENERGY PREDICTED BY IDOCK:   -2.97 KCAL/MOL
REMARK 923 INTER-LIGAND FREE ENERGY PREDICTED BY IDOCK:   -2.65 KCAL/MOL
REMARK 924 INTRA-LIGAND FREE ENERGY PREDICTED BY IDOCK:   -0.32 KCAL/MOL
REMARK 927      BINDING AFFINITY PREDICTED BY RF-SCORE:    0.00 PKD
ROOT
HETATM    1  C   UNL     1     -10.786  19.633  67.062  1.00  0.00    -0.455 C  
HETATM    2  N   UNL     1      -9.406  19.165  67.081  1.00  0.00    -0.304 NA 
HETATM    3  H   UNL     1      -8.851  19.594  66.340  1.00  0.00     0.000 HD 
ENDROOT
BRANCH   2   4
HETATM    4  C   UNL     1      -8.803  19.378  68.405  1.00  0.00    -0.352 C  
BRANCH   4   5
HETATM    5  C   UNL     1      -7.363  18.855  68.437  1.00  0.00    -0.318 C  
BRANCH   5   6
HETATM    6  C   UNL     1      -7.314  17.395  68.819  1.00  0.00    -0.257 A  
HETATM    7  C   UNL     1      -6.153  16.836  69.344  1.00  0.00    -0.211 A  
HETATM    8  C   UNL     1      -6.145  15.480  69.667  1.00  0.00    -0.150 A  
HETATM    9  C   UNL     1      -7.288  14.722  69.453  1.00  0.00    -0.162 A  
HETATM   10  C   UNL     1      -8.399  15.353  68.921  1.00  0.00    -0.203 A  
HETATM   11  N   UNL     1      -8.434  16.665  68.602  1.00  0.00    -0.243 NA 
ENDBRANCH   5   6
ENDBRANCH   4   5
ENDBRANCH   2   4
TORSDOF 3
ENDMDL
MODEL      147
REMARK 921   NORMALIZED FREE ENERGY PREDICTED BY IDOCK:   -2.23 KCAL/MOL
REMARK 922        TOTAL FREE ENERGY PREDICTED BY IDOCK:   -2.96 KCAL/MOL
REMARK 923 INTER-LIGAND FREE ENERGY PREDICTED BY IDOCK:   -2.68 KCAL/MOL
REMARK 924 INTRA-LIGAND FREE ENERGY PREDICTED BY IDOCK:   -0.28 KCAL/MOL
REMARK 927      BINDING AFFINITY PREDICTED BY RF-SCORE:    0.00 PKD
ROOT
HETATM    1  C   UNL     1      -6.169  16.775  68.582  1.00  0.00    -0.151 C  
HETATM    2  N   UNL     1      -7.199  16.049  67.852  1.00  0.00    -0.126 NA 
HETATM    3  H   UNL     1      -7.583  15.281  68.402  1.00  0.00     0.000 HD 
ENDROOT
BRANCH   2   4
HETATM    4  C   UNL     1      -8.252  16.966  67.389  1.00  0.00    -0.182 C  
BRANCH   4   5
HETATM    5  C   UNL     1      -8.741  16.572  65.991  1.00  0.00    -0.255 C  
BRANCH   5   6
HETATM    6  C   UNL     1      -9.740  15.441  66.053  1.00  0.00    -0.338 A  
HETATM    7  C   UNL     1     -10.871  15.446  65.242  1.00  0.00    -0.423 A  
HETATM    8  C   UNL     1     -11.777  14.392  65.344  1.00  0.00    -0.362 A  
HETATM    9  C   UNL     1     -11.533  13.369  66.250  1.00  0.00    -0.354 A  
HETATM   10  C   UNL     1     -10.388  13.442  67.023  1.00  0.00    -0.247 A  
HETATM   11  N   UNL     1      -9.493  14.451  66.944  1.00  0.00    -0.247 NA 
ENDBRANCH   5   6
ENDBRANCH   4   5
ENDBRANCH   2   4
TORSDOF 3
ENDMDL
MODEL      148
REMARK 921   NORMALIZED FREE ENERGY PREDICTED BY IDOCK:   -2.22 KCAL/MOL
REMARK 922        TOTAL FREE ENERGY PREDICTED BY IDOCK:   -2.96 KCAL/MOL
REMARK 923 INTER-LIGAND FREE ENERGY PREDICTED BY IDOCK:   -2.66 KCAL/MOL
REMARK 924 INTRA-LIGAND FREE ENERGY PREDICTED BY IDOCK:   -0.30 KCAL/MOL
REMARK 927      BINDING AFFINITY PREDICTED BY RF-SCORE:    0.00 PKD
ROOT
HETATM    1  C   UNL     1     -10.513  19.378  65.954  1.00  0.00    -0.472 C  
HETATM    2  N   UNL     1      -9.624  18.223  65.964  1.00  0.00    -0.515 NA 
HETATM    3  H   UNL     1      -9.022  18.216  66.787  1.00  0.00     0.000 HD 
ENDROOT
BRANCH   2   4
HETATM    4  C   UNL     1     -10.392  16.976  65.839  1.00  0.00    -0.298 C  
BRANCH   4   5
HETATM    5  C   UNL     1      -9.462  15.758  65.880  1.00  0.00    -0.377 C  
BRANCH   5   6
HETATM    6  C   UNL     1      -8.506  15.831  67.045  1.00  0.00    -0.220 A  
HETATM    7  C   UNL     1      -7.130  15.785  66.841  1.00  0.00    -0.074 A  
HETATM    8  C   UNL     1      -6.283  15.838  67.947  1.00  0.00    -0.158 A  
HETATM    9  C   UNL     1      -6.829  15.930  69.220  1.00  0.00    -0.189 A  
HETATM   10  C   UNL     1      -8.207  15.965  69.337  1.00  0.00    -0.174 A  
HETATM   11  N   UNL     1      -9.051  15.917  68.283  1.00  0.00    -0.182 NA 
ENDBRANCH   5   6
ENDBRANCH   4   5
ENDBRANCH   2   4
TORSDOF 3
ENDMDL
MODEL      149
REMARK 921   NORMALIZED FREE ENERGY PREDICTED BY IDOCK:   -2.22 KCAL/MOL
REMARK 922        TOTAL FREE ENERGY PREDICTED BY IDOCK:   -2.95 KCAL/MOL
REMARK 923 INTER-LIGAND FREE ENERGY PREDICTED BY IDOCK:   -2.88 KCAL/MOL
REMARK 924 INTRA-LIGAND FREE ENERGY PREDICTED BY IDOCK:   -0.07 KCAL/MOL
REMARK 927      BINDING AFFINITY PREDICTED BY RF-SCORE:    0.00 PKD
ROOT
HETATM    1  C   UNL     1     -10.380   7.943  70.417  1.00  0.00    -0.212 C  
HETATM    2  N   UNL     1     -11.410   8.833  69.898  1.00  0.00    -0.445 NA 
HETATM    3  H   UNL     1     -11.959   9.255  70.648  1.00  0.00     0.000 HD 
ENDROOT
BRANCH   2   4
HETATM    4  C   UNL     1     -10.821   9.851  69.015  1.00  0.00    -0.215 C  
BRANCH   4   5
HETATM    5  C   UNL     1     -11.824  10.977  68.738  1.00  0.00    -0.352 C  
BRANCH   5   6
HETATM    6  C   UNL     1     -11.169  12.139  68.032  1.00  0.00    -0.264 A  
HETATM    7  C   UNL     1      -9.809  12.392  68.189  1.00  0.00    -0.213 A  
HETATM    8  C   UNL     1      -9.248  13.485  67.533  1.00  0.00    -0.219 A  
HETATM    9  C   UNL     1     -10.055  14.296  66.746  1.00  0.00    -0.264 A  
HETATM   10  C   UNL     1     -11.398  13.979  66.647  1.00  0.00    -0.335 A  
HETATM   11  N   UNL     1     -11.967  12.924  67.270  1.00  0.00    -0.361 NA 
ENDBRANCH   5   6
ENDBRANCH   4   5
ENDBRANCH   2   4
TORSDOF 3
ENDMDL
MODEL      150
REMARK 921   NORMALIZED FREE ENERGY PREDICTED BY IDOCK:   -2.20 KCAL/MOL
REMARK 922        TOTAL FREE ENERGY PREDICTED BY IDOCK:   -2.93 KCAL/MOL
REMARK 923 INTER-LIGAND FREE ENERGY PREDICTED BY IDOCK:   -2.62 KCAL/MOL
REMARK 924 INTRA-LIGAND FREE ENERGY PREDICTED BY IDOCK:   -0.31 KCAL/MOL
REMARK 927      BINDING AFFINITY PREDICTED BY RF-SCORE:    0.00 PKD
ROOT
HETATM    1  C   UNL     1      -5.859  15.344  69.574  1.00  0.00    -0.118 C  
HETATM    2  N   UNL     1      -7.206  15.265  69.024  1.00  0.00    -0.137 NA 
HETATM    3  H   UNL     1      -7.781  16.056  69.315  1.00  0.00     0.000 HD 
ENDROOT
BRANCH   2   4
HETATM    4  C   UNL     1      -7.163  15.133  67.560  1.00  0.00    -0.200 C  
BRANCH   4   5
HETATM    5  C   UNL     1      -7.127  16.511  66.891  1.00  0.00    -0.262 C  
BRANCH   5   6
HETATM    6  C   UNL     1      -8.260  17.387  67.366  1.00  0.00    -0.201 A  
HETATM    7  C   UNL     1      -8.005  18.620  67.961  1.00  0.00    -0.294 A  
HETATM    8  C   UNL     1      -9.080  19.389  68.402  1.00  0.00    -0.410 A  
HETATM    9  C   UNL     1     -10.373  18.908  68.243  1.00  0.00    -0.400 A  
HETATM   10  C   UNL     1     -10.540  17.671  67.648  1.00  0.00    -0.362 A  
HETATM   11  N   UNL     1      -9.517  16.906  67.210  1.00  0.00    -0.239 NA 
ENDBRANCH   5   6
ENDBRANCH   4   5
ENDBRANCH   2   4
TORSDOF 3
ENDMDL
MODEL      151
REMARK 921   NORMALIZED FREE ENERGY PREDICTED BY IDOCK:   -2.20 KCAL/MOL
REMARK 922        TOTAL FREE ENERGY PREDICTED BY IDOCK:   -2.93 KCAL/MOL
REMARK 923 INTER-LIGAND FREE ENERGY PREDICTED BY IDOCK:   -2.85 KCAL/MOL
REMARK 924 INTRA-LIGAND FREE ENERGY PREDICTED BY IDOCK:   -0.08 KCAL/MOL
REMARK 927      BINDING AFFINITY PREDICTED BY RF-SCORE:    0.00 PKD
ROOT
HETATM    1  C   UNL     1     -11.313   1.989  73.313  1.00  0.00    -0.141 C  
HETATM    2  N   UNL     1     -10.231   2.576  72.534  1.00  0.00    -0.161 NA 
HETATM    3  H   UNL     1     -10.416   2.525  71.532  1.00  0.00     0.000 HD 
ENDROOT
BRANCH   2   4
HETATM    4  C   UNL     1      -9.966   3.955  72.969  1.00  0.00    -0.137 C  
BRANCH   4   5
HETATM    5  C   UNL     1     -11.273   4.678  73.312  1.00  0.00    -0.411 C  
BRANCH   5   6
HETATM    6  C   UNL     1     -11.295   6.078  72.748  1.00  0.00    -0.242 A  
HETATM    7  C   UNL     1     -10.307   6.998  73.086  1.00  0.00    -0.314 A  
HETATM    8  C   UNL     1     -10.375   8.285  72.556  1.00  0.00    -0.401 A  
HETATM    9  C   UNL     1     -11.424   8.619  71.710  1.00  0.00    -0.394 A  
HETATM   10  C   UNL     1     -12.368   7.648  71.428  1.00  0.00    -0.333 A  
HETATM   11  N   UNL     1     -12.325   6.393  71.926  1.00  0.00    -0.312 NA 
ENDBRANCH   5   6
ENDBRANCH   4   5
ENDBRANCH   2   4
TORSDOF 3
ENDMDL
MODEL      152
REMARK 921   NORMALIZED FREE ENERGY PREDICTED BY IDOCK:   -2.20 KCAL/MOL
REMARK 922        TOTAL FREE ENERGY PREDICTED BY IDOCK:   -2.93 KCAL/MOL
REMARK 923 INTER-LIGAND FREE ENERGY PREDICTED BY IDOCK:   -2.62 KCAL/MOL
REMARK 924 INTRA-LIGAND FREE ENERGY PREDICTED BY IDOCK:   -0.30 KCAL/MOL
REMARK 927      BINDING AFFINITY PREDICTED BY RF-SCORE:    0.00 PKD
ROOT
HETATM    1  C   UNL     1     -11.358   1.968  73.454  1.00  0.00    -0.189 C  
HETATM    2  N   UNL     1     -10.014   2.427  73.129  1.00  0.00    -0.106 NA 
HETATM    3  H   UNL     1      -9.845   2.420  72.123  1.00  0.00     0.000 HD 
ENDROOT
BRANCH   2   4
HETATM    4  C   UNL     1      -9.763   3.753  73.714  1.00  0.00    -0.107 C  
BRANCH   4   5
HETATM    5  C   UNL     1     -10.958   4.684  73.485  1.00  0.00    -0.395 C  
BRANCH   5   6
HETATM    6  C   UNL     1     -10.955   5.252  72.086  1.00  0.00    -0.160 A  
HETATM    7  C   UNL     1     -11.834   6.271  71.730  1.00  0.00    -0.342 A  
HETATM    8  C   UNL     1     -11.811   6.754  70.423  1.00  0.00    -0.395 A  
HETATM    9  C   UNL     1     -10.919   6.207  69.510  1.00  0.00    -0.463 A  
HETATM   10  C   UNL     1     -10.083   5.193  69.943  1.00  0.00    -0.272 A  
HETATM   11  N   UNL     1     -10.084   4.707  71.203  1.00  0.00    -0.194 NA 
ENDBRANCH   5   6
ENDBRANCH   4   5
ENDBRANCH   2   4
TORSDOF 3
ENDMDL
MODEL      153
REMARK 921   NORMALIZED FREE ENERGY PREDICTED BY IDOCK:   -2.19 KCAL/MOL
REMARK 922        TOTAL FREE ENERGY PREDICTED BY IDOCK:   -2.92 KCAL/MOL
REMARK 923 INTER-LIGAND FREE ENERGY PREDICTED BY IDOCK:   -2.82 KCAL/MOL
REMARK 924 INTRA-LIGAND FREE ENERGY PREDICTED BY IDOCK:   -0.10 KCAL/MOL
REMARK 927      BINDING AFFINITY PREDICTED BY RF-SCORE:    0.00 PKD
ROOT
HETATM    1  C   UNL     1      -6.954  10.648  66.385  1.00  0.00    -0.129 C  
HETATM    2  N   UNL     1      -8.126  11.388  65.937  1.00  0.00    -0.369 NA 
HETATM    3  H   UNL     1      -8.584  10.930  65.149  1.00  0.00     0.000 HD 
ENDROOT
BRANCH   2   4
HETATM    4  C   UNL     1      -9.056  11.613  67.053  1.00  0.00    -0.179 C  
BRANCH   4   5
HETATM    5  C   UNL     1      -8.655  10.777  68.273  1.00  0.00    -0.135 C  
BRANCH   5   6
HETATM    6  C   UNL     1      -9.825  10.555  69.200  1.00  0.00    -0.218 A  
HETATM    7  C   UNL     1     -11.014  11.259  69.027  1.00  0.00    -0.288 A  
HETATM    8  C   UNL     1     -12.063  11.037  69.916  1.00  0.00    -0.435 A  
HETATM    9  C   UNL     1     -11.899  10.126  70.952  1.00  0.00    -0.468 A  
HETATM   10  C   UNL     1     -10.684   9.473  71.057  1.00  0.00    -0.340 A  
HETATM   11  N   UNL     1      -9.651   9.668  70.209  1.00  0.00    -0.256 NA 
ENDBRANCH   5   6
ENDBRANCH   4   5
ENDBRANCH   2   4
TORSDOF 3
ENDMDL
MODEL      154
REMARK 921   NORMALIZED FREE ENERGY PREDICTED BY IDOCK:   -2.16 KCAL/MOL
REMARK 922        TOTAL FREE ENERGY PREDICTED BY IDOCK:   -2.88 KCAL/MOL
REMARK 923 INTER-LIGAND FREE ENERGY PREDICTED BY IDOCK:   -2.76 KCAL/MOL
REMARK 924 INTRA-LIGAND FREE ENERGY PREDICTED BY IDOCK:   -0.13 KCAL/MOL
REMARK 927      BINDING AFFINITY PREDICTED BY RF-SCORE:    0.00 PKD
ROOT
HETATM    1  C   UNL     1      -8.726   9.162  68.769  1.00  0.00    -0.132 C  
HETATM    2  N   UNL     1      -8.780  10.504  69.334  1.00  0.00    -0.328 NA 
HETATM    3  H   UNL     1      -8.305  10.554  70.235  1.00  0.00     0.000 HD 
ENDROOT
BRANCH   2   4
HETATM    4  C   UNL     1      -8.248  11.490  68.382  1.00  0.00    -0.152 C  
BRANCH   4   5
HETATM    5  C   UNL     1      -8.934  11.355  67.018  1.00  0.00    -0.166 C  
BRANCH   5   6
HETATM    6  C   UNL     1     -10.047  12.362  66.858  1.00  0.00    -0.219 A  
HETATM    7  C   UNL     1      -9.950  13.627  67.430  1.00  0.00    -0.234 A  
HETATM    8  C   UNL     1     -11.008  14.520  67.273  1.00  0.00    -0.307 A  
HETATM    9  C   UNL     1     -12.132  14.127  66.557  1.00  0.00    -0.481 A  
HETATM   10  C   UNL     1     -12.152  12.850  66.026  1.00  0.00    -0.422 A  
HETATM   11  N   UNL     1     -11.140  11.966  66.161  1.00  0.00    -0.316 NA 
ENDBRANCH   5   6
ENDBRANCH   4   5
ENDBRANCH   2   4
TORSDOF 3
ENDMDL
MODEL      155
REMARK 921   NORMALIZED FREE ENERGY PREDICTED BY IDOCK:   -2.15 KCAL/MOL
REMARK 922        TOTAL FREE ENERGY PREDICTED BY IDOCK:   -2.87 KCAL/MOL
REMARK 923 INTER-LIGAND FREE ENERGY PREDICTED BY IDOCK:   -2.56 KCAL/MOL
REMARK 924 INTRA-LIGAND FREE ENERGY PREDICTED BY IDOCK:   -0.31 KCAL/MOL
REMARK 927      BINDING AFFINITY PREDICTED BY RF-SCORE:    0.00 PKD
ROOT
HETATM    1  C   UNL     1      -9.743  10.833  63.348  1.00  0.00    -0.351 C  
HETATM    2  N   UNL     1      -9.122  11.610  64.413  1.00  0.00    -0.396 NA 
HETATM    3  H   UNL     1      -8.734  12.486  64.065  1.00  0.00     0.000 HD 
ENDROOT
BRANCH   2   4
HETATM    4  C   UNL     1     -10.072  11.834  65.514  1.00  0.00    -0.249 C  
BRANCH   4   5
HETATM    5  C   UNL     1      -9.558  11.203  66.812  1.00  0.00    -0.215 C  
BRANCH   5   6
HETATM    6  C   UNL     1      -9.470   9.700  66.699  1.00  0.00    -0.170 A  
HETATM    7  C   UNL     1     -10.536   8.893  67.086  1.00  0.00    -0.344 A  
HETATM    8  C   UNL     1     -10.406   7.510  66.982  1.00  0.00    -0.395 A  
HETATM    9  C   UNL     1      -9.220   6.971  66.501  1.00  0.00    -0.198 A  
HETATM   10  C   UNL     1      -8.207   7.842  66.143  1.00  0.00    -0.123 A  
HETATM   11  N   UNL     1      -8.306   9.186  66.232  1.00  0.00    -0.117 NA 
ENDBRANCH   5   6
ENDBRANCH   4   5
ENDBRANCH   2   4
TORSDOF 3
ENDMDL
MODEL      156
REMARK 921   NORMALIZED FREE ENERGY PREDICTED BY IDOCK:   -2.15 KCAL/MOL
REMARK 922        TOTAL FREE ENERGY PREDICTED BY IDOCK:   -2.87 KCAL/MOL
REMARK 923 INTER-LIGAND FREE ENERGY PREDICTED BY IDOCK:   -2.59 KCAL/MOL
REMARK 924 INTRA-LIGAND FREE ENERGY PREDICTED BY IDOCK:   -0.28 KCAL/MOL
REMARK 927      BINDING AFFINITY PREDICTED BY RF-SCORE:    0.00 PKD
ROOT
HETATM    1  C   UNL     1      -6.545  12.304  67.325  1.00  0.00    -0.146 C  
HETATM    2  N   UNL     1      -7.826  12.168  66.644  1.00  0.00    -0.385 NA 
HETATM    3  H   UNL     1      -7.750  11.591  65.806  1.00  0.00     0.000 HD 
ENDROOT
BRANCH   2   4
HETATM    4  C   UNL     1      -8.853  11.659  67.565  1.00  0.00    -0.158 C  
BRANCH   4   5
HETATM    5  C   UNL     1      -9.910  10.849  66.806  1.00  0.00    -0.231 C  
BRANCH   5   6
HETATM    6  C   UNL     1      -9.641  10.843  65.321  1.00  0.00    -0.229 A  
HETATM    7  C   UNL     1     -10.394  11.635  64.458  1.00  0.00    -0.349 A  
HETATM    8  C   UNL     1     -10.124  11.587  63.092  1.00  0.00    -0.395 A  
HETATM    9  C   UNL     1      -9.119  10.750  62.625  1.00  0.00    -0.343 A  
HETATM   10  C   UNL     1      -8.422   9.992  63.547  1.00  0.00    -0.187 A  
HETATM   11  N   UNL     1      -8.661  10.020  64.876  1.00  0.00    -0.168 NA 
ENDBRANCH   5   6
ENDBRANCH   4   5
ENDBRANCH   2   4
TORSDOF 3
ENDMDL
MODEL      157
REMARK 921   NORMALIZED FREE ENERGY PREDICTED BY IDOCK:   -2.14 KCAL/MOL
REMARK 922        TOTAL FREE ENERGY PREDICTED BY IDOCK:   -2.86 KCAL/MOL
REMARK 923 INTER-LIGAND FREE ENERGY PREDICTED BY IDOCK:   -2.49 KCAL/MOL
REMARK 924 INTRA-LIGAND FREE ENERGY PREDICTED BY IDOCK:   -0.37 KCAL/MOL
REMARK 927      BINDING AFFINITY PREDICTED BY RF-SCORE:    0.00 PKD
ROOT
HETATM    1  C   UNL     1      -8.726   7.477  73.627  1.00  0.00    -0.207 C  
HETATM    2  N   UNL     1      -9.826   7.759  72.714  1.00  0.00    -0.221 NA 
HETATM    3  H   UNL     1      -9.551   7.629  71.740  1.00  0.00     0.000 HD 
ENDROOT
BRANCH   2   4
HETATM    4  C   UNL     1     -11.006   6.952  73.059  1.00  0.00    -0.274 C  
BRANCH   4   5
HETATM    5  C   UNL     1     -11.044   5.662  72.231  1.00  0.00    -0.318 C  
BRANCH   5   6
HETATM    6  C   UNL     1     -10.600   5.905  70.809  1.00  0.00    -0.265 A  
HETATM    7  C   UNL     1     -11.508   6.327  69.843  1.00  0.00    -0.459 A  
HETATM    8  C   UNL     1     -11.060   6.522  68.538  1.00  0.00    -0.347 A  
HETATM    9  C   UNL     1      -9.726   6.287  68.233  1.00  0.00    -0.122 A  
HETATM   10  C   UNL     1      -8.890   5.863  69.250  1.00  0.00    -0.118 A  
HETATM   11  N   UNL     1      -9.297   5.668  70.523  1.00  0.00    -0.158 NA 
ENDBRANCH   5   6
ENDBRANCH   4   5
ENDBRANCH   2   4
TORSDOF 3
ENDMDL
MODEL      158
REMARK 921   NORMALIZED FREE ENERGY PREDICTED BY IDOCK:   -2.14 KCAL/MOL
REMARK 922        TOTAL FREE ENERGY PREDICTED BY IDOCK:   -2.85 KCAL/MOL
REMARK 923 INTER-LIGAND FREE ENERGY PREDICTED BY IDOCK:   -2.55 KCAL/MOL
REMARK 924 INTRA-LIGAND FREE ENERGY PREDICTED BY IDOCK:   -0.31 KCAL/MOL
REMARK 927      BINDING AFFINITY PREDICTED BY RF-SCORE:    0.00 PKD
ROOT
HETATM    1  C   UNL     1     -10.286  16.413  67.572  1.00  0.00    -0.273 C  
HETATM    2  N   UNL     1     -10.480  15.084  67.009  1.00  0.00    -0.273 NA 
HETATM    3  H   UNL     1     -10.144  14.354  67.637  1.00  0.00     0.000 HD 
ENDROOT
BRANCH   2   4
HETATM    4  C   UNL     1     -11.888  14.877  66.638  1.00  0.00    -0.156 C  
BRANCH   4   5
HETATM    5  C   UNL     1     -12.396  13.529  67.162  1.00  0.00    -0.220 C  
BRANCH   5   6
HETATM    6  C   UNL     1     -11.389  12.430  66.926  1.00  0.00    -0.333 A  
HETATM    7  C   UNL     1     -11.194  11.428  67.873  1.00  0.00    -0.352 A  
HETATM    8  C   UNL     1     -10.242  10.442  67.624  1.00  0.00    -0.240 A  
HETATM    9  C   UNL     1      -9.510  10.484  66.444  1.00  0.00    -0.208 A  
HETATM   10  C   UNL     1      -9.760  11.516  65.558  1.00  0.00    -0.230 A  
HETATM   11  N   UNL     1     -10.678  12.483  65.774  1.00  0.00    -0.263 NA 
ENDBRANCH   5   6
ENDBRANCH   4   5
ENDBRANCH   2   4
TORSDOF 3
ENDMDL
MODEL      159
REMARK 921   NORMALIZED FREE ENERGY PREDICTED BY IDOCK:   -2.11 KCAL/MOL
REMARK 922        TOTAL FREE ENERGY PREDICTED BY IDOCK:   -2.82 KCAL/MOL
REMARK 923 INTER-LIGAND FREE ENERGY PREDICTED BY IDOCK:   -2.73 KCAL/MOL
REMARK 924 INTRA-LIGAND FREE ENERGY PREDICTED BY IDOCK:   -0.10 KCAL/MOL
REMARK 927      BINDING AFFINITY PREDICTED BY RF-SCORE:    0.00 PKD
ROOT
HETATM    1  C   UNL     1      -5.253  19.957  71.767  1.00  0.00    -0.408 C  
HETATM    2  N   UNL     1      -5.649  19.220  70.575  1.00  0.00    -0.229 NA 
HETATM    3  H   UNL     1      -5.991  18.287  70.804  1.00  0.00     0.000 HD 
ENDROOT
BRANCH   2   4
HETATM    4  C   UNL     1      -6.632  19.984  69.794  1.00  0.00    -0.298 C  
BRANCH   4   5
HETATM    5  C   UNL     1      -6.308  19.918  68.297  1.00  0.00    -0.295 C  
BRANCH   5   6
HETATM    6  C   UNL     1      -7.083  18.819  67.612  1.00  0.00    -0.211 A  
HETATM    7  C   UNL     1      -6.423  17.740  67.031  1.00  0.00    -0.189 A  
HETATM    8  C   UNL     1      -7.175  16.755  66.393  1.00  0.00    -0.226 A  
HETATM    9  C   UNL     1      -8.558  16.875  66.348  1.00  0.00    -0.328 A  
HETATM   10  C   UNL     1      -9.135  17.981  66.946  1.00  0.00    -0.269 A  
HETATM   11  N   UNL     1      -8.431  18.949  67.572  1.00  0.00    -0.272 NA 
ENDBRANCH   5   6
ENDBRANCH   4   5
ENDBRANCH   2   4
TORSDOF 3
ENDMDL
MODEL      160
REMARK 921   NORMALIZED FREE ENERGY PREDICTED BY IDOCK:   -2.11 KCAL/MOL
REMARK 922        TOTAL FREE ENERGY PREDICTED BY IDOCK:   -2.82 KCAL/MOL
REMARK 923 INTER-LIGAND FREE ENERGY PREDICTED BY IDOCK:   -2.47 KCAL/MOL
REMARK 924 INTRA-LIGAND FREE ENERGY PREDICTED BY IDOCK:   -0.35 KCAL/MOL
REMARK 927      BINDING AFFINITY PREDICTED BY RF-SCORE:    0.00 PKD
ROOT
HETATM    1  C   UNL     1     -10.292  10.787  64.809  1.00  0.00    -0.310 C  
HETATM    2  N   UNL     1     -10.939  11.755  65.685  1.00  0.00    -0.300 NA 
HETATM    3  H   UNL     1     -11.225  11.334  66.569  1.00  0.00     0.000 HD 
ENDROOT
BRANCH   2   4
HETATM    4  C   UNL     1     -10.075  12.926  65.894  1.00  0.00    -0.289 C  
BRANCH   4   5
HETATM    5  C   UNL     1     -10.031  13.312  67.377  1.00  0.00    -0.233 C  
BRANCH   5   6
HETATM    6  C   UNL     1      -9.927  12.093  68.261  1.00  0.00    -0.212 A  
HETATM    7  C   UNL     1      -8.714  11.429  68.418  1.00  0.00    -0.157 A  
HETATM    8  C   UNL     1      -8.666  10.298  69.230  1.00  0.00    -0.182 A  
HETATM    9  C   UNL     1      -9.825   9.859  69.857  1.00  0.00    -0.285 A  
HETATM   10  C   UNL     1     -10.990  10.572  69.645  1.00  0.00    -0.283 A  
HETATM   11  N   UNL     1     -11.065  11.672  68.865  1.00  0.00    -0.216 NA 
ENDBRANCH   5   6
ENDBRANCH   4   5
ENDBRANCH   2   4
TORSDOF 3
ENDMDL
MODEL      161
REMARK 921   NORMALIZED FREE ENERGY PREDICTED BY IDOCK:   -2.11 KCAL/MOL
REMARK 922        TOTAL FREE ENERGY PREDICTED BY IDOCK:   -2.82 KCAL/MOL
REMARK 923 INTER-LIGAND FREE ENERGY PREDICTED BY IDOCK:   -2.52 KCAL/MOL
REMARK 924 INTRA-LIGAND FREE ENERGY PREDICTED BY IDOCK:   -0.30 KCAL/MOL
REMARK 927      BINDING AFFINITY PREDICTED BY RF-SCORE:    0.00 PKD
ROOT
HETATM    1  C   UNL     1     -11.252   9.644  68.862  1.00  0.00     0.025 C  
HETATM    2  N   UNL     1     -11.823  10.953  68.573  1.00  0.00    -0.676 NA 
HETATM    3  H   UNL     1     -11.563  11.643  69.278  1.00  0.00     0.000 HD 
ENDROOT
BRANCH   2   4
HETATM    4  C   UNL     1     -11.455  11.394  67.219  1.00  0.00    -0.224 C  
BRANCH   4   5
HETATM    5  C   UNL     1     -11.481  12.923  67.119  1.00  0.00    -0.388 C  
BRANCH   5   6
HETATM    6  C   UNL     1     -10.089  13.504  67.175  1.00  0.00    -0.245 A  
HETATM    7  C   UNL     1      -9.803  14.726  66.573  1.00  0.00    -0.287 A  
HETATM    8  C   UNL     1      -8.502  15.218  66.634  1.00  0.00    -0.264 A  
HETATM    9  C   UNL     1      -7.523  14.480  67.287  1.00  0.00    -0.126 A  
HETATM   10  C   UNL     1      -7.889  13.273  67.855  1.00  0.00    -0.152 A  
HETATM   11  N   UNL     1      -9.143  12.773  67.812  1.00  0.00    -0.187 NA 
ENDBRANCH   5   6
ENDBRANCH   4   5
ENDBRANCH   2   4
TORSDOF 3
ENDMDL
MODEL      162
REMARK 921   NORMALIZED FREE ENERGY PREDICTED BY IDOCK:   -2.10 KCAL/MOL
REMARK 922        TOTAL FREE ENERGY PREDICTED BY IDOCK:   -2.82 KCAL/MOL
REMARK 923 INTER-LIGAND FREE ENERGY PREDICTED BY IDOCK:   -2.73 KCAL/MOL
REMARK 924 INTRA-LIGAND FREE ENERGY PREDICTED BY IDOCK:   -0.09 KCAL/MOL
REMARK 927      BINDING AFFINITY PREDICTED BY RF-SCORE:    0.00 PKD
ROOT
HETATM    1  C   UNL     1     -10.614  13.510  68.140  1.00  0.00    -0.245 C  
HETATM    2  N   UNL     1     -11.921  13.743  67.539  1.00  0.00    -0.383 NA 
HETATM    3  H   UNL     1     -11.990  14.677  67.134  1.00  0.00     0.000 HD 
ENDROOT
BRANCH   2   4
HETATM    4  C   UNL     1     -12.233  12.698  66.553  1.00  0.00    -0.060 C  
BRANCH   4   5
HETATM    5  C   UNL     1     -11.243  11.533  66.663  1.00  0.00    -0.336 C  
BRANCH   5   6
HETATM    6  C   UNL     1     -10.518  11.298  65.360  1.00  0.00    -0.268 A  
HETATM    7  C   UNL     1     -10.834  12.041  64.226  1.00  0.00    -0.389 A  
HETATM    8  C   UNL     1     -10.153  11.781  63.039  1.00  0.00    -0.263 A  
HETATM    9  C   UNL     1      -9.183  10.787  63.014  1.00  0.00    -0.320 A  
HETATM   10  C   UNL     1      -8.933  10.091  64.182  1.00  0.00    -0.236 A  
HETATM   11  N   UNL     1      -9.577  10.324  65.347  1.00  0.00    -0.229 NA 
ENDBRANCH   5   6
ENDBRANCH   4   5
ENDBRANCH   2   4
TORSDOF 3
ENDMDL
MODEL      163
REMARK 921   NORMALIZED FREE ENERGY PREDICTED BY IDOCK:   -2.06 KCAL/MOL
REMARK 922        TOTAL FREE ENERGY PREDICTED BY IDOCK:   -2.77 KCAL/MOL
REMARK 923 INTER-LIGAND FREE ENERGY PREDICTED BY IDOCK:   -2.47 KCAL/MOL
REMARK 924 INTRA-LIGAND FREE ENERGY PREDICTED BY IDOCK:   -0.30 KCAL/MOL
REMARK 927      BINDING AFFINITY PREDICTED BY RF-SCORE:    0.00 PKD
ROOT
HETATM    1  C   UNL     1      -6.442  10.588  67.755  1.00  0.00    -0.060 C  
HETATM    2  N   UNL     1      -7.560  11.395  68.225  1.00  0.00    -0.105 NA 
HETATM    3  H   UNL     1      -7.638  11.376  69.242  1.00  0.00     0.000 HD 
ENDROOT
BRANCH   2   4
HETATM    4  C   UNL     1      -7.461  12.769  67.712  1.00  0.00    -0.135 C  
BRANCH   4   5
HETATM    5  C   UNL     1      -8.641  13.618  68.200  1.00  0.00    -0.176 C  
BRANCH   5   6
HETATM    6  C   UNL     1      -9.811  13.535  67.250  1.00  0.00    -0.237 A  
HETATM    7  C   UNL     1     -10.994  14.217  67.518  1.00  0.00    -0.297 A  
HETATM    8  C   UNL     1     -12.057  14.099  66.624  1.00  0.00    -0.480 A  
HETATM    9  C   UNL     1     -11.913  13.303  65.496  1.00  0.00    -0.445 A  
HETATM   10  C   UNL     1     -10.707  12.653  65.306  1.00  0.00    -0.289 A  
HETATM   11  N   UNL     1      -9.661  12.751  66.155  1.00  0.00    -0.242 NA 
ENDBRANCH   5   6
ENDBRANCH   4   5
ENDBRANCH   2   4
TORSDOF 3
ENDMDL
MODEL      164
REMARK 921   NORMALIZED FREE ENERGY PREDICTED BY IDOCK:   -2.06 KCAL/MOL
REMARK 922        TOTAL FREE ENERGY PREDICTED BY IDOCK:   -2.77 KCAL/MOL
REMARK 923 INTER-LIGAND FREE ENERGY PREDICTED BY IDOCK:   -2.45 KCAL/MOL
REMARK 924 INTRA-LIGAND FREE ENERGY PREDICTED BY IDOCK:   -0.32 KCAL/MOL
REMARK 927      BINDING AFFINITY PREDICTED BY RF-SCORE:    0.00 PKD
ROOT
HETATM    1  C   UNL     1      -8.913  16.301  66.295  1.00  0.00    -0.331 C  
HETATM    2  N   UNL     1      -8.799  14.852  66.384  1.00  0.00    -0.460 NA 
HETATM    3  H   UNL     1      -8.450  14.446  65.515  1.00  0.00     0.000 HD 
ENDROOT
BRANCH   2   4
HETATM    4  C   UNL     1      -7.972  14.465  67.536  1.00  0.00    -0.192 C  
BRANCH   4   5
HETATM    5  C   UNL     1      -7.635  12.971  67.487  1.00  0.00    -0.166 C  
BRANCH   5   6
HETATM    6  C   UNL     1      -8.882  12.127  67.375  1.00  0.00    -0.181 A  
HETATM    7  C   UNL     1      -9.505  11.623  68.512  1.00  0.00    -0.175 A  
HETATM    8  C   UNL     1     -10.643  10.834  68.363  1.00  0.00    -0.228 A  
HETATM    9  C   UNL     1     -11.124  10.565  67.088  1.00  0.00    -0.232 A  
HETATM   10  C   UNL     1     -10.443  11.098  66.009  1.00  0.00    -0.256 A  
HETATM   11  N   UNL     1      -9.339  11.868  66.125  1.00  0.00    -0.227 NA 
ENDBRANCH   5   6
ENDBRANCH   4   5
ENDBRANCH   2   4
TORSDOF 3
ENDMDL
MODEL      165
REMARK 921   NORMALIZED FREE ENERGY PREDICTED BY IDOCK:   -2.06 KCAL/MOL
REMARK 922        TOTAL FREE ENERGY PREDICTED BY IDOCK:   -2.77 KCAL/MOL
REMARK 923 INTER-LIGAND FREE ENERGY PREDICTED BY IDOCK:   -2.67 KCAL/MOL
REMARK 924 INTRA-LIGAND FREE ENERGY PREDICTED BY IDOCK:   -0.10 KCAL/MOL
REMARK 927      BINDING AFFINITY PREDICTED BY RF-SCORE:    0.00 PKD
ROOT
HETATM    1  C   UNL     1     -10.808  16.498  67.975  1.00  0.00    -0.337 C  
HETATM    2  N   UNL     1     -10.590  16.543  66.535  1.00  0.00    -0.262 NA 
HETATM    3  H   UNL     1     -10.208  17.442  66.238  1.00  0.00     0.000 HD 
ENDROOT
BRANCH   2   4
HETATM    4  C   UNL     1      -9.743  15.422  66.102  1.00  0.00    -0.318 C  
BRANCH   4   5
HETATM    5  C   UNL     1      -9.311  14.572  67.302  1.00  0.00    -0.213 C  
BRANCH   5   6
HETATM    6  C   UNL     1      -9.756  13.137  67.152  1.00  0.00    -0.235 A  
HETATM    7  C   UNL     1      -9.994  12.595  65.892  1.00  0.00    -0.274 A  
HETATM    8  C   UNL     1     -10.420  11.272  65.799  1.00  0.00    -0.310 A  
HETATM    9  C   UNL     1     -10.602  10.530  66.959  1.00  0.00    -0.310 A  
HETATM   10  C   UNL     1     -10.349  11.146  68.172  1.00  0.00    -0.187 A  
HETATM   11  N   UNL     1      -9.933  12.426  68.291  1.00  0.00    -0.222 NA 
ENDBRANCH   5   6
ENDBRANCH   4   5
ENDBRANCH   2   4
TORSDOF 3
ENDMDL
MODEL      166
REMARK 921   NORMALIZED FREE ENERGY PREDICTED BY IDOCK:   -2.04 KCAL/MOL
REMARK 922        TOTAL FREE ENERGY PREDICTED BY IDOCK:   -2.74 KCAL/MOL
REMARK 923 INTER-LIGAND FREE ENERGY PREDICTED BY IDOCK:   -2.67 KCAL/MOL
REMARK 924 INTRA-LIGAND FREE ENERGY PREDICTED BY IDOCK:   -0.07 KCAL/MOL
REMARK 927      BINDING AFFINITY PREDICTED BY RF-SCORE:    0.00 PKD
ROOT
HETATM    1  C   UNL     1     -10.793  15.514  64.891  1.00  0.00    -0.427 C  
HETATM    2  N   UNL     1     -10.676  15.632  66.338  1.00  0.00    -0.306 NA 
HETATM    3  H   UNL     1     -10.366  14.759  66.765  1.00  0.00     0.000 HD 
ENDROOT
BRANCH   2   4
HETATM    4  C   UNL     1      -9.798  16.755  66.699  1.00  0.00    -0.277 C  
BRANCH   4   5
HETATM    5  C   UNL     1      -8.642  16.280  67.586  1.00  0.00    -0.181 C  
BRANCH   5   6
HETATM    6  C   UNL     1      -7.712  17.415  67.938  1.00  0.00    -0.199 A  
HETATM    7  C   UNL     1      -6.345  17.315  67.698  1.00  0.00    -0.166 A  
HETATM    8  C   UNL     1      -5.519  18.380  68.053  1.00  0.00    -0.158 A  
HETATM    9  C   UNL     1      -6.076  19.508  68.641  1.00  0.00    -0.267 A  
HETATM   10  C   UNL     1      -7.443  19.525  68.850  1.00  0.00    -0.357 A  
HETATM   11  N   UNL     1      -8.267  18.509  68.514  1.00  0.00    -0.332 NA 
ENDBRANCH   5   6
ENDBRANCH   4   5
ENDBRANCH   2   4
TORSDOF 3
ENDMDL
MODEL      167
REMARK 921   NORMALIZED FREE ENERGY PREDICTED BY IDOCK:   -2.04 KCAL/MOL
REMARK 922        TOTAL FREE ENERGY PREDICTED BY IDOCK:   -2.74 KCAL/MOL
REMARK 923 INTER-LIGAND FREE ENERGY PREDICTED BY IDOCK:   -2.65 KCAL/MOL
REMARK 924 INTRA-LIGAND FREE ENERGY PREDICTED BY IDOCK:   -0.09 KCAL/MOL
REMARK 927      BINDING AFFINITY PREDICTED BY RF-SCORE:    0.00 PKD
ROOT
HETATM    1  C   UNL     1     -11.182  14.284  64.914  1.00  0.00    -0.379 C  
HETATM    2  N   UNL     1     -11.599  14.268  66.309  1.00  0.00    -0.360 NA 
HETATM    3  H   UNL     1     -11.923  13.344  66.597  1.00  0.00     0.000 HD 
ENDROOT
BRANCH   2   4
HETATM    4  C   UNL     1     -10.522  14.762  67.180  1.00  0.00    -0.265 C  
BRANCH   4   5
HETATM    5  C   UNL     1      -9.384  15.365  66.348  1.00  0.00    -0.331 C  
BRANCH   5   6
HETATM    6  C   UNL     1      -8.520  16.283  67.178  1.00  0.00    -0.187 A  
HETATM    7  C   UNL     1      -9.028  17.478  67.678  1.00  0.00    -0.231 A  
HETATM    8  C   UNL     1      -8.191  18.306  68.424  1.00  0.00    -0.326 A  
HETATM    9  C   UNL     1      -6.875  17.922  68.646  1.00  0.00    -0.248 A  
HETATM   10  C   UNL     1      -6.447  16.722  68.109  1.00  0.00    -0.143 A  
HETATM   11  N   UNL     1      -7.237  15.900  67.384  1.00  0.00    -0.176 NA 
ENDBRANCH   5   6
ENDBRANCH   4   5
ENDBRANCH   2   4
TORSDOF 3
ENDMDL
MODEL      168
REMARK 921   NORMALIZED FREE ENERGY PREDICTED BY IDOCK:   -2.03 KCAL/MOL
REMARK 922        TOTAL FREE ENERGY PREDICTED BY IDOCK:   -2.73 KCAL/MOL
REMARK 923 INTER-LIGAND FREE ENERGY PREDICTED BY IDOCK:   -2.58 KCAL/MOL
REMARK 924 INTRA-LIGAND FREE ENERGY PREDICTED BY IDOCK:   -0.15 KCAL/MOL
REMARK 927      BINDING AFFINITY PREDICTED BY RF-SCORE:    0.00 PKD
ROOT
HETATM    1  C   UNL     1      -8.760   6.510  67.614  1.00  0.00    -0.114 C  
HETATM    2  N   UNL     1     -10.144   6.960  67.554  1.00  0.00    -0.159 NA 
HETATM    3  H   UNL     1     -10.524   6.889  66.610  1.00  0.00     0.000 HD 
ENDROOT
BRANCH   2   4
HETATM    4  C   UNL     1     -10.970   6.233  68.530  1.00  0.00    -0.340 C  
BRANCH   4   5
HETATM    5  C   UNL     1     -10.823   6.842  69.928  1.00  0.00    -0.310 C  
BRANCH   5   6
HETATM    6  C   UNL     1     -10.707   5.773  70.988  1.00  0.00    -0.258 A  
HETATM    7  C   UNL     1     -11.361   5.907  72.209  1.00  0.00    -0.351 A  
HETATM    8  C   UNL     1     -11.212   4.905  73.165  1.00  0.00    -0.403 A  
HETATM    9  C   UNL     1     -10.416   3.803  72.881  1.00  0.00    -0.246 A  
HETATM   10  C   UNL     1      -9.796   3.749  71.646  1.00  0.00    -0.170 A  
HETATM   11  N   UNL     1      -9.924   4.705  70.700  1.00  0.00    -0.226 NA 
ENDBRANCH   5   6
ENDBRANCH   4   5
ENDBRANCH   2   4
TORSDOF 3
ENDMDL
MODEL      169
REMARK 921   NORMALIZED FREE ENERGY PREDICTED BY IDOCK:   -2.03 KCAL/MOL
REMARK 922        TOTAL FREE ENERGY PREDICTED BY IDOCK:   -2.73 KCAL/MOL
REMARK 923 INTER-LIGAND FREE ENERGY PREDICTED BY IDOCK:   -2.66 KCAL/MOL
REMARK 924 INTRA-LIGAND FREE ENERGY PREDICTED BY IDOCK:   -0.08 KCAL/MOL
REMARK 927      BINDING AFFINITY PREDICTED BY RF-SCORE:    0.00 PKD
ROOT
HETATM    1  C   UNL     1     -10.122  13.608  68.316  1.00  0.00    -0.240 C  
HETATM    2  N   UNL     1     -11.071  13.754  67.221  1.00  0.00    -0.298 NA 
HETATM    3  H   UNL     1     -10.665  14.258  66.433  1.00  0.00     0.000 HD 
ENDROOT
BRANCH   2   4
HETATM    4  C   UNL     1     -11.602  12.444  66.815  1.00  0.00    -0.379 C  
BRANCH   4   5
HETATM    5  C   UNL     1     -11.778  11.528  68.031  1.00  0.00    -0.343 C  
BRANCH   5   6
HETATM    6  C   UNL     1     -11.031  10.228  67.856  1.00  0.00    -0.292 A  
HETATM    7  C   UNL     1     -10.509   9.868  66.617  1.00  0.00    -0.239 A  
HETATM    8  C   UNL     1      -9.842   8.651  66.495  1.00  0.00    -0.348 A  
HETATM    9  C   UNL     1      -9.718   7.827  67.606  1.00  0.00    -0.193 A  
HETATM   10  C   UNL     1     -10.270   8.256  68.799  1.00  0.00    -0.210 A  
HETATM   11  N   UNL     1     -10.921   9.431  68.946  1.00  0.00    -0.114 NA 
ENDBRANCH   5   6
ENDBRANCH   4   5
ENDBRANCH   2   4
TORSDOF 3
ENDMDL
MODEL      170
REMARK 921   NORMALIZED FREE ENERGY PREDICTED BY IDOCK:   -2.03 KCAL/MOL
REMARK 922        TOTAL FREE ENERGY PREDICTED BY IDOCK:   -2.73 KCAL/MOL
REMARK 923 INTER-LIGAND FREE ENERGY PREDICTED BY IDOCK:   -2.53 KCAL/MOL
REMARK 924 INTRA-LIGAND FREE ENERGY PREDICTED BY IDOCK:   -0.19 KCAL/MOL
REMARK 927      BINDING AFFINITY PREDICTED BY RF-SCORE:    0.00 PKD
ROOT
HETATM    1  C   UNL     1     -11.736  12.671  69.402  1.00  0.00    -0.325 C  
HETATM    2  N   UNL     1     -11.250  13.999  69.753  1.00  0.00    -0.436 NA 
HETATM    3  H   UNL     1     -10.247  14.090  69.588  1.00  0.00     0.000 HD 
ENDROOT
BRANCH   2   4
HETATM    4  C   UNL     1     -12.015  15.036  69.046  1.00  0.00    -0.264 C  
BRANCH   4   5
HETATM    5  C   UNL     1     -11.124  15.780  68.044  1.00  0.00    -0.337 C  
BRANCH   5   6
HETATM    6  C   UNL     1      -9.684  15.344  68.154  1.00  0.00    -0.212 A  
HETATM    7  C   UNL     1      -9.083  14.608  67.136  1.00  0.00    -0.236 A  
HETATM    8  C   UNL     1      -7.757  14.210  67.286  1.00  0.00    -0.132 A  
HETATM    9  C   UNL     1      -7.069  14.551  68.443  1.00  0.00    -0.111 A  
HETATM   10  C   UNL     1      -7.740  15.278  69.409  1.00  0.00    -0.225 A  
HETATM   11  N   UNL     1      -9.025  15.678  69.289  1.00  0.00    -0.256 NA 
ENDBRANCH   5   6
ENDBRANCH   4   5
ENDBRANCH   2   4
TORSDOF 3
ENDMDL
MODEL      171
REMARK 921   NORMALIZED FREE ENERGY PREDICTED BY IDOCK:   -2.02 KCAL/MOL
REMARK 922        TOTAL FREE ENERGY PREDICTED BY IDOCK:   -2.72 KCAL/MOL
REMARK 923 INTER-LIGAND FREE ENERGY PREDICTED BY IDOCK:   -2.63 KCAL/MOL
REMARK 924 INTRA-LIGAND FREE ENERGY PREDICTED BY IDOCK:   -0.09 KCAL/MOL
REMARK 927      BINDING AFFINITY PREDICTED BY RF-SCORE:    0.00 PKD
ROOT
HETATM    1  C   UNL     1      -9.581   4.854  69.415  1.00  0.00    -0.169 C  
HETATM    2  N   UNL     1     -10.691   5.679  69.871  1.00  0.00    -0.331 NA 
HETATM    3  H   UNL     1     -10.801   5.640  70.884  1.00  0.00     0.000 HD 
ENDROOT
BRANCH   2   4
HETATM    4  C   UNL     1     -10.542   7.062  69.393  1.00  0.00    -0.230 C  
BRANCH   4   5
HETATM    5  C   UNL     1     -10.341   7.093  67.873  1.00  0.00    -0.248 C  
BRANCH   5   6
HETATM    6  C   UNL     1     -10.300   8.509  67.351  1.00  0.00    -0.286 A  
HETATM    7  C   UNL     1     -10.895   9.547  68.061  1.00  0.00    -0.225 A  
HETATM    8  C   UNL     1     -10.849  10.836  67.534  1.00  0.00    -0.342 A  
HETATM    9  C   UNL     1     -10.218  11.053  66.316  1.00  0.00    -0.295 A  
HETATM   10  C   UNL     1      -9.657   9.966  65.671  1.00  0.00    -0.256 A  
HETATM   11  N   UNL     1      -9.685   8.707  66.160  1.00  0.00    -0.248 NA 
ENDBRANCH   5   6
ENDBRANCH   4   5
ENDBRANCH   2   4
TORSDOF 3
ENDMDL
MODEL      172
REMARK 921   NORMALIZED FREE ENERGY PREDICTED BY IDOCK:   -2.01 KCAL/MOL
REMARK 922        TOTAL FREE ENERGY PREDICTED BY IDOCK:   -2.70 KCAL/MOL
REMARK 923 INTER-LIGAND FREE ENERGY PREDICTED BY IDOCK:   -2.42 KCAL/MOL
REMARK 924 INTRA-LIGAND FREE ENERGY PREDICTED BY IDOCK:   -0.28 KCAL/MOL
REMARK 927      BINDING AFFINITY PREDICTED BY RF-SCORE:    0.00 PKD
ROOT
HETATM    1  C   UNL     1      -8.843   9.518  70.448  1.00  0.00    -0.234 C  
HETATM    2  N   UNL     1      -9.799   8.484  70.076  1.00  0.00    -0.177 NA 
HETATM    3  H   UNL     1     -10.443   8.806  69.352  1.00  0.00     0.000 HD 
ENDROOT
BRANCH   2   4
HETATM    4  C   UNL     1      -9.103   7.252  69.675  1.00  0.00    -0.140 C  
BRANCH   4   5
HETATM    5  C   UNL     1     -10.090   6.088  69.541  1.00  0.00    -0.246 C  
BRANCH   5   6
HETATM    6  C   UNL     1     -10.313   5.397  70.864  1.00  0.00    -0.242 A  
HETATM    7  C   UNL     1      -9.761   4.145  71.115  1.00  0.00    -0.258 A  
HETATM    8  C   UNL     1     -10.006   3.535  72.344  1.00  0.00    -0.237 A  
HETATM    9  C   UNL     1     -10.796   4.185  73.282  1.00  0.00    -0.315 A  
HETATM   10  C   UNL     1     -11.312   5.425  72.952  1.00  0.00    -0.303 A  
HETATM   11  N   UNL     1     -11.089   6.040  71.770  1.00  0.00    -0.268 NA 
ENDBRANCH   5   6
ENDBRANCH   4   5
ENDBRANCH   2   4
TORSDOF 3
ENDMDL
MODEL      173
REMARK 921   NORMALIZED FREE ENERGY PREDICTED BY IDOCK:   -1.96 KCAL/MOL
REMARK 922        TOTAL FREE ENERGY PREDICTED BY IDOCK:   -2.65 KCAL/MOL
REMARK 923 INTER-LIGAND FREE ENERGY PREDICTED BY IDOCK:   -2.59 KCAL/MOL
REMARK 924 INTRA-LIGAND FREE ENERGY PREDICTED BY IDOCK:   -0.06 KCAL/MOL
REMARK 927      BINDING AFFINITY PREDICTED BY RF-SCORE:    0.00 PKD
ROOT
HETATM    1  C   UNL     1      -6.651   9.249  65.657  1.00  0.00    -0.069 C  
HETATM    2  N   UNL     1      -7.971   8.984  65.102  1.00  0.00    -0.114 NA 
HETATM    3  H   UNL     1      -8.272   8.026  65.282  1.00  0.00     0.000 HD 
ENDROOT
BRANCH   2   4
HETATM    4  C   UNL     1      -8.949   9.964  65.597  1.00  0.00    -0.171 C  
BRANCH   4   5
HETATM    5  C   UNL     1     -10.075   9.267  66.369  1.00  0.00    -0.337 C  
BRANCH   5   6
HETATM    6  C   UNL     1     -10.598  10.135  67.488  1.00  0.00    -0.273 A  
HETATM    7  C   UNL     1     -11.271  11.321  67.213  1.00  0.00    -0.364 A  
HETATM    8  C   UNL     1     -11.722  12.102  68.275  1.00  0.00    -0.401 A  
HETATM    9  C   UNL     1     -11.485  11.682  69.578  1.00  0.00    -0.371 A  
HETATM   10  C   UNL     1     -10.803  10.494  69.765  1.00  0.00    -0.281 A  
HETATM   11  N   UNL     1     -10.357   9.717  68.754  1.00  0.00    -0.206 NA 
ENDBRANCH   5   6
ENDBRANCH   4   5
ENDBRANCH   2   4
TORSDOF 3
ENDMDL
MODEL      174
REMARK 921   NORMALIZED FREE ENERGY PREDICTED BY IDOCK:   -1.96 KCAL/MOL
REMARK 922        TOTAL FREE ENERGY PREDICTED BY IDOCK:   -2.65 KCAL/MOL
REMARK 923 INTER-LIGAND FREE ENERGY PREDICTED BY IDOCK:   -2.29 KCAL/MOL
REMARK 924 INTRA-LIGAND FREE ENERGY PREDICTED BY IDOCK:   -0.35 KCAL/MOL
REMARK 927      BINDING AFFINITY PREDICTED BY RF-SCORE:    0.00 PKD
ROOT
HETATM    1  C   UNL     1     -11.165   4.758  73.002  1.00  0.00    -0.262 C  
HETATM    2  N   UNL     1     -11.179   6.187  73.283  1.00  0.00    -0.464 NA 
HETATM    3  H   UNL     1     -10.273   6.515  73.621  1.00  0.00     0.000 HD 
ENDROOT
BRANCH   2   4
HETATM    4  C   UNL     1     -11.626   6.945  72.105  1.00  0.00    -0.284 C  
BRANCH   4   5
HETATM    5  C   UNL     1     -10.942   8.315  72.048  1.00  0.00    -0.374 C  
BRANCH   5   6
HETATM    6  C   UNL     1      -9.440   8.186  72.115  1.00  0.00    -0.225 A  
HETATM    7  C   UNL     1      -8.682   8.079  70.953  1.00  0.00    -0.143 A  
HETATM    8  C   UNL     1      -7.300   7.944  71.060  1.00  0.00    -0.062 A  
HETATM    9  C   UNL     1      -6.713   7.914  72.319  1.00  0.00    -0.065 A  
HETATM   10  C   UNL     1      -7.538   8.021  73.424  1.00  0.00    -0.154 A  
HETATM   11  N   UNL     1      -8.880   8.155  73.349  1.00  0.00    -0.260 NA 
ENDBRANCH   5   6
ENDBRANCH   4   5
ENDBRANCH   2   4
TORSDOF 3
ENDMDL
MODEL      175
REMARK 921   NORMALIZED FREE ENERGY PREDICTED BY IDOCK:   -1.93 KCAL/MOL
REMARK 922        TOTAL FREE ENERGY PREDICTED BY IDOCK:   -2.62 KCAL/MOL
REMARK 923 INTER-LIGAND FREE ENERGY PREDICTED BY IDOCK:   -2.61 KCAL/MOL
REMARK 924 INTRA-LIGAND FREE ENERGY PREDICTED BY IDOCK:   -0.01 KCAL/MOL
REMARK 927      BINDING AFFINITY PREDICTED BY RF-SCORE:    0.00 PKD
ROOT
HETATM    1  C   UNL     1     -10.829  19.427  67.289  1.00  0.00    -0.448 C  
HETATM    2  N   UNL     1      -9.379  19.294  67.301  1.00  0.00    -0.301 NA 
HETATM    3  H   UNL     1      -8.934  19.937  66.645  1.00  0.00     0.000 HD 
ENDROOT
BRANCH   2   4
HETATM    4  C   UNL     1      -8.853  19.457  68.664  1.00  0.00    -0.373 C  
BRANCH   4   5
HETATM    5  C   UNL     1      -7.337  19.685  68.639  1.00  0.00    -0.375 C  
BRANCH   5   6
HETATM    6  C   UNL     1      -6.581  18.401  68.876  1.00  0.00    -0.251 A  
HETATM    7  C   UNL     1      -6.644  17.358  67.957  1.00  0.00    -0.169 A  
HETATM    8  C   UNL     1      -5.945  16.183  68.222  1.00  0.00    -0.112 A  
HETATM    9  C   UNL     1      -5.207  16.079  69.395  1.00  0.00    -0.112 A  
HETATM   10  C   UNL     1      -5.201  17.159  70.258  1.00  0.00    -0.230 A  
HETATM   11  N   UNL     1      -5.868  18.310  70.024  1.00  0.00    -0.234 NA 
ENDBRANCH   5   6
ENDBRANCH   4   5
ENDBRANCH   2   4
TORSDOF 3
ENDMDL
MODEL      176
REMARK 921   NORMALIZED FREE ENERGY PREDICTED BY IDOCK:   -1.90 KCAL/MOL
REMARK 922        TOTAL FREE ENERGY PREDICTED BY IDOCK:   -2.58 KCAL/MOL
REMARK 923 INTER-LIGAND FREE ENERGY PREDICTED BY IDOCK:   -2.46 KCAL/MOL
REMARK 924 INTRA-LIGAND FREE ENERGY PREDICTED BY IDOCK:   -0.12 KCAL/MOL
REMARK 927      BINDING AFFINITY PREDICTED BY RF-SCORE:    0.00 PKD
ROOT
HETATM    1  C   UNL     1      -6.994   8.467  68.991  1.00  0.00    -0.064 C  
HETATM    2  N   UNL     1      -7.761   7.268  68.683  1.00  0.00    -0.117 NA 
HETATM    3  H   UNL     1      -7.315   6.428  69.052  1.00  0.00     0.000 HD 
ENDROOT
BRANCH   2   4
HETATM    4  C   UNL     1      -9.147   7.401  69.155  1.00  0.00    -0.134 C  
BRANCH   4   5
HETATM    5  C   UNL     1      -9.188   7.577  70.677  1.00  0.00    -0.159 C  
BRANCH   5   6
HETATM    6  C   UNL     1     -10.374   8.406  71.106  1.00  0.00    -0.212 A  
HETATM    7  C   UNL     1     -11.394   7.848  71.870  1.00  0.00    -0.324 A  
HETATM    8  C   UNL     1     -12.480   8.644  72.229  1.00  0.00    -0.460 A  
HETATM    9  C   UNL     1     -12.521   9.968  71.815  1.00  0.00    -0.475 A  
HETATM   10  C   UNL     1     -11.470  10.445  71.053  1.00  0.00    -0.219 A  
HETATM   11  N   UNL     1     -10.405   9.696  70.692  1.00  0.00    -0.296 NA 
ENDBRANCH   5   6
ENDBRANCH   4   5
ENDBRANCH   2   4
TORSDOF 3
ENDMDL
MODEL      177
REMARK 921   NORMALIZED FREE ENERGY PREDICTED BY IDOCK:   -1.88 KCAL/MOL
REMARK 922        TOTAL FREE ENERGY PREDICTED BY IDOCK:   -2.56 KCAL/MOL
REMARK 923 INTER-LIGAND FREE ENERGY PREDICTED BY IDOCK:   -2.87 KCAL/MOL
REMARK 924 INTRA-LIGAND FREE ENERGY PREDICTED BY IDOCK:    0.32 KCAL/MOL
REMARK 927      BINDING AFFINITY PREDICTED BY RF-SCORE:    0.00 PKD
ROOT
HETATM    1  C   UNL     1     -10.020  16.460  67.796  1.00  0.00    -0.248 C  
HETATM    2  N   UNL     1     -10.454  15.193  68.370  1.00  0.00    -0.229 NA 
HETATM    3  H   UNL     1      -9.677  14.680  68.786  1.00  0.00     0.000 HD 
ENDROOT
BRANCH   2   4
HETATM    4  C   UNL     1     -11.544  15.406  69.334  1.00  0.00    -0.340 C  
BRANCH   4   5
HETATM    5  C   UNL     1     -11.680  14.203  70.275  1.00  0.00    -0.328 C  
BRANCH   5   6
HETATM    6  C   UNL     1     -11.674  12.901  69.511  1.00  0.00    -0.323 A  
HETATM    7  C   UNL     1     -11.770  11.684  70.179  1.00  0.00    -0.381 A  
HETATM    8  C   UNL     1     -11.743  10.505  69.437  1.00  0.00    -0.295 A  
HETATM    9  C   UNL     1     -11.617  10.571  68.056  1.00  0.00    -0.107 A  
HETATM   10  C   UNL     1     -11.521  11.820  67.470  1.00  0.00    -0.303 A  
HETATM   11  N   UNL     1     -11.547  12.978  68.164  1.00  0.00    -0.319 NA 
ENDBRANCH   5   6
ENDBRANCH   4   5
ENDBRANCH   2   4
TORSDOF 3
ENDMDL
MODEL      178
REMARK 921   NORMALIZED FREE ENERGY PREDICTED BY IDOCK:   -1.87 KCAL/MOL
REMARK 922        TOTAL FREE ENERGY PREDICTED BY IDOCK:   -2.55 KCAL/MOL
REMARK 923 INTER-LIGAND FREE ENERGY PREDICTED BY IDOCK:   -2.47 KCAL/MOL
REMARK 924 INTRA-LIGAND FREE ENERGY PREDICTED BY IDOCK:   -0.08 KCAL/MOL
REMARK 927      BINDING AFFINITY PREDICTED BY RF-SCORE:    0.00 PKD
ROOT
HETATM    1  C   UNL     1      -7.408   4.300  73.245  1.00  0.00    -0.075 C  
HETATM    2  N   UNL     1      -8.699   4.691  73.794  1.00  0.00    -0.106 NA 
HETATM    3  H   UNL     1      -8.756   4.508  74.796  1.00  0.00     0.000 HD 
ENDROOT
BRANCH   2   4
HETATM    4  C   UNL     1      -8.992   6.097  73.480  1.00  0.00    -0.124 C  
BRANCH   4   5
HETATM    5  C   UNL     1      -9.480   6.242  72.034  1.00  0.00    -0.158 C  
BRANCH   5   6
HETATM    6  C   UNL     1     -10.357   7.459  71.866  1.00  0.00    -0.192 A  
HETATM    7  C   UNL     1      -9.965   8.510  71.042  1.00  0.00    -0.255 A  
HETATM    8  C   UNL     1     -10.797   9.622  70.929  1.00  0.00    -0.409 A  
HETATM    9  C   UNL     1     -11.989   9.658  71.640  1.00  0.00    -0.470 A  
HETATM   10  C   UNL     1     -12.302   8.575  72.441  1.00  0.00    -0.359 A  
HETATM   11  N   UNL     1     -11.516   7.484  72.568  1.00  0.00    -0.323 NA 
ENDBRANCH   5   6
ENDBRANCH   4   5
ENDBRANCH   2   4
TORSDOF 3
ENDMDL
MODEL      179
REMARK 921   NORMALIZED FREE ENERGY PREDICTED BY IDOCK:   -1.87 KCAL/MOL
REMARK 922        TOTAL FREE ENERGY PREDICTED BY IDOCK:   -2.54 KCAL/MOL
REMARK 923 INTER-LIGAND FREE ENERGY PREDICTED BY IDOCK:   -2.43 KCAL/MOL
REMARK 924 INTRA-LIGAND FREE ENERGY PREDICTED BY IDOCK:   -0.11 KCAL/MOL
REMARK 927      BINDING AFFINITY PREDICTED BY RF-SCORE:    0.00 PKD
ROOT
HETATM    1  C   UNL     1      -9.616   3.199  65.125  1.00  0.00    -0.076 C  
HETATM    2  N   UNL     1      -9.841   3.785  66.440  1.00  0.00    -0.401 NA 
HETATM    3  H   UNL     1      -9.068   3.592  67.077  1.00  0.00     0.000 HD 
ENDROOT
BRANCH   2   4
HETATM    4  C   UNL     1     -10.106   5.227  66.327  1.00  0.00    -0.207 C  
BRANCH   4   5
HETATM    5  C   UNL     1      -9.209   6.021  67.283  1.00  0.00    -0.114 C  
BRANCH   5   6
HETATM    6  C   UNL     1      -9.809   6.102  68.666  1.00  0.00    -0.138 A  
HETATM    7  C   UNL     1     -11.143   6.459  68.843  1.00  0.00    -0.420 A  
HETATM    8  C   UNL     1     -11.652   6.538  70.137  1.00  0.00    -0.466 A  
HETATM    9  C   UNL     1     -10.821   6.266  71.215  1.00  0.00    -0.317 A  
HETATM   10  C   UNL     1      -9.506   5.924  70.954  1.00  0.00    -0.165 A  
HETATM   11  N   UNL     1      -8.987   5.837  69.710  1.00  0.00    -0.128 NA 
ENDBRANCH   5   6
ENDBRANCH   4   5
ENDBRANCH   2   4
TORSDOF 3
ENDMDL
MODEL      180
REMARK 921   NORMALIZED FREE ENERGY PREDICTED BY IDOCK:   -1.87 KCAL/MOL
REMARK 922        TOTAL FREE ENERGY PREDICTED BY IDOCK:   -2.54 KCAL/MOL
REMARK 923 INTER-LIGAND FREE ENERGY PREDICTED BY IDOCK:   -2.45 KCAL/MOL
REMARK 924 INTRA-LIGAND FREE ENERGY PREDICTED BY IDOCK:   -0.09 KCAL/MOL
REMARK 927      BINDING AFFINITY PREDICTED BY RF-SCORE:    0.00 PKD
ROOT
HETATM    1  C   UNL     1      -9.653  10.713  63.024  1.00  0.00    -0.348 C  
HETATM    2  N   UNL     1      -9.742  11.725  64.069  1.00  0.00    -0.447 NA 
HETATM    3  H   UNL     1     -10.627  12.233  64.029  1.00  0.00     0.000 HD 
ENDROOT
BRANCH   2   4
HETATM    4  C   UNL     1      -9.517  11.127  65.393  1.00  0.00    -0.222 C  
BRANCH   4   5
HETATM    5  C   UNL     1      -9.790   9.619  65.362  1.00  0.00    -0.322 C  
BRANCH   5   6
HETATM    6  C   UNL     1      -9.589   8.994  66.721  1.00  0.00    -0.200 A  
HETATM    7  C   UNL     1      -8.500   9.346  67.513  1.00  0.00    -0.122 A  
HETATM    8  C   UNL     1      -8.343   8.731  68.753  1.00  0.00    -0.124 A  
HETATM    9  C   UNL     1      -9.270   7.783  69.167  1.00  0.00    -0.144 A  
HETATM   10  C   UNL     1     -10.320   7.486  68.318  1.00  0.00    -0.195 A  
HETATM   11  N   UNL     1     -10.498   8.067  67.112  1.00  0.00    -0.327 NA 
ENDBRANCH   5   6
ENDBRANCH   4   5
ENDBRANCH   2   4
TORSDOF 3
ENDMDL
MODEL      181
REMARK 921   NORMALIZED FREE ENERGY PREDICTED BY IDOCK:   -1.85 KCAL/MOL
REMARK 922        TOTAL FREE ENERGY PREDICTED BY IDOCK:   -2.52 KCAL/MOL
REMARK 923 INTER-LIGAND FREE ENERGY PREDICTED BY IDOCK:   -2.44 KCAL/MOL
REMARK 924 INTRA-LIGAND FREE ENERGY PREDICTED BY IDOCK:   -0.08 KCAL/MOL
REMARK 927      BINDING AFFINITY PREDICTED BY RF-SCORE:    0.00 PKD
ROOT
HETATM    1  C   UNL     1      -7.613   6.728  68.313  1.00  0.00    -0.107 C  
HETATM    2  N   UNL     1      -8.812   6.974  67.522  1.00  0.00    -0.119 NA 
HETATM    3  H   UNL     1      -9.560   6.321  67.757  1.00  0.00     0.000 HD 
ENDROOT
BRANCH   2   4
HETATM    4  C   UNL     1      -9.247   8.372  67.657  1.00  0.00    -0.134 C  
BRANCH   4   5
HETATM    5  C   UNL     1      -9.405   9.028  66.281  1.00  0.00    -0.284 C  
BRANCH   5   6
HETATM    6  C   UNL     1     -10.053  10.387  66.388  1.00  0.00    -0.228 A  
HETATM    7  C   UNL     1     -10.792  10.737  67.514  1.00  0.00    -0.342 A  
HETATM    8  C   UNL     1     -11.387  11.995  67.565  1.00  0.00    -0.387 A  
HETATM    9  C   UNL     1     -11.235  12.865  66.493  1.00  0.00    -0.340 A  
HETATM   10  C   UNL     1     -10.489  12.439  65.409  1.00  0.00    -0.277 A  
HETATM   11  N   UNL     1      -9.900  11.226  65.335  1.00  0.00    -0.226 NA 
ENDBRANCH   5   6
ENDBRANCH   4   5
ENDBRANCH   2   4
TORSDOF 3
ENDMDL
MODEL      182
REMARK 921   NORMALIZED FREE ENERGY PREDICTED BY IDOCK:   -1.83 KCAL/MOL
REMARK 922        TOTAL FREE ENERGY PREDICTED BY IDOCK:   -2.49 KCAL/MOL
REMARK 923 INTER-LIGAND FREE ENERGY PREDICTED BY IDOCK:   -2.37 KCAL/MOL
REMARK 924 INTRA-LIGAND FREE ENERGY PREDICTED BY IDOCK:   -0.13 KCAL/MOL
REMARK 927      BINDING AFFINITY PREDICTED BY RF-SCORE:    0.00 PKD
ROOT
HETATM    1  C   UNL     1      -8.812   6.276  66.220  1.00  0.00    -0.147 C  
HETATM    2  N   UNL     1      -9.255   7.515  66.845  1.00  0.00    -0.142 NA 
HETATM    3  H   UNL     1      -9.054   8.327  66.261  1.00  0.00     0.000 HD 
ENDROOT
BRANCH   2   4
HETATM    4  C   UNL     1     -10.680   7.439  67.199  1.00  0.00    -0.330 C  
BRANCH   4   5
HETATM    5  C   UNL     1     -10.946   6.254  68.134  1.00  0.00    -0.412 C  
BRANCH   5   6
HETATM    6  C   UNL     1     -10.946   6.682  69.582  1.00  0.00    -0.313 A  
HETATM    7  C   UNL     1     -11.396   7.947  69.950  1.00  0.00     0.034 A  
HETATM    8  C   UNL     1     -11.364   8.308  71.295  1.00  0.00    -0.308 A  
HETATM    9  C   UNL     1     -10.880   7.404  72.232  1.00  0.00    -0.287 A  
HETATM   10  C   UNL     1     -10.447   6.170  71.783  1.00  0.00    -0.216 A  
HETATM   11  N   UNL     1     -10.469   5.793  70.486  1.00  0.00    -0.244 NA 
ENDBRANCH   5   6
ENDBRANCH   4   5
ENDBRANCH   2   4
TORSDOF 3
ENDMDL
MODEL      183
REMARK 921   NORMALIZED FREE ENERGY PREDICTED BY IDOCK:   -1.82 KCAL/MOL
REMARK 922        TOTAL FREE ENERGY PREDICTED BY IDOCK:   -2.48 KCAL/MOL
REMARK 923 INTER-LIGAND FREE ENERGY PREDICTED BY IDOCK:   -2.37 KCAL/MOL
REMARK 924 INTRA-LIGAND FREE ENERGY PREDICTED BY IDOCK:   -0.12 KCAL/MOL
REMARK 927      BINDING AFFINITY PREDICTED BY RF-SCORE:    0.00 PKD
ROOT
HETATM    1  C   UNL     1     -10.204   8.227  71.753  1.00  0.00    -0.230 C  
HETATM    2  N   UNL     1     -11.146   7.132  71.560  1.00  0.00    -0.236 NA 
HETATM    3  H   UNL     1     -11.992   7.441  71.080  1.00  0.00     0.000 HD 
ENDROOT
BRANCH   2   4
HETATM    4  C   UNL     1     -10.502   6.010  70.861  1.00  0.00    -0.236 C  
BRANCH   4   5
HETATM    5  C   UNL     1     -11.004   5.910  69.416  1.00  0.00    -0.421 C  
BRANCH   5   6
HETATM    6  C   UNL     1     -10.166   6.747  68.480  1.00  0.00    -0.175 A  
HETATM    7  C   UNL     1     -10.708   7.259  67.305  1.00  0.00    -0.391 A  
HETATM    8  C   UNL     1      -9.895   8.012  66.461  1.00  0.00    -0.289 A  
HETATM    9  C   UNL     1      -8.568   8.230  66.808  1.00  0.00    -0.131 A  
HETATM   10  C   UNL     1      -8.106   7.682  67.991  1.00  0.00    -0.123 A  
HETATM   11  N   UNL     1      -8.872   6.949  68.828  1.00  0.00    -0.132 NA 
ENDBRANCH   5   6
ENDBRANCH   4   5
ENDBRANCH   2   4
TORSDOF 3
ENDMDL
MODEL      184
REMARK 921   NORMALIZED FREE ENERGY PREDICTED BY IDOCK:   -1.81 KCAL/MOL
REMARK 922        TOTAL FREE ENERGY PREDICTED BY IDOCK:   -2.47 KCAL/MOL
REMARK 923 INTER-LIGAND FREE ENERGY PREDICTED BY IDOCK:   -2.34 KCAL/MOL
REMARK 924 INTRA-LIGAND FREE ENERGY PREDICTED BY IDOCK:   -0.13 KCAL/MOL
REMARK 927      BINDING AFFINITY PREDICTED BY RF-SCORE:    0.00 PKD
ROOT
HETATM    1  C   UNL     1      -7.579  10.108  63.167  1.00  0.00    -0.147 C  
HETATM    2  N   UNL     1      -8.511  10.789  64.055  1.00  0.00    -0.357 NA 
HETATM    3  H   UNL     1      -9.470  10.732  63.713  1.00  0.00     0.000 HD 
ENDROOT
BRANCH   2   4
HETATM    4  C   UNL     1      -8.390  10.276  65.427  1.00  0.00    -0.162 C  
BRANCH   4   5
HETATM    5  C   UNL     1      -7.823   8.852  65.428  1.00  0.00    -0.102 C  
BRANCH   5   6
HETATM    6  C   UNL     1      -8.825   7.857  65.960  1.00  0.00    -0.158 A  
HETATM    7  C   UNL     1      -9.975   8.287  66.616  1.00  0.00    -0.348 A  
HETATM    8  C   UNL     1     -10.866   7.336  67.107  1.00  0.00    -0.378 A  
HETATM    9  C   UNL     1     -10.585   5.986  66.936  1.00  0.00    -0.384 A  
HETATM   10  C   UNL     1      -9.418   5.642  66.278  1.00  0.00    -0.155 A  
HETATM   11  N   UNL     1      -8.538   6.544  65.791  1.00  0.00    -0.151 NA 
ENDBRANCH   5   6
ENDBRANCH   4   5
ENDBRANCH   2   4
TORSDOF 3
ENDMDL
MODEL      185
REMARK 921   NORMALIZED FREE ENERGY PREDICTED BY IDOCK:   -1.81 KCAL/MOL
REMARK 922        TOTAL FREE ENERGY PREDICTED BY IDOCK:   -2.47 KCAL/MOL
REMARK 923 INTER-LIGAND FREE ENERGY PREDICTED BY IDOCK:   -2.17 KCAL/MOL
REMARK 924 INTRA-LIGAND FREE ENERGY PREDICTED BY IDOCK:   -0.30 KCAL/MOL
REMARK 927      BINDING AFFINITY PREDICTED BY RF-SCORE:    0.00 PKD
ROOT
HETATM    1  C   UNL     1      -7.215  10.765  68.227  1.00  0.00    -0.084 C  
HETATM    2  N   UNL     1      -7.830  12.010  68.668  1.00  0.00    -0.233 NA 
HETATM    3  H   UNL     1      -7.564  12.245  69.625  1.00  0.00     0.000 HD 
ENDROOT
BRANCH   2   4
HETATM    4  C   UNL     1      -7.521  13.103  67.734  1.00  0.00    -0.150 C  
BRANCH   4   5
HETATM    5  C   UNL     1      -7.469  14.448  68.467  1.00  0.00    -0.122 C  
BRANCH   5   6
HETATM    6  C   UNL     1      -8.840  15.071  68.575  1.00  0.00    -0.181 A  
HETATM    7  C   UNL     1      -8.989  16.397  68.970  1.00  0.00    -0.239 A  
HETATM    8  C   UNL     1     -10.273  16.927  69.075  1.00  0.00    -0.308 A  
HETATM    9  C   UNL     1     -11.369  16.124  68.788  1.00  0.00    -0.359 A  
HETATM   10  C   UNL     1     -11.134  14.815  68.407  1.00  0.00    -0.263 A  
HETATM   11  N   UNL     1      -9.901  14.275  68.296  1.00  0.00    -0.229 NA 
ENDBRANCH   5   6
ENDBRANCH   4   5
ENDBRANCH   2   4
TORSDOF 3
ENDMDL
MODEL      186
REMARK 921   NORMALIZED FREE ENERGY PREDICTED BY IDOCK:   -1.80 KCAL/MOL
REMARK 922        TOTAL FREE ENERGY PREDICTED BY IDOCK:   -2.46 KCAL/MOL
REMARK 923 INTER-LIGAND FREE ENERGY PREDICTED BY IDOCK:   -2.39 KCAL/MOL
REMARK 924 INTRA-LIGAND FREE ENERGY PREDICTED BY IDOCK:   -0.08 KCAL/MOL
REMARK 927      BINDING AFFINITY PREDICTED BY RF-SCORE:    0.00 PKD
ROOT
HETATM    1  C   UNL     1      -8.631   9.055  64.615  1.00  0.00    -0.165 C  
HETATM    2  N   UNL     1      -9.846   9.503  65.284  1.00  0.00    -0.441 NA 
HETATM    3  H   UNL     1     -10.599   8.820  65.196  1.00  0.00     0.000 HD 
ENDROOT
BRANCH   2   4
HETATM    4  C   UNL     1      -9.573   9.834  66.690  1.00  0.00    -0.187 C  
BRANCH   4   5
HETATM    5  C   UNL     1      -9.262   8.569  67.497  1.00  0.00    -0.151 C  
BRANCH   5   6
HETATM    6  C   UNL     1      -9.577   8.756  68.961  1.00  0.00    -0.162 A  
HETATM    7  C   UNL     1      -8.575   8.659  69.922  1.00  0.00    -0.131 A  
HETATM    8  C   UNL     1      -8.911   8.821  71.265  1.00  0.00    -0.295 A  
HETATM    9  C   UNL     1     -10.233   9.069  71.611  1.00  0.00    -0.418 A  
HETATM   10  C   UNL     1     -11.169   9.144  70.595  1.00  0.00    -0.270 A  
HETATM   11  N   UNL     1     -10.870   8.993  69.287  1.00  0.00    -0.168 NA 
ENDBRANCH   5   6
ENDBRANCH   4   5
ENDBRANCH   2   4
TORSDOF 3
ENDMDL
MODEL      187
REMARK 921   NORMALIZED FREE ENERGY PREDICTED BY IDOCK:   -1.80 KCAL/MOL
REMARK 922        TOTAL FREE ENERGY PREDICTED BY IDOCK:   -2.46 KCAL/MOL
REMARK 923 INTER-LIGAND FREE ENERGY PREDICTED BY IDOCK:   -2.16 KCAL/MOL
REMARK 924 INTRA-LIGAND FREE ENERGY PREDICTED BY IDOCK:   -0.30 KCAL/MOL
REMARK 927      BINDING AFFINITY PREDICTED BY RF-SCORE:    0.00 PKD
ROOT
HETATM    1  C   UNL     1      -9.338   6.913  66.953  1.00  0.00    -0.148 C  
HETATM    2  N   UNL     1     -10.155   7.680  67.884  1.00  0.00    -0.176 NA 
HETATM    3  H   UNL     1      -9.702   7.780  68.792  1.00  0.00     0.000 HD 
ENDROOT
BRANCH   2   4
HETATM    4  C   UNL     1     -10.513   8.985  67.307  1.00  0.00    -0.273 C  
BRANCH   4   5
HETATM    5  C   UNL     1     -10.384  10.096  68.355  1.00  0.00    -0.210 C  
BRANCH   5   6
HETATM    6  C   UNL     1      -9.773   9.581  69.635  1.00  0.00    -0.200 A  
HETATM    7  C   UNL     1     -10.545   9.432  70.784  1.00  0.00    -0.371 A  
HETATM    8  C   UNL     1      -9.937   8.970  71.949  1.00  0.00    -0.304 A  
HETATM    9  C   UNL     1      -8.580   8.674  71.938  1.00  0.00    -0.231 A  
HETATM   10  C   UNL     1      -7.883   8.855  70.758  1.00  0.00    -0.119 A  
HETATM   11  N   UNL     1      -8.448   9.299  69.614  1.00  0.00    -0.128 NA 
ENDBRANCH   5   6
ENDBRANCH   4   5
ENDBRANCH   2   4
TORSDOF 3
ENDMDL
MODEL      188
REMARK 921   NORMALIZED FREE ENERGY PREDICTED BY IDOCK:   -1.79 KCAL/MOL
REMARK 922        TOTAL FREE ENERGY PREDICTED BY IDOCK:   -2.45 KCAL/MOL
REMARK 923 INTER-LIGAND FREE ENERGY PREDICTED BY IDOCK:   -2.11 KCAL/MOL
REMARK 924 INTRA-LIGAND FREE ENERGY PREDICTED BY IDOCK:   -0.34 KCAL/MOL
REMARK 927      BINDING AFFINITY PREDICTED BY RF-SCORE:    0.00 PKD
ROOT
HETATM    1  C   UNL     1     -10.081  11.772  66.917  1.00  0.00    -0.207 C  
HETATM    2  N   UNL     1     -10.068  11.201  68.257  1.00  0.00    -0.178 NA 
HETATM    3  H   UNL     1      -9.589  11.807  68.923  1.00  0.00     0.000 HD 
ENDROOT
BRANCH   2   4
HETATM    4  C   UNL     1     -11.434  10.881  68.699  1.00  0.00    -0.311 C  
BRANCH   4   5
HETATM    5  C   UNL     1     -11.410  10.111  70.024  1.00  0.00    -0.351 C  
BRANCH   5   6
HETATM    6  C   UNL     1     -10.283   9.107  70.060  1.00  0.00    -0.204 A  
HETATM    7  C   UNL     1     -10.448   7.833  69.525  1.00  0.00    -0.225 A  
HETATM    8  C   UNL     1      -9.388   6.932  69.595  1.00  0.00    -0.145 A  
HETATM    9  C   UNL     1      -8.200   7.322  70.199  1.00  0.00    -0.134 A  
HETATM   10  C   UNL     1      -8.120   8.603  70.712  1.00  0.00    -0.128 A  
HETATM   11  N   UNL     1      -9.131   9.498  70.656  1.00  0.00    -0.228 NA 
ENDBRANCH   5   6
ENDBRANCH   4   5
ENDBRANCH   2   4
TORSDOF 3
ENDMDL
MODEL      189
REMARK 921   NORMALIZED FREE ENERGY PREDICTED BY IDOCK:   -1.77 KCAL/MOL
REMARK 922        TOTAL FREE ENERGY PREDICTED BY IDOCK:   -2.43 KCAL/MOL
REMARK 923 INTER-LIGAND FREE ENERGY PREDICTED BY IDOCK:   -2.27 KCAL/MOL
REMARK 924 INTRA-LIGAND FREE ENERGY PREDICTED BY IDOCK:   -0.16 KCAL/MOL
REMARK 927      BINDING AFFINITY PREDICTED BY RF-SCORE:    0.00 PKD
ROOT
HETATM    1  C   UNL     1     -10.042  10.474  65.309  1.00  0.00    -0.300 C  
HETATM    2  N   UNL     1      -9.952  10.922  66.692  1.00  0.00    -0.201 NA 
HETATM    3  H   UNL     1      -9.212  11.613  66.819  1.00  0.00     0.000 HD 
ENDROOT
BRANCH   2   4
HETATM    4  C   UNL     1     -11.252  11.426  67.160  1.00  0.00    -0.296 C  
BRANCH   4   5
HETATM    5  C   UNL     1     -11.584  10.867  68.548  1.00  0.00    -0.360 C  
BRANCH   5   6
HETATM    6  C   UNL     1     -10.660   9.734  68.923  1.00  0.00    -0.218 A  
HETATM    7  C   UNL     1      -9.804   9.845  70.015  1.00  0.00    -0.291 A  
HETATM    8  C   UNL     1      -8.955   8.782  70.315  1.00  0.00    -0.174 A  
HETATM    9  C   UNL     1      -8.979   7.644  69.520  1.00  0.00    -0.139 A  
HETATM   10  C   UNL     1      -9.855   7.616  68.450  1.00  0.00    -0.166 A  
HETATM   11  N   UNL     1     -10.690   8.630  68.137  1.00  0.00    -0.120 NA 
ENDBRANCH   5   6
ENDBRANCH   4   5
ENDBRANCH   2   4
TORSDOF 3
ENDMDL
MODEL      190
REMARK 921   NORMALIZED FREE ENERGY PREDICTED BY IDOCK:   -1.76 KCAL/MOL
REMARK 922        TOTAL FREE ENERGY PREDICTED BY IDOCK:   -2.42 KCAL/MOL
REMARK 923 INTER-LIGAND FREE ENERGY PREDICTED BY IDOCK:   -2.33 KCAL/MOL
REMARK 924 INTRA-LIGAND FREE ENERGY PREDICTED BY IDOCK:   -0.09 KCAL/MOL
REMARK 927      BINDING AFFINITY PREDICTED BY RF-SCORE:    0.00 PKD
ROOT
HETATM    1  C   UNL     1      -7.532   8.914  65.756  1.00  0.00    -0.089 C  
HETATM    2  N   UNL     1      -8.833   8.292  65.546  1.00  0.00    -0.317 NA 
HETATM    3  H   UNL     1      -8.780   7.275  65.604  1.00  0.00     0.000 HD 
ENDROOT
BRANCH   2   4
HETATM    4  C   UNL     1      -9.827   8.839  66.480  1.00  0.00    -0.279 C  
BRANCH   4   5
HETATM    5  C   UNL     1     -10.785   7.743  66.959  1.00  0.00    -0.316 C  
BRANCH   5   6
HETATM    6  C   UNL     1     -10.324   7.135  68.261  1.00  0.00    -0.195 A  
HETATM    7  C   UNL     1      -9.202   7.631  68.920  1.00  0.00    -0.139 A  
HETATM    8  C   UNL     1      -8.800   7.030  70.110  1.00  0.00    -0.145 A  
HETATM    9  C   UNL     1      -9.522   5.952  70.608  1.00  0.00    -0.199 A  
HETATM   10  C   UNL     1     -10.621   5.517  69.890  1.00  0.00    -0.317 A  
HETATM   11  N   UNL     1     -11.034   6.082  68.734  1.00  0.00    -0.330 NA 
ENDBRANCH   5   6
ENDBRANCH   4   5
ENDBRANCH   2   4
TORSDOF 3
ENDMDL
MODEL      191
REMARK 921   NORMALIZED FREE ENERGY PREDICTED BY IDOCK:   -1.76 KCAL/MOL
REMARK 922        TOTAL FREE ENERGY PREDICTED BY IDOCK:   -2.41 KCAL/MOL
REMARK 923 INTER-LIGAND FREE ENERGY PREDICTED BY IDOCK:   -2.10 KCAL/MOL
REMARK 924 INTRA-LIGAND FREE ENERGY PREDICTED BY IDOCK:   -0.31 KCAL/MOL
REMARK 927      BINDING AFFINITY PREDICTED BY RF-SCORE:    0.00 PKD
ROOT
HETATM    1  C   UNL     1      -7.997   5.916  70.943  1.00  0.00    -0.111 C  
HETATM    2  N   UNL     1      -8.633   6.663  69.866  1.00  0.00    -0.139 NA 
HETATM    3  H   UNL     1      -9.467   7.155  70.187  1.00  0.00     0.000 HD 
ENDROOT
BRANCH   2   4
HETATM    4  C   UNL     1      -7.673   7.577  69.229  1.00  0.00    -0.112 C  
BRANCH   4   5
HETATM    5  C   UNL     1      -8.298   8.256  68.005  1.00  0.00    -0.129 C  
BRANCH   5   6
HETATM    6  C   UNL     1      -9.425   9.178  68.400  1.00  0.00    -0.142 A  
HETATM    7  C   UNL     1     -10.253   9.744  67.434  1.00  0.00    -0.284 A  
HETATM    8  C   UNL     1     -11.271  10.604  67.840  1.00  0.00    -0.376 A  
HETATM    9  C   UNL     1     -11.433  10.879  69.192  1.00  0.00    -0.373 A  
HETATM   10  C   UNL     1     -10.564  10.280  70.087  1.00  0.00    -0.246 A  
HETATM   11  N   UNL     1      -9.571   9.442  69.721  1.00  0.00    -0.187 NA 
ENDBRANCH   5   6
ENDBRANCH   4   5
ENDBRANCH   2   4
TORSDOF 3
ENDMDL
MODEL      192
REMARK 921   NORMALIZED FREE ENERGY PREDICTED BY IDOCK:   -1.71 KCAL/MOL
REMARK 922        TOTAL FREE ENERGY PREDICTED BY IDOCK:   -2.35 KCAL/MOL
REMARK 923 INTER-LIGAND FREE ENERGY PREDICTED BY IDOCK:   -2.01 KCAL/MOL
REMARK 924 INTRA-LIGAND FREE ENERGY PREDICTED BY IDOCK:   -0.35 KCAL/MOL
REMARK 927      BINDING AFFINITY PREDICTED BY RF-SCORE:    0.00 PKD
ROOT
HETATM    1  C   UNL     1      -8.729  10.852  62.747  1.00  0.00    -0.252 C  
HETATM    2  N   UNL     1      -8.121  10.800  64.070  1.00  0.00    -0.357 NA 
HETATM    3  H   UNL     1      -8.765  11.119  64.794  1.00  0.00     0.000 HD 
ENDROOT
BRANCH   2   4
HETATM    4  C   UNL     1      -7.608   9.452  64.354  1.00  0.00    -0.114 C  
BRANCH   4   5
HETATM    5  C   UNL     1      -8.466   8.755  65.416  1.00  0.00    -0.186 C  
BRANCH   5   6
HETATM    6  C   UNL     1      -9.100   9.752  66.355  1.00  0.00    -0.155 A  
HETATM    7  C   UNL     1      -8.433  10.176  67.500  1.00  0.00    -0.118 A  
HETATM    8  C   UNL     1      -9.062  11.083  68.349  1.00  0.00    -0.161 A  
HETATM    9  C   UNL     1     -10.336  11.538  68.037  1.00  0.00    -0.208 A  
HETATM   10  C   UNL     1     -10.933  11.063  66.883  1.00  0.00    -0.249 A  
HETATM   11  N   UNL     1     -10.345  10.185  66.042  1.00  0.00    -0.205 NA 
ENDBRANCH   5   6
ENDBRANCH   4   5
ENDBRANCH   2   4
TORSDOF 3
ENDMDL
MODEL      193
REMARK 921   NORMALIZED FREE ENERGY PREDICTED BY IDOCK:   -1.70 KCAL/MOL
REMARK 922        TOTAL FREE ENERGY PREDICTED BY IDOCK:   -2.34 KCAL/MOL
REMARK 923 INTER-LIGAND FREE ENERGY PREDICTED BY IDOCK:   -2.26 KCAL/MOL
REMARK 924 INTRA-LIGAND FREE ENERGY PREDICTED BY IDOCK:   -0.08 KCAL/MOL
REMARK 927      BINDING AFFINITY PREDICTED BY RF-SCORE:    0.00 PKD
ROOT
HETATM    1  C   UNL     1      -6.603   3.612  72.037  1.00  0.00    -0.015 C  
HETATM    2  N   UNL     1      -6.831   4.978  72.490  1.00  0.00    -0.067 NA 
HETATM    3  H   UNL     1      -6.001   5.560  72.369  1.00  0.00     0.000 HD 
ENDROOT
BRANCH   2   4
HETATM    4  C   UNL     1      -8.005   5.559  71.822  1.00  0.00    -0.114 C  
BRANCH   4   5
HETATM    5  C   UNL     1      -8.715   6.558  72.742  1.00  0.00    -0.126 C  
BRANCH   5   6
HETATM    6  C   UNL     1     -10.042   6.991  72.168  1.00  0.00    -0.181 A  
HETATM    7  C   UNL     1     -10.709   8.102  72.676  1.00  0.00    -0.421 A  
HETATM    8  C   UNL     1     -11.940   8.457  72.129  1.00  0.00    -0.438 A  
HETATM    9  C   UNL     1     -12.473   7.694  71.098  1.00  0.00    -0.273 A  
HETATM   10  C   UNL     1     -11.750   6.601  70.655  1.00  0.00    -0.394 A  
HETATM   11  N   UNL     1     -10.554   6.236  71.166  1.00  0.00    -0.230 NA 
ENDBRANCH   5   6
ENDBRANCH   4   5
ENDBRANCH   2   4
TORSDOF 3
ENDMDL
MODEL      194
REMARK 921   NORMALIZED FREE ENERGY PREDICTED BY IDOCK:   -1.69 KCAL/MOL
REMARK 922        TOTAL FREE ENERGY PREDICTED BY IDOCK:   -2.33 KCAL/MOL
REMARK 923 INTER-LIGAND FREE ENERGY PREDICTED BY IDOCK:   -2.24 KCAL/MOL
REMARK 924 INTRA-LIGAND FREE ENERGY PREDICTED BY IDOCK:   -0.09 KCAL/MOL
REMARK 927      BINDING AFFINITY PREDICTED BY RF-SCORE:    0.00 PKD
ROOT
HETATM    1  C   UNL     1     -11.069  10.068  69.915  1.00  0.00    -0.288 C  
HETATM    2  N   UNL     1     -10.843  11.409  69.391  1.00  0.00    -0.395 NA 
HETATM    3  H   UNL     1     -10.354  12.000  70.063  1.00  0.00     0.000 HD 
ENDROOT
BRANCH   2   4
HETATM    4  C   UNL     1     -10.139  11.351  68.102  1.00  0.00    -0.189 C  
BRANCH   4   5
HETATM    5  C   UNL     1     -10.756  10.284  67.192  1.00  0.00    -0.303 C  
BRANCH   5   6
HETATM    6  C   UNL     1      -9.777   9.822  66.139  1.00  0.00    -0.246 A  
HETATM    7  C   UNL     1      -9.256  10.719  65.210  1.00  0.00    -0.233 A  
HETATM    8  C   UNL     1      -8.369  10.248  64.244  1.00  0.00    -0.165 A  
HETATM    9  C   UNL     1      -8.032   8.901  64.227  1.00  0.00    -0.146 A  
HETATM   10  C   UNL     1      -8.598   8.076  65.181  1.00  0.00    -0.051 A  
HETATM   11  N   UNL     1      -9.459   8.505  66.130  1.00  0.00    -0.227 NA 
ENDBRANCH   5   6
ENDBRANCH   4   5
ENDBRANCH   2   4
TORSDOF 3
ENDMDL
MODEL      195
REMARK 921   NORMALIZED FREE ENERGY PREDICTED BY IDOCK:   -1.68 KCAL/MOL
REMARK 922        TOTAL FREE ENERGY PREDICTED BY IDOCK:   -2.32 KCAL/MOL
REMARK 923 INTER-LIGAND FREE ENERGY PREDICTED BY IDOCK:   -1.97 KCAL/MOL
REMARK 924 INTRA-LIGAND FREE ENERGY PREDICTED BY IDOCK:   -0.35 KCAL/MOL
REMARK 927      BINDING AFFINITY PREDICTED BY RF-SCORE:    0.00 PKD
ROOT
HETATM    1  C   UNL     1      -5.847   6.593  70.204  1.00  0.00    -0.023 C  
HETATM    2  N   UNL     1      -6.780   7.710  70.150  1.00  0.00    -0.048 NA 
HETATM    3  H   UNL     1      -6.358   8.573  70.494  1.00  0.00     0.000 HD 
ENDROOT
BRANCH   2   4
HETATM    4  C   UNL     1      -7.318   7.873  68.791  1.00  0.00    -0.086 C  
BRANCH   4   5
HETATM    5  C   UNL     1      -8.447   8.910  68.773  1.00  0.00    -0.131 C  
BRANCH   5   6
HETATM    6  C   UNL     1      -9.542   8.551  69.748  1.00  0.00    -0.170 A  
HETATM    7  C   UNL     1     -10.096   9.516  70.583  1.00  0.00    -0.353 A  
HETATM    8  C   UNL     1     -11.092   9.139  71.480  1.00  0.00    -0.436 A  
HETATM    9  C   UNL     1     -11.505   7.814  71.523  1.00  0.00    -0.298 A  
HETATM   10  C   UNL     1     -10.900   6.915  70.664  1.00  0.00    -0.245 A  
HETATM   11  N   UNL     1      -9.933   7.254  69.783  1.00  0.00    -0.181 NA 
ENDBRANCH   5   6
ENDBRANCH   4   5
ENDBRANCH   2   4
TORSDOF 3
ENDMDL
MODEL      196
REMARK 921   NORMALIZED FREE ENERGY PREDICTED BY IDOCK:   -1.62 KCAL/MOL
REMARK 922        TOTAL FREE ENERGY PREDICTED BY IDOCK:   -2.25 KCAL/MOL
REMARK 923 INTER-LIGAND FREE ENERGY PREDICTED BY IDOCK:   -2.17 KCAL/MOL
REMARK 924 INTRA-LIGAND FREE ENERGY PREDICTED BY IDOCK:   -0.08 KCAL/MOL
REMARK 927      BINDING AFFINITY PREDICTED BY RF-SCORE:    0.00 PKD
ROOT
HETATM    1  C   UNL     1     -10.037   8.404  68.617  1.00  0.00    -0.193 C  
HETATM    2  N   UNL     1     -10.818   8.503  69.842  1.00  0.00    -0.295 NA 
HETATM    3  H   UNL     1     -11.490   9.270  69.802  1.00  0.00     0.000 HD 
ENDROOT
BRANCH   2   4
HETATM    4  C   UNL     1     -11.472   7.222  70.147  1.00  0.00    -0.165 C  
BRANCH   4   5
HETATM    5  C   UNL     1     -10.431   6.120  70.374  1.00  0.00    -0.288 C  
BRANCH   5   6
HETATM    6  C   UNL     1     -10.276   5.799  71.840  1.00  0.00    -0.200 A  
HETATM    7  C   UNL     1      -9.849   6.770  72.741  1.00  0.00    -0.183 A  
HETATM    8  C   UNL     1      -9.702   6.427  74.083  1.00  0.00    -0.269 A  
HETATM    9  C   UNL     1      -9.980   5.128  74.488  1.00  0.00    -0.252 A  
HETATM   10  C   UNL     1     -10.394   4.221  73.530  1.00  0.00    -0.178 A  
HETATM   11  N   UNL     1     -10.546   4.527  72.223  1.00  0.00    -0.150 NA 
ENDBRANCH   5   6
ENDBRANCH   4   5
ENDBRANCH   2   4
TORSDOF 3
ENDMDL
MODEL      197
REMARK 921   NORMALIZED FREE ENERGY PREDICTED BY IDOCK:   -1.62 KCAL/MOL
REMARK 922        TOTAL FREE ENERGY PREDICTED BY IDOCK:   -2.25 KCAL/MOL
REMARK 923 INTER-LIGAND FREE ENERGY PREDICTED BY IDOCK:   -2.07 KCAL/MOL
REMARK 924 INTRA-LIGAND FREE ENERGY PREDICTED BY IDOCK:   -0.18 KCAL/MOL
REMARK 927      BINDING AFFINITY PREDICTED BY RF-SCORE:    0.00 PKD
ROOT
HETATM    1  C   UNL     1      -8.887   7.148  69.046  1.00  0.00    -0.131 C  
HETATM    2  N   UNL     1      -8.940   7.164  67.590  1.00  0.00    -0.125 NA 
HETATM    3  H   UNL     1      -9.700   7.751  67.246  1.00  0.00     0.000 HD 
ENDROOT
BRANCH   2   4
HETATM    4  C   UNL     1      -7.643   7.568  67.027  1.00  0.00    -0.103 C  
BRANCH   4   5
HETATM    5  C   UNL     1      -7.709   7.624  65.497  1.00  0.00    -0.101 C  
BRANCH   5   6
HETATM    6  C   UNL     1      -8.557   8.779  65.022  1.00  0.00    -0.169 A  
HETATM    7  C   UNL     1      -8.520   9.190  63.693  1.00  0.00    -0.190 A  
HETATM    8  C   UNL     1      -9.306  10.272  63.300  1.00  0.00    -0.340 A  
HETATM    9  C   UNL     1     -10.101  10.914  64.241  1.00  0.00    -0.413 A  
HETATM   10  C   UNL     1     -10.076  10.447  65.543  1.00  0.00    -0.283 A  
HETATM   11  N   UNL     1      -9.325   9.400  65.950  1.00  0.00    -0.211 NA 
ENDBRANCH   5   6
ENDBRANCH   4   5
ENDBRANCH   2   4
TORSDOF 3
ENDMDL
MODEL      198
REMARK 921   NORMALIZED FREE ENERGY PREDICTED BY IDOCK:   -1.62 KCAL/MOL
REMARK 922        TOTAL FREE ENERGY PREDICTED BY IDOCK:   -2.25 KCAL/MOL
REMARK 923 INTER-LIGAND FREE ENERGY PREDICTED BY IDOCK:   -2.11 KCAL/MOL
REMARK 924 INTRA-LIGAND FREE ENERGY PREDICTED BY IDOCK:   -0.14 KCAL/MOL
REMARK 927      BINDING AFFINITY PREDICTED BY RF-SCORE:    0.00 PKD
ROOT
HETATM    1  C   UNL     1      -9.022  10.138  68.160  1.00  0.00    -0.122 C  
HETATM    2  N   UNL     1      -8.236   8.932  68.379  1.00  0.00    -0.116 NA 
HETATM    3  H   UNL     1      -7.897   8.870  69.339  1.00  0.00     0.000 HD 
ENDROOT
BRANCH   2   4
HETATM    4  C   UNL     1      -9.001   7.736  67.994  1.00  0.00    -0.126 C  
BRANCH   4   5
HETATM    5  C   UNL     1      -8.727   6.581  68.964  1.00  0.00    -0.128 C  
BRANCH   5   6
HETATM    6  C   UNL     1      -9.818   6.459  70.000  1.00  0.00    -0.168 A  
HETATM    7  C   UNL     1     -11.063   7.048  69.796  1.00  0.00    -0.278 A  
HETATM    8  C   UNL     1     -12.036   6.926  70.786  1.00  0.00    -0.424 A  
HETATM    9  C   UNL     1     -11.741   6.228  71.949  1.00  0.00    -0.370 A  
HETATM   10  C   UNL     1     -10.478   5.678  72.077  1.00  0.00    -0.219 A  
HETATM   11  N   UNL     1      -9.517   5.779  71.133  1.00  0.00    -0.156 NA 
ENDBRANCH   5   6
ENDBRANCH   4   5
ENDBRANCH   2   4
TORSDOF 3
ENDMDL
MODEL      199
REMARK 921   NORMALIZED FREE ENERGY PREDICTED BY IDOCK:   -1.61 KCAL/MOL
REMARK 922        TOTAL FREE ENERGY PREDICTED BY IDOCK:   -2.23 KCAL/MOL
REMARK 923 INTER-LIGAND FREE ENERGY PREDICTED BY IDOCK:   -2.12 KCAL/MOL
REMARK 924 INTRA-LIGAND FREE ENERGY PREDICTED BY IDOCK:   -0.11 KCAL/MOL
REMARK 927      BINDING AFFINITY PREDICTED BY RF-SCORE:    0.00 PKD
ROOT
HETATM    1  C   UNL     1     -10.426   3.472  63.822  1.00  0.00    -0.265 C  
HETATM    2  N   UNL     1      -9.841   2.769  64.955  1.00  0.00    -0.360 NA 
HETATM    3  H   UNL     1      -9.007   2.245  64.686  1.00  0.00     0.000 HD 
ENDROOT
BRANCH   2   4
HETATM    4  C   UNL     1      -9.566   3.700  66.059  1.00  0.00    -0.133 C  
BRANCH   4   5
HETATM    5  C   UNL     1     -10.556   4.869  66.044  1.00  0.00    -0.312 C  
BRANCH   5   6
HETATM    6  C   UNL     1     -10.002   6.072  66.769  1.00  0.00    -0.174 A  
HETATM    7  C   UNL     1      -8.637   6.343  66.760  1.00  0.00    -0.113 A  
HETATM    8  C   UNL     1      -8.166   7.453  67.457  1.00  0.00    -0.113 A  
HETATM    9  C   UNL     1      -9.065   8.257  68.145  1.00  0.00    -0.134 A  
HETATM   10  C   UNL     1     -10.404   7.916  68.110  1.00  0.00    -0.200 A  
HETATM   11  N   UNL     1     -10.888   6.847  67.441  1.00  0.00    -0.315 NA 
ENDBRANCH   5   6
ENDBRANCH   4   5
ENDBRANCH   2   4
TORSDOF 3
ENDMDL
MODEL      200
REMARK 921   NORMALIZED FREE ENERGY PREDICTED BY IDOCK:   -1.59 KCAL/MOL
REMARK 922        TOTAL FREE ENERGY PREDICTED BY IDOCK:   -2.21 KCAL/MOL
REMARK 923 INTER-LIGAND FREE ENERGY PREDICTED BY IDOCK:   -1.97 KCAL/MOL
REMARK 924 INTRA-LIGAND FREE ENERGY PREDICTED BY IDOCK:   -0.25 KCAL/MOL
REMARK 927      BINDING AFFINITY PREDICTED BY RF-SCORE:    0.00 PKD
ROOT
HETATM    1  C   UNL     1      -7.088   8.274  74.342  1.00  0.00    -0.175 C  
HETATM    2  N   UNL     1      -7.700   8.564  73.052  1.00  0.00    -0.359 NA 
HETATM    3  H   UNL     1      -7.315   9.410  72.632  1.00  0.00     0.000 HD 
ENDROOT
BRANCH   2   4
HETATM    4  C   UNL     1      -7.583   7.408  72.150  1.00  0.00    -0.084 C  
BRANCH   4   5
HETATM    5  C   UNL     1      -8.962   6.807  71.855  1.00  0.00    -0.135 C  
BRANCH   5   6
HETATM    6  C   UNL     1      -9.433   7.160  70.465  1.00  0.00    -0.162 A  
HETATM    7  C   UNL     1     -10.236   6.283  69.742  1.00  0.00    -0.234 A  
HETATM    8  C   UNL     1     -10.633   6.639  68.455  1.00  0.00    -0.276 A  
HETATM    9  C   UNL     1     -10.217   7.853  67.925  1.00  0.00    -0.263 A  
HETATM   10  C   UNL     1      -9.416   8.665  68.707  1.00  0.00    -0.143 A  
HETATM   11  N   UNL     1      -9.017   8.345  69.957  1.00  0.00    -0.137 NA 
ENDBRANCH   5   6
ENDBRANCH   4   5
ENDBRANCH   2   4
TORSDOF 3
ENDMDL
MODEL      201
REMARK 921   NORMALIZED FREE ENERGY PREDICTED BY IDOCK:   -1.59 KCAL/MOL
REMARK 922        TOTAL FREE ENERGY PREDICTED BY IDOCK:   -2.21 KCAL/MOL
REMARK 923 INTER-LIGAND FREE ENERGY PREDICTED BY IDOCK:   -1.98 KCAL/MOL
REMARK 924 INTRA-LIGAND FREE ENERGY PREDICTED BY IDOCK:   -0.24 KCAL/MOL
REMARK 927      BINDING AFFINITY PREDICTED BY RF-SCORE:    0.00 PKD
ROOT
HETATM    1  C   UNL     1      -6.616  11.029  66.382  1.00  0.00    -0.126 C  
HETATM    2  N   UNL     1      -6.706  11.762  67.637  1.00  0.00    -0.082 NA 
HETATM    3  H   UNL     1      -5.931  11.537  68.263  1.00  0.00     0.000 HD 
ENDROOT
BRANCH   2   4
HETATM    4  C   UNL     1      -6.803  13.208  67.389  1.00  0.00    -0.102 C  
BRANCH   4   5
HETATM    5  C   UNL     1      -8.163  13.748  67.846  1.00  0.00    -0.166 C  
BRANCH   5   6
HETATM    6  C   UNL     1      -9.264  12.743  67.609  1.00  0.00    -0.192 A  
HETATM    7  C   UNL     1     -10.050  12.804  66.462  1.00  0.00    -0.264 A  
HETATM    8  C   UNL     1     -11.067  11.868  66.292  1.00  0.00    -0.364 A  
HETATM    9  C   UNL     1     -11.275  10.902  67.268  1.00  0.00    -0.307 A  
HETATM   10  C   UNL     1     -10.454  10.913  68.381  1.00  0.00    -0.183 A  
HETATM   11  N   UNL     1      -9.460  11.808  68.570  1.00  0.00    -0.190 NA 
ENDBRANCH   5   6
ENDBRANCH   4   5
ENDBRANCH   2   4
TORSDOF 3
ENDMDL
MODEL      202
REMARK 921   NORMALIZED FREE ENERGY PREDICTED BY IDOCK:   -1.59 KCAL/MOL
REMARK 922        TOTAL FREE ENERGY PREDICTED BY IDOCK:   -2.21 KCAL/MOL
REMARK 923 INTER-LIGAND FREE ENERGY PREDICTED BY IDOCK:   -1.94 KCAL/MOL
REMARK 924 INTRA-LIGAND FREE ENERGY PREDICTED BY IDOCK:   -0.27 KCAL/MOL
REMARK 927      BINDING AFFINITY PREDICTED BY RF-SCORE:    0.00 PKD
ROOT
HETATM    1  C   UNL     1      -9.160   7.977  73.477  1.00  0.00    -0.259 C  
HETATM    2  N   UNL     1      -9.408   8.007  72.042  1.00  0.00    -0.161 NA 
HETATM    3  H   UNL     1      -8.824   7.337  71.543  1.00  0.00     0.000 HD 
ENDROOT
BRANCH   2   4
HETATM    4  C   UNL     1     -10.836   7.802  71.757  1.00  0.00    -0.236 C  
BRANCH   4   5
HETATM    5  C   UNL     1     -11.057   6.485  71.005  1.00  0.00    -0.339 C  
BRANCH   5   6
HETATM    6  C   UNL     1     -10.229   5.368  71.591  1.00  0.00    -0.209 A  
HETATM    7  C   UNL     1     -10.722   4.588  72.633  1.00  0.00    -0.229 A  
HETATM    8  C   UNL     1      -9.917   3.578  73.157  1.00  0.00    -0.197 A  
HETATM    9  C   UNL     1      -8.647   3.378  72.634  1.00  0.00    -0.090 A  
HETATM   10  C   UNL     1      -8.230   4.200  71.603  1.00  0.00    -0.090 A  
HETATM   11  N   UNL     1      -8.990   5.185  71.075  1.00  0.00    -0.131 NA 
ENDBRANCH   5   6
ENDBRANCH   4   5
ENDBRANCH   2   4
TORSDOF 3
ENDMDL
MODEL      203
REMARK 921   NORMALIZED FREE ENERGY PREDICTED BY IDOCK:   -1.56 KCAL/MOL
REMARK 922        TOTAL FREE ENERGY PREDICTED BY IDOCK:   -2.18 KCAL/MOL
REMARK 923 INTER-LIGAND FREE ENERGY PREDICTED BY IDOCK:   -1.88 KCAL/MOL
REMARK 924 INTRA-LIGAND FREE ENERGY PREDICTED BY IDOCK:   -0.31 KCAL/MOL
REMARK 927      BINDING AFFINITY PREDICTED BY RF-SCORE:    0.00 PKD
ROOT
HETATM    1  C   UNL     1      -8.545   8.425  71.953  1.00  0.00    -0.186 C  
HETATM    2  N   UNL     1      -8.704   9.551  71.043  1.00  0.00    -0.346 NA 
HETATM    3  H   UNL     1      -9.002  10.395  71.533  1.00  0.00     0.000 HD 
ENDROOT
BRANCH   2   4
HETATM    4  C   UNL     1      -7.472   9.775  70.272  1.00  0.00    -0.164 C  
BRANCH   4   5
HETATM    5  C   UNL     1      -7.617  10.997  69.358  1.00  0.00    -0.058 C  
BRANCH   5   6
HETATM    6  C   UNL     1      -8.655  10.765  68.287  1.00  0.00    -0.135 A  
HETATM    7  C   UNL     1      -8.299  10.224  67.056  1.00  0.00    -0.126 A  
HETATM    8  C   UNL     1      -9.286  10.043  66.089  1.00  0.00    -0.205 A  
HETATM    9  C   UNL     1     -10.594  10.411  66.373  1.00  0.00    -0.198 A  
HETATM   10  C   UNL     1     -10.864  10.947  67.619  1.00  0.00    -0.266 A  
HETATM   11  N   UNL     1      -9.928  11.132  68.575  1.00  0.00    -0.193 NA 
ENDBRANCH   5   6
ENDBRANCH   4   5
ENDBRANCH   2   4
TORSDOF 3
ENDMDL
MODEL      204
REMARK 921   NORMALIZED FREE ENERGY PREDICTED BY IDOCK:   -1.55 KCAL/MOL
REMARK 922        TOTAL FREE ENERGY PREDICTED BY IDOCK:   -2.17 KCAL/MOL
REMARK 923 INTER-LIGAND FREE ENERGY PREDICTED BY IDOCK:   -2.02 KCAL/MOL
REMARK 924 INTRA-LIGAND FREE ENERGY PREDICTED BY IDOCK:   -0.15 KCAL/MOL
REMARK 927      BINDING AFFINITY PREDICTED BY RF-SCORE:    0.00 PKD
ROOT
HETATM    1  C   UNL     1     -10.948   5.241  73.685  1.00  0.00    -0.255 C  
HETATM    2  N   UNL     1     -10.877   6.674  73.936  1.00  0.00    -0.470 NA 
HETATM    3  H   UNL     1      -9.916   6.986  74.078  1.00  0.00     0.000 HD 
ENDROOT
BRANCH   2   4
HETATM    4  C   UNL     1     -11.538   7.424  72.857  1.00  0.00    -0.152 C  
BRANCH   4   5
HETATM    5  C   UNL     1     -10.554   8.385  72.181  1.00  0.00    -0.400 C  
BRANCH   5   6
HETATM    6  C   UNL     1      -9.447   7.638  71.476  1.00  0.00    -0.143 A  
HETATM    7  C   UNL     1      -8.124   7.778  71.882  1.00  0.00    -0.120 A  
HETATM    8  C   UNL     1      -7.131   7.084  71.193  1.00  0.00    -0.074 A  
HETATM    9  C   UNL     1      -7.484   6.277  70.120  1.00  0.00    -0.094 A  
HETATM   10  C   UNL     1      -8.821   6.196  69.777  1.00  0.00    -0.135 A  
HETATM   11  N   UNL     1      -9.803   6.856  70.428  1.00  0.00    -0.179 NA 
ENDBRANCH   5   6
ENDBRANCH   4   5
ENDBRANCH   2   4
TORSDOF 3
ENDMDL
MODEL      205
REMARK 921   NORMALIZED FREE ENERGY PREDICTED BY IDOCK:   -1.54 KCAL/MOL
REMARK 922        TOTAL FREE ENERGY PREDICTED BY IDOCK:   -2.16 KCAL/MOL
REMARK 923 INTER-LIGAND FREE ENERGY PREDICTED BY IDOCK:   -2.06 KCAL/MOL
REMARK 924 INTRA-LIGAND FREE ENERGY PREDICTED BY IDOCK:   -0.10 KCAL/MOL
REMARK 927      BINDING AFFINITY PREDICTED BY RF-SCORE:    0.00 PKD
ROOT
HETATM    1  C   UNL     1      -9.532   4.123  69.143  1.00  0.00    -0.178 C  
HETATM    2  N   UNL     1     -10.080   4.733  67.939  1.00  0.00    -0.099 NA 
HETATM    3  H   UNL     1     -11.078   4.923  68.032  1.00  0.00     0.000 HD 
ENDROOT
BRANCH   2   4
HETATM    4  C   UNL     1      -9.327   5.943  67.580  1.00  0.00    -0.107 C  
BRANCH   4   5
HETATM    5  C   UNL     1      -9.465   7.013  68.669  1.00  0.00    -0.135 C  
BRANCH   5   6
HETATM    6  C   UNL     1      -9.946   8.324  68.098  1.00  0.00    -0.191 A  
HETATM    7  C   UNL     1      -9.934   8.550  66.725  1.00  0.00    -0.351 A  
HETATM    8  C   UNL     1     -10.370   9.781  66.240  1.00  0.00    -0.235 A  
HETATM    9  C   UNL     1     -10.802  10.752  67.135  1.00  0.00    -0.335 A  
HETATM   10  C   UNL     1     -10.778  10.450  68.485  1.00  0.00    -0.221 A  
HETATM   11  N   UNL     1     -10.361   9.265  68.981  1.00  0.00    -0.210 NA 
ENDBRANCH   5   6
ENDBRANCH   4   5
ENDBRANCH   2   4
TORSDOF 3
ENDMDL
MODEL      206
REMARK 921   NORMALIZED FREE ENERGY PREDICTED BY IDOCK:   -1.53 KCAL/MOL
REMARK 922        TOTAL FREE ENERGY PREDICTED BY IDOCK:   -2.14 KCAL/MOL
REMARK 923 INTER-LIGAND FREE ENERGY PREDICTED BY IDOCK:   -2.00 KCAL/MOL
REMARK 924 INTRA-LIGAND FREE ENERGY PREDICTED BY IDOCK:   -0.14 KCAL/MOL
REMARK 927      BINDING AFFINITY PREDICTED BY RF-SCORE:    0.00 PKD
ROOT
HETATM    1  C   UNL     1     -11.087  13.705  65.430  1.00  0.00    -0.298 C  
HETATM    2  N   UNL     1     -11.781  12.424  65.406  1.00  0.00    -0.389 NA 
HETATM    3  H   UNL     1     -12.684  12.493  64.937  1.00  0.00     0.000 HD 
ENDROOT
BRANCH   2   4
HETATM    4  C   UNL     1     -10.933  11.384  64.806  1.00  0.00    -0.234 C  
BRANCH   4   5
HETATM    5  C   UNL     1      -9.460  11.607  65.167  1.00  0.00    -0.152 C  
BRANCH   5   6
HETATM    6  C   UNL     1      -9.044  10.756  66.342  1.00  0.00    -0.171 A  
HETATM    7  C   UNL     1      -9.182   9.372  66.302  1.00  0.00    -0.229 A  
HETATM    8  C   UNL     1      -8.802   8.625  67.415  1.00  0.00    -0.140 A  
HETATM    9  C   UNL     1      -8.301   9.277  68.535  1.00  0.00    -0.119 A  
HETATM   10  C   UNL     1      -8.202  10.655  68.495  1.00  0.00    -0.128 A  
HETATM   11  N   UNL     1      -8.561  11.404  67.430  1.00  0.00    -0.139 NA 
ENDBRANCH   5   6
ENDBRANCH   4   5
ENDBRANCH   2   4
TORSDOF 3
ENDMDL
MODEL      207
REMARK 921   NORMALIZED FREE ENERGY PREDICTED BY IDOCK:   -1.50 KCAL/MOL
REMARK 922        TOTAL FREE ENERGY PREDICTED BY IDOCK:   -2.11 KCAL/MOL
REMARK 923 INTER-LIGAND FREE ENERGY PREDICTED BY IDOCK:   -2.02 KCAL/MOL
REMARK 924 INTRA-LIGAND FREE ENERGY PREDICTED BY IDOCK:   -0.09 KCAL/MOL
REMARK 927      BINDING AFFINITY PREDICTED BY RF-SCORE:    0.00 PKD
ROOT
HETATM    1  C   UNL     1      -7.263  10.332  66.500  1.00  0.00    -0.109 C  
HETATM    2  N   UNL     1      -7.612   8.925  66.354  1.00  0.00    -0.091 NA 
HETATM    3  H   UNL     1      -6.974   8.321  66.872  1.00  0.00     0.000 HD 
ENDROOT
BRANCH   2   4
HETATM    4  C   UNL     1      -9.012   8.695  66.738  1.00  0.00    -0.141 C  
BRANCH   4   5
HETATM    5  C   UNL     1      -9.283   9.225  68.151  1.00  0.00    -0.136 C  
BRANCH   5   6
HETATM    6  C   UNL     1      -9.943   8.179  69.017  1.00  0.00    -0.189 A  
HETATM    7  C   UNL     1     -10.776   7.215  68.457  1.00  0.00    -0.191 A  
HETATM    8  C   UNL     1     -11.380   6.279  69.295  1.00  0.00    -0.411 A  
HETATM    9  C   UNL     1     -11.140   6.333  70.661  1.00  0.00    -0.389 A  
HETATM   10  C   UNL     1     -10.304   7.326  71.138  1.00  0.00    -0.198 A  
HETATM   11  N   UNL     1      -9.705   8.244  70.349  1.00  0.00    -0.167 NA 
ENDBRANCH   5   6
ENDBRANCH   4   5
ENDBRANCH   2   4
TORSDOF 3
ENDMDL
MODEL      208
REMARK 921   NORMALIZED FREE ENERGY PREDICTED BY IDOCK:   -1.45 KCAL/MOL
REMARK 922        TOTAL FREE ENERGY PREDICTED BY IDOCK:   -2.05 KCAL/MOL
REMARK 923 INTER-LIGAND FREE ENERGY PREDICTED BY IDOCK:   -1.97 KCAL/MOL
REMARK 924 INTRA-LIGAND FREE ENERGY PREDICTED BY IDOCK:   -0.07 KCAL/MOL
REMARK 927      BINDING AFFINITY PREDICTED BY RF-SCORE:    0.00 PKD
ROOT
HETATM    1  C   UNL     1      -7.729   8.138  70.794  1.00  0.00    -0.080 C  
HETATM    2  N   UNL     1      -6.884   8.698  69.748  1.00  0.00    -0.042 NA 
HETATM    3  H   UNL     1      -6.187   8.027  69.425  1.00  0.00     0.000 HD 
ENDROOT
BRANCH   2   4
HETATM    4  C   UNL     1      -7.702   9.210  68.638  1.00  0.00    -0.092 C  
BRANCH   4   5
HETATM    5  C   UNL     1      -9.109   8.604  68.675  1.00  0.00    -0.138 C  
BRANCH   5   6
HETATM    6  C   UNL     1     -10.171   9.675  68.723  1.00  0.00    -0.196 A  
HETATM    7  C   UNL     1     -10.982   9.824  69.844  1.00  0.00    -0.299 A  
HETATM    8  C   UNL     1     -11.962  10.814  69.840  1.00  0.00    -0.418 A  
HETATM    9  C   UNL     1     -12.110  11.623  68.720  1.00  0.00    -0.221 A  
HETATM   10  C   UNL     1     -11.268  11.406  67.645  1.00  0.00    -0.283 A  
HETATM   11  N   UNL     1     -10.308  10.455  67.623  1.00  0.00    -0.204 NA 
ENDBRANCH   5   6
ENDBRANCH   4   5
ENDBRANCH   2   4
TORSDOF 3
ENDMDL
MODEL      209
REMARK 921   NORMALIZED FREE ENERGY PREDICTED BY IDOCK:   -1.45 KCAL/MOL
REMARK 922        TOTAL FREE ENERGY PREDICTED BY IDOCK:   -2.04 KCAL/MOL
REMARK 923 INTER-LIGAND FREE ENERGY PREDICTED BY IDOCK:   -1.68 KCAL/MOL
REMARK 924 INTRA-LIGAND FREE ENERGY PREDICTED BY IDOCK:   -0.37 KCAL/MOL
REMARK 927      BINDING AFFINITY PREDICTED BY RF-SCORE:    0.00 PKD
ROOT
HETATM    1  C   UNL     1      -9.060   9.413  64.306  1.00  0.00    -0.106 C  
HETATM    2  N   UNL     1      -8.717   9.637  65.704  1.00  0.00    -0.134 NA 
HETATM    3  H   UNL     1      -8.260  10.538  65.842  1.00  0.00     0.000 HD 
ENDROOT
BRANCH   2   4
HETATM    4  C   UNL     1      -9.904   9.493  66.560  1.00  0.00    -0.240 C  
BRANCH   4   5
HETATM    5  C   UNL     1     -10.450  10.866  66.969  1.00  0.00    -0.291 C  
BRANCH   5   6
HETATM    6  C   UNL     1      -9.336  11.815  67.339  1.00  0.00    -0.174 A  
HETATM    7  C   UNL     1      -9.235  13.064  66.733  1.00  0.00    -0.229 A  
HETATM    8  C   UNL     1      -8.182  13.903  67.091  1.00  0.00    -0.128 A  
HETATM    9  C   UNL     1      -7.258  13.473  68.034  1.00  0.00    -0.125 A  
HETATM   10  C   UNL     1      -7.426  12.215  68.584  1.00  0.00    -0.105 A  
HETATM   11  N   UNL     1      -8.439  11.383  68.258  1.00  0.00    -0.148 NA 
ENDBRANCH   5   6
ENDBRANCH   4   5
ENDBRANCH   2   4
TORSDOF 3
ENDMDL
MODEL      210
REMARK 921   NORMALIZED FREE ENERGY PREDICTED BY IDOCK:   -1.44 KCAL/MOL
REMARK 922        TOTAL FREE ENERGY PREDICTED BY IDOCK:   -2.04 KCAL/MOL
REMARK 923 INTER-LIGAND FREE ENERGY PREDICTED BY IDOCK:   -1.76 KCAL/MOL
REMARK 924 INTRA-LIGAND FREE ENERGY PREDICTED BY IDOCK:   -0.28 KCAL/MOL
REMARK 927      BINDING AFFINITY PREDICTED BY RF-SCORE:    0.00 PKD
ROOT
HETATM    1  C   UNL     1      -9.307   3.980  67.020  1.00  0.00    -0.183 C  
HETATM    2  N   UNL     1     -10.215   4.887  67.708  1.00  0.00    -0.102 NA 
HETATM    3  H   UNL     1      -9.775   5.319  68.521  1.00  0.00     0.000 HD 
ENDROOT
BRANCH   2   4
HETATM    4  C   UNL     1     -10.748   5.894  66.779  1.00  0.00    -0.299 C  
BRANCH   4   5
HETATM    5  C   UNL     1     -10.674   7.296  67.395  1.00  0.00    -0.358 C  
BRANCH   5   6
HETATM    6  C   UNL     1      -9.512   8.083  66.839  1.00  0.00    -0.191 A  
HETATM    7  C   UNL     1      -9.394   9.447  67.087  1.00  0.00    -0.172 A  
HETATM    8  C   UNL     1      -8.315  10.139  66.540  1.00  0.00    -0.124 A  
HETATM    9  C   UNL     1      -7.390   9.456  65.762  1.00  0.00    -0.095 A  
HETATM   10  C   UNL     1      -7.584   8.102  65.559  1.00  0.00    -0.087 A  
HETATM   11  N   UNL     1      -8.619   7.406  66.078  1.00  0.00    -0.147 NA 
ENDBRANCH   5   6
ENDBRANCH   4   5
ENDBRANCH   2   4
TORSDOF 3
ENDMDL
MODEL      211
REMARK 921   NORMALIZED FREE ENERGY PREDICTED BY IDOCK:   -1.41 KCAL/MOL
REMARK 922        TOTAL FREE ENERGY PREDICTED BY IDOCK:   -2.01 KCAL/MOL
REMARK 923 INTER-LIGAND FREE ENERGY PREDICTED BY IDOCK:   -1.95 KCAL/MOL
REMARK 924 INTRA-LIGAND FREE ENERGY PREDICTED BY IDOCK:   -0.06 KCAL/MOL
REMARK 927      BINDING AFFINITY PREDICTED BY RF-SCORE:    0.00 PKD
ROOT
HETATM    1  C   UNL     1     -10.705   5.592  69.360  1.00  0.00    -0.242 C  
HETATM    2  N   UNL     1     -11.681   6.649  69.590  1.00  0.00    -0.657 NA 
HETATM    3  H   UNL     1     -12.316   6.417  70.354  1.00  0.00     0.000 HD 
ENDROOT
BRANCH   2   4
HETATM    4  C   UNL     1     -11.008   7.937  69.813  1.00  0.00    -0.148 C  
BRANCH   4   5
HETATM    5  C   UNL     1      -9.538   7.865  69.387  1.00  0.00    -0.160 C  
BRANCH   5   6
HETATM    6  C   UNL     1      -8.611   8.087  70.557  1.00  0.00    -0.134 A  
HETATM    7  C   UNL     1      -9.116   8.239  71.845  1.00  0.00    -0.259 A  
HETATM    8  C   UNL     1      -8.226   8.460  72.895  1.00  0.00    -0.181 A  
HETATM    9  C   UNL     1      -6.864   8.528  72.632  1.00  0.00    -0.069 A  
HETATM   10  C   UNL     1      -6.446   8.373  71.323  1.00  0.00    -0.051 A  
HETATM   11  N   UNL     1      -7.285   8.156  70.287  1.00  0.00    -0.051 NA 
ENDBRANCH   5   6
ENDBRANCH   4   5
ENDBRANCH   2   4
TORSDOF 3
ENDMDL
MODEL      212
REMARK 921   NORMALIZED FREE ENERGY PREDICTED BY IDOCK:   -1.41 KCAL/MOL
REMARK 922        TOTAL FREE ENERGY PREDICTED BY IDOCK:   -2.00 KCAL/MOL
REMARK 923 INTER-LIGAND FREE ENERGY PREDICTED BY IDOCK:   -1.89 KCAL/MOL
REMARK 924 INTRA-LIGAND FREE ENERGY PREDICTED BY IDOCK:   -0.11 KCAL/MOL
REMARK 927      BINDING AFFINITY PREDICTED BY RF-SCORE:    0.00 PKD
ROOT
HETATM    1  C   UNL     1      -5.854   9.290  67.947  1.00  0.00    -0.041 C  
HETATM    2  N   UNL     1      -6.706   8.242  68.495  1.00  0.00    -0.062 NA 
HETATM    3  H   UNL     1      -6.590   8.150  69.504  1.00  0.00     0.000 HD 
ENDROOT
BRANCH   2   4
HETATM    4  C   UNL     1      -8.111   8.469  68.126  1.00  0.00    -0.119 C  
BRANCH   4   5
HETATM    5  C   UNL     1      -8.233   8.830  66.642  1.00  0.00    -0.107 C  
BRANCH   5   6
HETATM    6  C   UNL     1      -9.260   9.912  66.418  1.00  0.00    -0.158 A  
HETATM    7  C   UNL     1     -10.279  10.128  67.342  1.00  0.00    -0.267 A  
HETATM    8  C   UNL     1     -11.217  11.126  67.089  1.00  0.00    -0.320 A  
HETATM    9  C   UNL     1     -11.118  11.876  65.924  1.00  0.00    -0.365 A  
HETATM   10  C   UNL     1     -10.080  11.594  65.055  1.00  0.00    -0.263 A  
HETATM   11  N   UNL     1      -9.155  10.634  65.276  1.00  0.00    -0.187 NA 
ENDBRANCH   5   6
ENDBRANCH   4   5
ENDBRANCH   2   4
TORSDOF 3
ENDMDL
MODEL      213
REMARK 921   NORMALIZED FREE ENERGY PREDICTED BY IDOCK:   -1.40 KCAL/MOL
REMARK 922        TOTAL FREE ENERGY PREDICTED BY IDOCK:   -1.99 KCAL/MOL
REMARK 923 INTER-LIGAND FREE ENERGY PREDICTED BY IDOCK:   -1.89 KCAL/MOL
REMARK 924 INTRA-LIGAND FREE ENERGY PREDICTED BY IDOCK:   -0.10 KCAL/MOL
REMARK 927      BINDING AFFINITY PREDICTED BY RF-SCORE:    0.00 PKD
ROOT
HETATM    1  C   UNL     1     -10.437  10.019  70.247  1.00  0.00    -0.272 C  
HETATM    2  N   UNL     1     -10.570  10.148  68.802  1.00  0.00    -0.203 NA 
HETATM    3  H   UNL     1     -10.375  11.099  68.488  1.00  0.00     0.000 HD 
ENDROOT
BRANCH   2   4
HETATM    4  C   UNL     1      -9.725   9.163  68.111  1.00  0.00    -0.154 C  
BRANCH   4   5
HETATM    5  C   UNL     1     -10.585   8.154  67.341  1.00  0.00    -0.325 C  
BRANCH   5   6
HETATM    6  C   UNL     1      -9.969   6.776  67.358  1.00  0.00    -0.148 A  
HETATM    7  C   UNL     1      -8.897   6.486  68.197  1.00  0.00    -0.115 A  
HETATM    8  C   UNL     1      -8.347   5.207  68.169  1.00  0.00    -0.097 A  
HETATM    9  C   UNL     1      -8.875   4.257  67.305  1.00  0.00    -0.121 A  
HETATM   10  C   UNL     1      -9.936   4.627  66.499  1.00  0.00    -0.242 A  
HETATM   11  N   UNL     1     -10.490   5.859  66.508  1.00  0.00    -0.213 NA 
ENDBRANCH   5   6
ENDBRANCH   4   5
ENDBRANCH   2   4
TORSDOF 3
ENDMDL
MODEL      214
REMARK 921   NORMALIZED FREE ENERGY PREDICTED BY IDOCK:   -1.40 KCAL/MOL
REMARK 922        TOTAL FREE ENERGY PREDICTED BY IDOCK:   -1.99 KCAL/MOL
REMARK 923 INTER-LIGAND FREE ENERGY PREDICTED BY IDOCK:   -1.92 KCAL/MOL
REMARK 924 INTRA-LIGAND FREE ENERGY PREDICTED BY IDOCK:   -0.07 KCAL/MOL
REMARK 927      BINDING AFFINITY PREDICTED BY RF-SCORE:    0.00 PKD
ROOT
HETATM    1  C   UNL     1      -8.548   8.120  73.558  1.00  0.00    -0.246 C  
HETATM    2  N   UNL     1      -8.770   6.860  72.861  1.00  0.00    -0.123 NA 
HETATM    3  H   UNL     1      -7.917   6.303  72.805  1.00  0.00     0.000 HD 
ENDROOT
BRANCH   2   4
HETATM    4  C   UNL     1      -9.871   6.109  73.482  1.00  0.00    -0.174 C  
BRANCH   4   5
HETATM    5  C   UNL     1     -10.831   5.568  72.416  1.00  0.00    -0.301 C  
BRANCH   5   6
HETATM    6  C   UNL     1     -10.244   4.377  71.699  1.00  0.00    -0.116 A  
HETATM    7  C   UNL     1      -9.682   4.514  70.433  1.00  0.00    -0.287 A  
HETATM    8  C   UNL     1      -9.168   3.385  69.798  1.00  0.00    -0.220 A  
HETATM    9  C   UNL     1      -9.233   2.155  70.439  1.00  0.00    -0.186 A  
HETATM   10  C   UNL     1      -9.813   2.103  71.693  1.00  0.00    -0.147 A  
HETATM   11  N   UNL     1     -10.317   3.181  72.332  1.00  0.00    -0.122 NA 
ENDBRANCH   5   6
ENDBRANCH   4   5
ENDBRANCH   2   4
TORSDOF 3
ENDMDL
MODEL      215
REMARK 921   NORMALIZED FREE ENERGY PREDICTED BY IDOCK:   -1.39 KCAL/MOL
REMARK 922        TOTAL FREE ENERGY PREDICTED BY IDOCK:   -1.98 KCAL/MOL
REMARK 923 INTER-LIGAND FREE ENERGY PREDICTED BY IDOCK:   -1.89 KCAL/MOL
REMARK 924 INTRA-LIGAND FREE ENERGY PREDICTED BY IDOCK:   -0.09 KCAL/MOL
REMARK 927      BINDING AFFINITY PREDICTED BY RF-SCORE:    0.00 PKD
ROOT
HETATM    1  C   UNL     1      -7.259   9.658  63.430  1.00  0.00    -0.113 C  
HETATM    2  N   UNL     1      -8.134   9.924  64.563  1.00  0.00    -0.142 NA 
HETATM    3  H   UNL     1      -9.040  10.288  64.265  1.00  0.00     0.000 HD 
ENDROOT
BRANCH   2   4
HETATM    4  C   UNL     1      -8.279   8.724  65.401  1.00  0.00    -0.136 C  
BRANCH   4   5
HETATM    5  C   UNL     1      -9.753   8.469  65.736  1.00  0.00     0.025 C  
BRANCH   5   6
HETATM    6  C   UNL     1      -9.919   7.964  67.149  1.00  0.00    -0.230 A  
HETATM    7  C   UNL     1     -10.690   6.837  67.416  1.00  0.00    -0.405 A  
HETATM    8  C   UNL     1     -10.831   6.415  68.736  1.00  0.00    -0.378 A  
HETATM    9  C   UNL     1     -10.206   7.129  69.751  1.00  0.00    -0.215 A  
HETATM   10  C   UNL     1      -9.462   8.241  69.401  1.00  0.00    -0.159 A  
HETATM   11  N   UNL     1      -9.307   8.671  68.130  1.00  0.00    -0.137 NA 
ENDBRANCH   5   6
ENDBRANCH   4   5
ENDBRANCH   2   4
TORSDOF 3
ENDMDL
MODEL      216
REMARK 921   NORMALIZED FREE ENERGY PREDICTED BY IDOCK:   -1.39 KCAL/MOL
REMARK 922        TOTAL FREE ENERGY PREDICTED BY IDOCK:   -1.97 KCAL/MOL
REMARK 923 INTER-LIGAND FREE ENERGY PREDICTED BY IDOCK:   -1.67 KCAL/MOL
REMARK 924 INTRA-LIGAND FREE ENERGY PREDICTED BY IDOCK:   -0.31 KCAL/MOL
REMARK 927      BINDING AFFINITY PREDICTED BY RF-SCORE:    0.00 PKD
ROOT
HETATM    1  C   UNL     1      -8.806   3.983  65.330  1.00  0.00    -0.127 C  
HETATM    2  N   UNL     1      -8.457   4.865  66.435  1.00  0.00    -0.111 NA 
HETATM    3  H   UNL     1      -8.393   4.358  67.318  1.00  0.00     0.000 HD 
ENDROOT
BRANCH   2   4
HETATM    4  C   UNL     1      -7.221   5.604  66.141  1.00  0.00    -0.077 C  
BRANCH   4   5
HETATM    5  C   UNL     1      -7.106   6.848  67.030  1.00  0.00    -0.076 C  
BRANCH   5   6
HETATM    6  C   UNL     1      -8.319   7.736  66.897  1.00  0.00    -0.124 A  
HETATM    7  C   UNL     1      -8.489   8.546  65.779  1.00  0.00    -0.167 A  
HETATM    8  C   UNL     1      -9.615   9.364  65.704  1.00  0.00    -0.345 A  
HETATM    9  C   UNL     1     -10.534   9.354  66.745  1.00  0.00    -0.265 A  
HETATM   10  C   UNL     1     -10.289   8.524  67.823  1.00  0.00    -0.237 A  
HETATM   11  N   UNL     1      -9.207   7.720  67.920  1.00  0.00    -0.137 NA 
ENDBRANCH   5   6
ENDBRANCH   4   5
ENDBRANCH   2   4
TORSDOF 3
ENDMDL
MODEL      217
REMARK 921   NORMALIZED FREE ENERGY PREDICTED BY IDOCK:   -1.39 KCAL/MOL
REMARK 922        TOTAL FREE ENERGY PREDICTED BY IDOCK:   -1.97 KCAL/MOL
REMARK 923 INTER-LIGAND FREE ENERGY PREDICTED BY IDOCK:   -1.58 KCAL/MOL
REMARK 924 INTRA-LIGAND FREE ENERGY PREDICTED BY IDOCK:   -0.39 KCAL/MOL
REMARK 927      BINDING AFFINITY PREDICTED BY RF-SCORE:    0.00 PKD
ROOT
HETATM    1  C   UNL     1      -8.287   8.592  71.680  1.00  0.00    -0.165 C  
HETATM    2  N   UNL     1      -8.535   9.516  70.581  1.00  0.00    -0.248 NA 
HETATM    3  H   UNL     1      -9.171  10.265  70.853  1.00  0.00     0.000 HD 
ENDROOT
BRANCH   2   4
HETATM    4  C   UNL     1      -7.269  10.043  70.050  1.00  0.00    -0.156 C  
BRANCH   4   5
HETATM    5  C   UNL     1      -7.390  10.341  68.552  1.00  0.00    -0.082 C  
BRANCH   5   6
HETATM    6  C   UNL     1      -8.005   9.182  67.806  1.00  0.00    -0.101 A  
HETATM    7  C   UNL     1      -9.020   9.392  66.877  1.00  0.00    -0.148 A  
HETATM    8  C   UNL     1      -9.573   8.293  66.224  1.00  0.00    -0.266 A  
HETATM    9  C   UNL     1      -9.103   7.019  66.516  1.00  0.00    -0.183 A  
HETATM   10  C   UNL     1      -8.095   6.896  67.455  1.00  0.00    -0.116 A  
HETATM   11  N   UNL     1      -7.541   7.944  68.102  1.00  0.00    -0.113 NA 
ENDBRANCH   5   6
ENDBRANCH   4   5
ENDBRANCH   2   4
TORSDOF 3
ENDMDL
MODEL      218
REMARK 921   NORMALIZED FREE ENERGY PREDICTED BY IDOCK:   -1.38 KCAL/MOL
REMARK 922        TOTAL FREE ENERGY PREDICTED BY IDOCK:   -1.96 KCAL/MOL
REMARK 923 INTER-LIGAND FREE ENERGY PREDICTED BY IDOCK:   -1.84 KCAL/MOL
REMARK 924 INTRA-LIGAND FREE ENERGY PREDICTED BY IDOCK:   -0.12 KCAL/MOL
REMARK 927      BINDING AFFINITY PREDICTED BY RF-SCORE:    0.00 PKD
ROOT
HETATM    1  C   UNL     1      -5.969   8.058  64.233  1.00  0.00    -0.057 C  
HETATM    2  N   UNL     1      -6.773   8.992  63.457  1.00  0.00    -0.089 NA 
HETATM    3  H   UNL     1      -6.671   8.837  62.454  1.00  0.00     0.000 HD 
ENDROOT
BRANCH   2   4
HETATM    4  C   UNL     1      -8.182   8.937  63.876  1.00  0.00    -0.171 C  
BRANCH   4   5
HETATM    5  C   UNL     1      -8.372   7.929  65.014  1.00  0.00    -0.111 C  
BRANCH   5   6
HETATM    6  C   UNL     1      -9.182   8.518  66.144  1.00  0.00    -0.211 A  
HETATM    7  C   UNL     1      -9.919   9.684  65.959  1.00  0.00    -0.344 A  
HETATM    8  C   UNL     1     -10.638  10.203  67.033  1.00  0.00    -0.290 A  
HETATM    9  C   UNL     1     -10.600   9.551  68.259  1.00  0.00    -0.260 A  
HETATM   10  C   UNL     1      -9.839   8.401  68.360  1.00  0.00    -0.176 A  
HETATM   11  N   UNL     1      -9.134   7.875  67.336  1.00  0.00    -0.132 NA 
ENDBRANCH   5   6
ENDBRANCH   4   5
ENDBRANCH   2   4
TORSDOF 3
ENDMDL
MODEL      219
REMARK 921   NORMALIZED FREE ENERGY PREDICTED BY IDOCK:   -1.36 KCAL/MOL
REMARK 922        TOTAL FREE ENERGY PREDICTED BY IDOCK:   -1.94 KCAL/MOL
REMARK 923 INTER-LIGAND FREE ENERGY PREDICTED BY IDOCK:   -1.88 KCAL/MOL
REMARK 924 INTRA-LIGAND FREE ENERGY PREDICTED BY IDOCK:   -0.07 KCAL/MOL
REMARK 927      BINDING AFFINITY PREDICTED BY RF-SCORE:    0.00 PKD
ROOT
HETATM    1  C   UNL     1      -9.177  10.912  62.874  1.00  0.00    -0.332 C  
HETATM    2  N   UNL     1      -8.595  10.783  64.203  1.00  0.00    -0.348 NA 
HETATM    3  H   UNL     1      -9.131  11.298  64.902  1.00  0.00     0.000 HD 
ENDROOT
BRANCH   2   4
HETATM    4  C   UNL     1      -8.442   9.367  64.569  1.00  0.00    -0.177 C  
BRANCH   4   5
HETATM    5  C   UNL     1      -9.180   9.060  65.876  1.00  0.00    -0.290 C  
BRANCH   5   6
HETATM    6  C   UNL     1      -8.779   7.717  66.435  1.00  0.00    -0.150 A  
HETATM    7  C   UNL     1      -8.603   6.621  65.596  1.00  0.00    -0.130 A  
HETATM    8  C   UNL     1      -8.249   5.395  66.155  1.00  0.00    -0.111 A  
HETATM    9  C   UNL     1      -8.087   5.294  67.531  1.00  0.00    -0.100 A  
HETATM   10  C   UNL     1      -8.287   6.430  68.295  1.00  0.00    -0.116 A  
HETATM   11  N   UNL     1      -8.628   7.631  67.779  1.00  0.00    -0.121 NA 
ENDBRANCH   5   6
ENDBRANCH   4   5
ENDBRANCH   2   4
TORSDOF 3
ENDMDL
MODEL      220
REMARK 921   NORMALIZED FREE ENERGY PREDICTED BY IDOCK:   -1.32 KCAL/MOL
REMARK 922        TOTAL FREE ENERGY PREDICTED BY IDOCK:   -1.90 KCAL/MOL
REMARK 923 INTER-LIGAND FREE ENERGY PREDICTED BY IDOCK:   -1.55 KCAL/MOL
REMARK 924 INTRA-LIGAND FREE ENERGY PREDICTED BY IDOCK:   -0.35 KCAL/MOL
REMARK 927      BINDING AFFINITY PREDICTED BY RF-SCORE:    0.00 PKD
ROOT
HETATM    1  C   UNL     1      -9.548   3.807  70.132  1.00  0.00    -0.188 C  
HETATM    2  N   UNL     1      -8.411   4.707  69.996  1.00  0.00    -0.067 NA 
HETATM    3  H   UNL     1      -7.897   4.803  70.872  1.00  0.00     0.000 HD 
ENDROOT
BRANCH   2   4
HETATM    4  C   UNL     1      -7.535   4.275  68.897  1.00  0.00    -0.055 C  
BRANCH   4   5
HETATM    5  C   UNL     1      -7.221   5.446  67.959  1.00  0.00    -0.072 C  
BRANCH   5   6
HETATM    6  C   UNL     1      -8.407   6.369  67.812  1.00  0.00    -0.118 A  
HETATM    7  C   UNL     1      -9.414   6.093  66.892  1.00  0.00    -0.151 A  
HETATM    8  C   UNL     1     -10.482   6.980  66.776  1.00  0.00    -0.297 A  
HETATM    9  C   UNL     1     -10.514   8.116  67.573  1.00  0.00    -0.326 A  
HETATM   10  C   UNL     1      -9.471   8.320  68.459  1.00  0.00    -0.146 A  
HETATM   11  N   UNL     1      -8.425   7.476  68.593  1.00  0.00    -0.129 NA 
ENDBRANCH   5   6
ENDBRANCH   4   5
ENDBRANCH   2   4
TORSDOF 3
ENDMDL
MODEL      221
REMARK 921   NORMALIZED FREE ENERGY PREDICTED BY IDOCK:   -1.28 KCAL/MOL
REMARK 922        TOTAL FREE ENERGY PREDICTED BY IDOCK:   -1.85 KCAL/MOL
REMARK 923 INTER-LIGAND FREE ENERGY PREDICTED BY IDOCK:   -1.77 KCAL/MOL
REMARK 924 INTRA-LIGAND FREE ENERGY PREDICTED BY IDOCK:   -0.08 KCAL/MOL
REMARK 927      BINDING AFFINITY PREDICTED BY RF-SCORE:    0.00 PKD
ROOT
HETATM    1  C   UNL     1      -7.953   8.213  74.323  1.00  0.00    -0.254 C  
HETATM    2  N   UNL     1      -8.427   7.688  73.050  1.00  0.00    -0.131 NA 
HETATM    3  H   UNL     1      -7.864   8.023  72.268  1.00  0.00     0.000 HD 
ENDROOT
BRANCH   2   4
HETATM    4  C   UNL     1      -8.490   6.219  73.084  1.00  0.00    -0.116 C  
BRANCH   4   5
HETATM    5  C   UNL     1      -9.945   5.738  73.127  1.00  0.00    -0.189 C  
BRANCH   5   6
HETATM    6  C   UNL     1     -10.046   4.258  72.846  1.00  0.00    -0.157 A  
HETATM    7  C   UNL     1     -11.097   3.506  73.362  1.00  0.00    -0.291 A  
HETATM    8  C   UNL     1     -11.142   2.139  73.093  1.00  0.00    -0.229 A  
HETATM    9  C   UNL     1     -10.141   1.562  72.323  1.00  0.00    -0.211 A  
HETATM   10  C   UNL     1      -9.129   2.379  71.852  1.00  0.00    -0.085 A  
HETATM   11  N   UNL     1      -9.061   3.706  72.097  1.00  0.00    -0.104 NA 
ENDBRANCH   5   6
ENDBRANCH   4   5
ENDBRANCH   2   4
TORSDOF 3
ENDMDL
MODEL      222
REMARK 921   NORMALIZED FREE ENERGY PREDICTED BY IDOCK:   -1.27 KCAL/MOL
REMARK 922        TOTAL FREE ENERGY PREDICTED BY IDOCK:   -1.84 KCAL/MOL
REMARK 923 INTER-LIGAND FREE ENERGY PREDICTED BY IDOCK:   -1.73 KCAL/MOL
REMARK 924 INTRA-LIGAND FREE ENERGY PREDICTED BY IDOCK:   -0.11 KCAL/MOL
REMARK 927      BINDING AFFINITY PREDICTED BY RF-SCORE:    0.00 PKD
ROOT
HETATM    1  C   UNL     1      -6.063   3.031  71.923  1.00  0.00    -0.014 C  
HETATM    2  N   UNL     1      -5.868   4.310  72.592  1.00  0.00    -0.014 NA 
HETATM    3  H   UNL     1      -4.969   4.729  72.353  1.00  0.00     0.000 HD 
ENDROOT
BRANCH   2   4
HETATM    4  C   UNL     1      -6.986   5.222  72.306  1.00  0.00    -0.080 C  
BRANCH   4   5
HETATM    5  C   UNL     1      -7.990   4.569  71.350  1.00  0.00    -0.087 C  
BRANCH   5   6
HETATM    6  C   UNL     1      -9.070   5.539  70.937  1.00  0.00    -0.143 A  
HETATM    7  C   UNL     1     -10.196   5.098  70.247  1.00  0.00    -0.342 A  
HETATM    8  C   UNL     1     -11.161   6.029  69.869  1.00  0.00    -0.469 A  
HETATM    9  C   UNL     1     -10.976   7.369  70.183  1.00  0.00    -0.272 A  
HETATM   10  C   UNL     1      -9.827   7.725  70.865  1.00  0.00    -0.175 A  
HETATM   11  N   UNL     1      -8.876   6.844  71.246  1.00  0.00    -0.135 NA 
ENDBRANCH   5   6
ENDBRANCH   4   5
ENDBRANCH   2   4
TORSDOF 3
ENDMDL
MODEL      223
REMARK 921   NORMALIZED FREE ENERGY PREDICTED BY IDOCK:   -1.27 KCAL/MOL
REMARK 922        TOTAL FREE ENERGY PREDICTED BY IDOCK:   -1.83 KCAL/MOL
REMARK 923 INTER-LIGAND FREE ENERGY PREDICTED BY IDOCK:   -1.49 KCAL/MOL
REMARK 924 INTRA-LIGAND FREE ENERGY PREDICTED BY IDOCK:   -0.34 KCAL/MOL
REMARK 927      BINDING AFFINITY PREDICTED BY RF-SCORE:    0.00 PKD
ROOT
HETATM    1  C   UNL     1     -10.053   8.492  67.848  1.00  0.00    -0.207 C  
HETATM    2  N   UNL     1      -8.861   8.315  68.666  1.00  0.00    -0.134 NA 
HETATM    3  H   UNL     1      -9.096   8.133  69.643  1.00  0.00     0.000 HD 
ENDROOT
BRANCH   2   4
HETATM    4  C   UNL     1      -8.000   7.261  68.109  1.00  0.00    -0.123 C  
BRANCH   4   5
HETATM    5  C   UNL     1      -8.754   5.929  68.028  1.00  0.00    -0.111 C  
BRANCH   5   6
HETATM    6  C   UNL     1      -8.855   5.267  69.380  1.00  0.00    -0.100 A  
HETATM    7  C   UNL     1      -9.748   4.222  69.597  1.00  0.00    -0.284 A  
HETATM    8  C   UNL     1      -9.821   3.651  70.865  1.00  0.00    -0.159 A  
HETATM    9  C   UNL     1      -9.009   4.139  71.881  1.00  0.00    -0.154 A  
HETATM   10  C   UNL     1      -8.154   5.184  71.585  1.00  0.00    -0.115 A  
HETATM   11  N   UNL     1      -8.061   5.755  70.364  1.00  0.00    -0.104 NA 
ENDBRANCH   5   6
ENDBRANCH   4   5
ENDBRANCH   2   4
TORSDOF 3
ENDMDL
MODEL      224
REMARK 921   NORMALIZED FREE ENERGY PREDICTED BY IDOCK:   -1.24 KCAL/MOL
REMARK 922        TOTAL FREE ENERGY PREDICTED BY IDOCK:   -1.81 KCAL/MOL
REMARK 923 INTER-LIGAND FREE ENERGY PREDICTED BY IDOCK:   -1.68 KCAL/MOL
REMARK 924 INTRA-LIGAND FREE ENERGY PREDICTED BY IDOCK:   -0.13 KCAL/MOL
REMARK 927      BINDING AFFINITY PREDICTED BY RF-SCORE:    0.00 PKD
ROOT
HETATM    1  C   UNL     1      -5.587   9.314  68.026  1.00  0.00    -0.038 C  
HETATM    2  N   UNL     1      -6.464   8.261  68.521  1.00  0.00    -0.053 NA 
HETATM    3  H   UNL     1      -6.489   8.238  69.541  1.00  0.00     0.000 HD 
ENDROOT
BRANCH   2   4
HETATM    4  C   UNL     1      -7.811   8.392  67.946  1.00  0.00    -0.107 C  
BRANCH   4   5
HETATM    5  C   UNL     1      -7.893   7.689  66.587  1.00  0.00    -0.106 C  
BRANCH   5   6
HETATM    6  C   UNL     1      -8.364   8.630  65.505  1.00  0.00    -0.150 A  
HETATM    7  C   UNL     1      -9.128   9.750  65.819  1.00  0.00    -0.221 A  
HETATM    8  C   UNL     1      -9.557  10.583  64.788  1.00  0.00    -0.342 A  
HETATM    9  C   UNL     1      -9.218  10.276  63.477  1.00  0.00    -0.321 A  
HETATM   10  C   UNL     1      -8.460   9.142  63.250  1.00  0.00    -0.195 A  
HETATM   11  N   UNL     1      -8.029   8.318  64.230  1.00  0.00    -0.144 NA 
ENDBRANCH   5   6
ENDBRANCH   4   5
ENDBRANCH   2   4
TORSDOF 3
ENDMDL
MODEL      225
REMARK 921   NORMALIZED FREE ENERGY PREDICTED BY IDOCK:   -1.23 KCAL/MOL
REMARK 922        TOTAL FREE ENERGY PREDICTED BY IDOCK:   -1.79 KCAL/MOL
REMARK 923 INTER-LIGAND FREE ENERGY PREDICTED BY IDOCK:   -1.69 KCAL/MOL
REMARK 924 INTRA-LIGAND FREE ENERGY PREDICTED BY IDOCK:   -0.10 KCAL/MOL
REMARK 927      BINDING AFFINITY PREDICTED BY RF-SCORE:    0.00 PKD
ROOT
HETATM    1  C   UNL     1     -11.510   2.132  73.068  1.00  0.00     0.090 C  
HETATM    2  N   UNL     1     -10.174   2.291  72.510  1.00  0.00    -0.154 NA 
HETATM    3  H   UNL     1     -10.191   2.320  71.490  1.00  0.00     0.000 HD 
ENDROOT
BRANCH   2   4
HETATM    4  C   UNL     1      -9.511   3.474  73.077  1.00  0.00    -0.107 C  
BRANCH   4   5
HETATM    5  C   UNL     1     -10.535   4.567  73.405  1.00  0.00    -0.264 C  
BRANCH   5   6
HETATM    6  C   UNL     1     -10.100   5.910  72.871  1.00  0.00    -0.181 A  
HETATM    7  C   UNL     1     -11.018   6.771  72.277  1.00  0.00    -0.276 A  
HETATM    8  C   UNL     1     -10.571   7.993  71.781  1.00  0.00    -0.296 A  
HETATM    9  C   UNL     1      -9.226   8.321  71.886  1.00  0.00    -0.272 A  
HETATM   10  C   UNL     1      -8.378   7.408  72.485  1.00  0.00    -0.109 A  
HETATM   11  N   UNL     1      -8.784   6.217  72.976  1.00  0.00    -0.122 NA 
ENDBRANCH   5   6
ENDBRANCH   4   5
ENDBRANCH   2   4
TORSDOF 3
ENDMDL
MODEL      226
REMARK 921   NORMALIZED FREE ENERGY PREDICTED BY IDOCK:   -1.20 KCAL/MOL
REMARK 922        TOTAL FREE ENERGY PREDICTED BY IDOCK:   -1.76 KCAL/MOL
REMARK 923 INTER-LIGAND FREE ENERGY PREDICTED BY IDOCK:   -1.40 KCAL/MOL
REMARK 924 INTRA-LIGAND FREE ENERGY PREDICTED BY IDOCK:   -0.35 KCAL/MOL
REMARK 927      BINDING AFFINITY PREDICTED BY RF-SCORE:    0.00 PKD
ROOT
HETATM    1  C   UNL     1      -9.476   4.477  71.573  1.00  0.00    -0.153 C  
HETATM    2  N   UNL     1      -8.517   5.557  71.381  1.00  0.00    -0.126 NA 
HETATM    3  H   UNL     1      -8.057   5.815  72.254  1.00  0.00     0.000 HD 
ENDROOT
BRANCH   2   4
HETATM    4  C   UNL     1      -7.544   5.209  70.335  1.00  0.00    -0.070 C  
BRANCH   4   5
HETATM    5  C   UNL     1      -7.109   6.457  69.559  1.00  0.00    -0.073 C  
BRANCH   5   6
HETATM    6  C   UNL     1      -8.284   7.354  69.251  1.00  0.00    -0.131 A  
HETATM    7  C   UNL     1      -8.321   8.664  69.720  1.00  0.00    -0.123 A  
HETATM    8  C   UNL     1      -9.432   9.452  69.428  1.00  0.00    -0.177 A  
HETATM    9  C   UNL     1     -10.473   8.914  68.684  1.00  0.00    -0.223 A  
HETATM   10  C   UNL     1     -10.361   7.602  68.261  1.00  0.00    -0.198 A  
HETATM   11  N   UNL     1      -9.295   6.816  68.528  1.00  0.00    -0.127 NA 
ENDBRANCH   5   6
ENDBRANCH   4   5
ENDBRANCH   2   4
TORSDOF 3
ENDMDL
MODEL      227
REMARK 921   NORMALIZED FREE ENERGY PREDICTED BY IDOCK:   -1.13 KCAL/MOL
REMARK 922        TOTAL FREE ENERGY PREDICTED BY IDOCK:   -1.67 KCAL/MOL
REMARK 923 INTER-LIGAND FREE ENERGY PREDICTED BY IDOCK:   -1.58 KCAL/MOL
REMARK 924 INTRA-LIGAND FREE ENERGY PREDICTED BY IDOCK:   -0.09 KCAL/MOL
REMARK 927      BINDING AFFINITY PREDICTED BY RF-SCORE:    0.00 PKD
ROOT
HETATM    1  C   UNL     1      -9.177  10.912  62.874  1.00  0.00    -0.332 C  
HETATM    2  N   UNL     1      -8.595  10.783  64.203  1.00  0.00    -0.348 NA 
HETATM    3  H   UNL     1      -9.131  11.298  64.902  1.00  0.00     0.000 HD 
ENDROOT
BRANCH   2   4
HETATM    4  C   UNL     1      -8.442   9.367  64.569  1.00  0.00    -0.177 C  
BRANCH   4   5
HETATM    5  C   UNL     1      -7.674   8.605  63.483  1.00  0.00    -0.136 C  
BRANCH   5   6
HETATM    6  C   UNL     1      -7.782   7.112  63.675  1.00  0.00    -0.119 A  
HETATM    7  C   UNL     1      -7.704   6.550  64.946  1.00  0.00    -0.105 A  
HETATM    8  C   UNL     1      -7.790   5.166  65.077  1.00  0.00    -0.092 A  
HETATM    9  C   UNL     1      -7.948   4.382  63.941  1.00  0.00    -0.091 A  
HETATM   10  C   UNL     1      -8.012   5.018  62.715  1.00  0.00    -0.083 A  
HETATM   11  N   UNL     1      -7.932   6.358  62.559  1.00  0.00    -0.102 NA 
ENDBRANCH   5   6
ENDBRANCH   4   5
ENDBRANCH   2   4
TORSDOF 3
ENDMDL
MODEL      228
REMARK 921   NORMALIZED FREE ENERGY PREDICTED BY IDOCK:   -1.08 KCAL/MOL
REMARK 922        TOTAL FREE ENERGY PREDICTED BY IDOCK:   -1.61 KCAL/MOL
REMARK 923 INTER-LIGAND FREE ENERGY PREDICTED BY IDOCK:   -1.51 KCAL/MOL
REMARK 924 INTRA-LIGAND FREE ENERGY PREDICTED BY IDOCK:   -0.11 KCAL/MOL
REMARK 927      BINDING AFFINITY PREDICTED BY RF-SCORE:    0.00 PKD
ROOT
HETATM    1  C   UNL     1      -8.746  10.930  62.370  1.00  0.00    -0.309 C  
HETATM    2  N   UNL     1      -9.203  10.872  63.752  1.00  0.00    -0.254 NA 
HETATM    3  H   UNL     1     -10.215  10.761  63.811  1.00  0.00     0.000 HD 
ENDROOT
BRANCH   2   4
HETATM    4  C   UNL     1      -8.495   9.816  64.490  1.00  0.00    -0.176 C  
BRANCH   4   5
HETATM    5  C   UNL     1      -9.037   9.694  65.919  1.00  0.00    -0.221 C  
BRANCH   5   6
HETATM    6  C   UNL     1      -8.047  10.214  66.932  1.00  0.00    -0.121 A  
HETATM    7  C   UNL     1      -8.450  10.521  68.228  1.00  0.00    -0.123 A  
HETATM    8  C   UNL     1      -7.507  11.015  69.128  1.00  0.00    -0.121 A  
HETATM    9  C   UNL     1      -6.195  11.193  68.710  1.00  0.00    -0.045 A  
HETATM   10  C   UNL     1      -5.877  10.868  67.404  1.00  0.00    -0.046 A  
HETATM   11  N   UNL     1      -6.770  10.386  66.512  1.00  0.00    -0.092 NA 
ENDBRANCH   5   6
ENDBRANCH   4   5
ENDBRANCH   2   4
TORSDOF 3
ENDMDL
MODEL      229
REMARK 921   NORMALIZED FREE ENERGY PREDICTED BY IDOCK:   -1.05 KCAL/MOL
REMARK 922        TOTAL FREE ENERGY PREDICTED BY IDOCK:   -1.58 KCAL/MOL
REMARK 923 INTER-LIGAND FREE ENERGY PREDICTED BY IDOCK:   -1.27 KCAL/MOL
REMARK 924 INTRA-LIGAND FREE ENERGY PREDICTED BY IDOCK:   -0.31 KCAL/MOL
REMARK 927      BINDING AFFINITY PREDICTED BY RF-SCORE:    0.00 PKD
ROOT
HETATM    1  C   UNL     1      -8.810   5.006  70.153  1.00  0.00    -0.110 C  
HETATM    2  N   UNL     1      -9.380   6.085  69.357  1.00  0.00    -0.131 NA 
HETATM    3  H   UNL     1      -9.144   7.002  69.738  1.00  0.00     0.000 HD 
ENDROOT
BRANCH   2   4
HETATM    4  C   UNL     1      -8.975   5.961  67.949  1.00  0.00    -0.111 C  
BRANCH   4   5
HETATM    5  C   UNL     1      -7.879   6.975  67.606  1.00  0.00    -0.113 C  
BRANCH   5   6
HETATM    6  C   UNL     1      -8.261   8.370  68.039  1.00  0.00    -0.127 A  
HETATM    7  C   UNL     1      -7.464   9.081  68.931  1.00  0.00    -0.075 A  
HETATM    8  C   UNL     1      -7.863  10.358  69.319  1.00  0.00    -0.147 A  
HETATM    9  C   UNL     1      -9.042  10.888  68.813  1.00  0.00    -0.174 A  
HETATM   10  C   UNL     1      -9.780  10.113  67.935  1.00  0.00    -0.146 A  
HETATM   11  N   UNL     1      -9.416   8.874  67.541  1.00  0.00    -0.139 NA 
ENDBRANCH   5   6
ENDBRANCH   4   5
ENDBRANCH   2   4
TORSDOF 3
ENDMDL
MODEL      230
REMARK 921   NORMALIZED FREE ENERGY PREDICTED BY IDOCK:   -0.92 KCAL/MOL
REMARK 922        TOTAL FREE ENERGY PREDICTED BY IDOCK:   -1.43 KCAL/MOL
REMARK 923 INTER-LIGAND FREE ENERGY PREDICTED BY IDOCK:   -1.28 KCAL/MOL
REMARK 924 INTRA-LIGAND FREE ENERGY PREDICTED BY IDOCK:   -0.15 KCAL/MOL
REMARK 927      BINDING AFFINITY PREDICTED BY RF-SCORE:    0.00 PKD
ROOT
HETATM    1  C   UNL     1     -10.240   6.892  71.055  1.00  0.00    -0.197 C  
HETATM    2  N   UNL     1      -8.894   7.162  71.541  1.00  0.00    -0.127 NA 
HETATM    3  H   UNL     1      -8.709   6.691  72.427  1.00  0.00     0.000 HD 
ENDROOT
BRANCH   2   4
HETATM    4  C   UNL     1      -7.894   6.814  70.521  1.00  0.00    -0.105 C  
BRANCH   4   5
HETATM    5  C   UNL     1      -7.210   8.073  69.976  1.00  0.00    -0.061 C  
BRANCH   5   6
HETATM    6  C   UNL     1      -7.852   8.538  68.692  1.00  0.00    -0.108 A  
HETATM    7  C   UNL     1      -8.628   9.693  68.661  1.00  0.00    -0.120 A  
HETATM    8  C   UNL     1      -9.217  10.078  67.459  1.00  0.00    -0.151 A  
HETATM    9  C   UNL     1      -9.021   9.300  66.325  1.00  0.00    -0.193 A  
HETATM   10  C   UNL     1      -8.241   8.164  66.441  1.00  0.00    -0.108 A  
HETATM   11  N   UNL     1      -7.657   7.769  67.593  1.00  0.00    -0.110 NA 
ENDBRANCH   5   6
ENDBRANCH   4   5
ENDBRANCH   2   4
TORSDOF 3
ENDMDL
MODEL      231
REMARK 921   NORMALIZED FREE ENERGY PREDICTED BY IDOCK:   -0.89 KCAL/MOL
REMARK 922        TOTAL FREE ENERGY PREDICTED BY IDOCK:   -1.39 KCAL/MOL
REMARK 923 INTER-LIGAND FREE ENERGY PREDICTED BY IDOCK:   -1.17 KCAL/MOL
REMARK 924 INTRA-LIGAND FREE ENERGY PREDICTED BY IDOCK:   -0.22 KCAL/MOL
REMARK 927      BINDING AFFINITY PREDICTED BY RF-SCORE:    0.00 PKD
ROOT
HETATM    1  C   UNL     1      -5.655   8.032  64.343  1.00  0.00    -0.041 C  
HETATM    2  N   UNL     1      -6.606   8.198  63.252  1.00  0.00    -0.080 NA 
HETATM    3  H   UNL     1      -6.374   7.606  62.454  1.00  0.00     0.000 HD 
ENDROOT
BRANCH   2   4
HETATM    4  C   UNL     1      -7.980   7.966  63.720  1.00  0.00    -0.119 C  
BRANCH   4   5
HETATM    5  C   UNL     1      -7.979   7.283  65.092  1.00  0.00    -0.128 C  
BRANCH   5   6
HETATM    6  C   UNL     1      -8.405   5.839  64.991  1.00  0.00    -0.138 A  
HETATM    7  C   UNL     1      -8.813   5.136  66.121  1.00  0.00    -0.132 A  
HETATM    8  C   UNL     1      -9.181   3.799  65.986  1.00  0.00    -0.161 A  
HETATM    9  C   UNL     1      -9.128   3.201  64.734  1.00  0.00    -0.140 A  
HETATM   10  C   UNL     1      -8.706   3.967  63.663  1.00  0.00    -0.102 A  
HETATM   11  N   UNL     1      -8.346   5.265  63.765  1.00  0.00    -0.133 NA 
ENDBRANCH   5   6
ENDBRANCH   4   5
ENDBRANCH   2   4
TORSDOF 3
ENDMDL
MODEL      232
REMARK 921   NORMALIZED FREE ENERGY PREDICTED BY IDOCK:   -0.85 KCAL/MOL
REMARK 922        TOTAL FREE ENERGY PREDICTED BY IDOCK:   -1.34 KCAL/MOL
REMARK 923 INTER-LIGAND FREE ENERGY PREDICTED BY IDOCK:   -1.23 KCAL/MOL
REMARK 924 INTRA-LIGAND FREE ENERGY PREDICTED BY IDOCK:   -0.12 KCAL/MOL
REMARK 927      BINDING AFFINITY PREDICTED BY RF-SCORE:    0.00 PKD
ROOT
HETATM    1  C   UNL     1      -9.542   3.731  70.084  1.00  0.00    -0.188 C  
HETATM    2  N   UNL     1      -8.389   4.615  69.970  1.00  0.00    -0.067 NA 
HETATM    3  H   UNL     1      -7.839   4.632  70.829  1.00  0.00     0.000 HD 
ENDROOT
BRANCH   2   4
HETATM    4  C   UNL     1      -7.568   4.250  68.806  1.00  0.00    -0.059 C  
BRANCH   4   5
HETATM    5  C   UNL     1      -7.819   5.213  67.640  1.00  0.00    -0.095 C  
BRANCH   5   6
HETATM    6  C   UNL     1      -8.520   4.523  66.495  1.00  0.00    -0.109 A  
HETATM    7  C   UNL     1      -7.909   3.473  65.816  1.00  0.00    -0.089 A  
HETATM    8  C   UNL     1      -8.584   2.876  64.753  1.00  0.00    -0.102 A  
HETATM    9  C   UNL     1      -9.842   3.344  64.395  1.00  0.00    -0.174 A  
HETATM   10  C   UNL     1     -10.375   4.395  65.117  1.00  0.00    -0.173 A  
HETATM   11  N   UNL     1      -9.744   4.991  66.152  1.00  0.00    -0.169 NA 
ENDBRANCH   5   6
ENDBRANCH   4   5
ENDBRANCH   2   4
TORSDOF 3
ENDMDL
MODEL      233
REMARK 921   NORMALIZED FREE ENERGY PREDICTED BY IDOCK:   -0.84 KCAL/MOL
REMARK 922        TOTAL FREE ENERGY PREDICTED BY IDOCK:   -1.34 KCAL/MOL
REMARK 923 INTER-LIGAND FREE ENERGY PREDICTED BY IDOCK:   -2.14 KCAL/MOL
REMARK 924 INTRA-LIGAND FREE ENERGY PREDICTED BY IDOCK:    0.80 KCAL/MOL
REMARK 927      BINDING AFFINITY PREDICTED BY RF-SCORE:    0.00 PKD
ROOT
HETATM    1  C   UNL     1     -11.184  13.616  66.924  1.00  0.00    -0.312 C  
HETATM    2  N   UNL     1     -10.335  14.119  65.852  1.00  0.00    -0.304 NA 
HETATM    3  H   UNL     1     -10.708  13.884  64.932  1.00  0.00     0.000 HD 
ENDROOT
BRANCH   2   4
HETATM    4  C   UNL     1     -10.117  15.566  65.998  1.00  0.00    -0.332 C  
BRANCH   4   5
HETATM    5  C   UNL     1      -9.799  15.925  67.454  1.00  0.00    -0.234 C  
BRANCH   5   6
HETATM    6  C   UNL     1      -8.561  15.213  67.940  1.00  0.00    -0.153 A  
HETATM    7  C   UNL     1      -7.825  15.715  69.010  1.00  0.00    -0.204 A  
HETATM    8  C   UNL     1      -6.678  15.036  69.416  1.00  0.00    -0.158 A  
HETATM    9  C   UNL     1      -6.295  13.883  68.744  1.00  0.00    -0.091 A  
HETATM   10  C   UNL     1      -7.077  13.453  67.688  1.00  0.00    -0.162 A  
HETATM   11  N   UNL     1      -8.195  14.091  67.275  1.00  0.00    -0.186 NA 
ENDBRANCH   5   6
ENDBRANCH   4   5
ENDBRANCH   2   4
TORSDOF 3
ENDMDL
MODEL      234
REMARK 921   NORMALIZED FREE ENERGY PREDICTED BY IDOCK:   -0.78 KCAL/MOL
REMARK 922        TOTAL FREE ENERGY PREDICTED BY IDOCK:   -1.27 KCAL/MOL
REMARK 923 INTER-LIGAND FREE ENERGY PREDICTED BY IDOCK:   -1.14 KCAL/MOL
REMARK 924 INTRA-LIGAND FREE ENERGY PREDICTED BY IDOCK:   -0.12 KCAL/MOL
REMARK 927      BINDING AFFINITY PREDICTED BY RF-SCORE:    0.00 PKD
ROOT
HETATM    1  C   UNL     1      -7.518   7.489  64.245  1.00  0.00    -0.098 C  
HETATM    2  N   UNL     1      -7.815   7.363  62.825  1.00  0.00    -0.128 NA 
HETATM    3  H   UNL     1      -7.149   7.881  62.251  1.00  0.00     0.000 HD 
ENDROOT
BRANCH   2   4
HETATM    4  C   UNL     1      -7.887   5.948  62.432  1.00  0.00    -0.083 C  
BRANCH   4   5
HETATM    5  C   UNL     1      -7.791   5.037  63.661  1.00  0.00    -0.088 C  
BRANCH   5   6
HETATM    6  C   UNL     1      -8.730   3.860  63.552  1.00  0.00    -0.102 A  
HETATM    7  C   UNL     1      -8.258   2.558  63.681  1.00  0.00    -0.082 A  
HETATM    8  C   UNL     1      -9.156   1.500  63.556  1.00  0.00    -0.089 A  
HETATM    9  C   UNL     1     -10.494   1.769  63.301  1.00  0.00    -0.143 A  
HETATM   10  C   UNL     1     -10.882   3.091  63.180  1.00  0.00    -0.205 A  
HETATM   11  N   UNL     1     -10.033   4.135  63.299  1.00  0.00    -0.124 NA 
ENDBRANCH   5   6
ENDBRANCH   4   5
ENDBRANCH   2   4
TORSDOF 3
ENDMDL
MODEL      235
REMARK 921   NORMALIZED FREE ENERGY PREDICTED BY IDOCK:   -0.71 KCAL/MOL
REMARK 922        TOTAL FREE ENERGY PREDICTED BY IDOCK:   -1.17 KCAL/MOL
REMARK 923 INTER-LIGAND FREE ENERGY PREDICTED BY IDOCK:   -1.80 KCAL/MOL
REMARK 924 INTRA-LIGAND FREE ENERGY PREDICTED BY IDOCK:    0.63 KCAL/MOL
REMARK 927      BINDING AFFINITY PREDICTED BY RF-SCORE:    0.00 PKD
ROOT
HETATM    1  C   UNL     1      -9.420   8.166  73.237  1.00  0.00    -0.220 C  
HETATM    2  N   UNL     1     -10.181   8.327  72.005  1.00  0.00    -0.242 NA 
HETATM    3  H   UNL     1      -9.634   8.064  71.185  1.00  0.00     0.000 HD 
ENDROOT
BRANCH   2   4
HETATM    4  C   UNL     1     -11.448   7.584  72.076  1.00  0.00    -0.279 C  
BRANCH   4   5
HETATM    5  C   UNL     1     -11.301   6.197  71.440  1.00  0.00    -0.336 C  
BRANCH   5   6
HETATM    6  C   UNL     1      -9.850   5.825  71.254  1.00  0.00    -0.179 A  
HETATM    7  C   UNL     1      -9.159   6.204  70.107  1.00  0.00    -0.156 A  
HETATM    8  C   UNL     1      -7.826   5.824  69.967  1.00  0.00    -0.091 A  
HETATM    9  C   UNL     1      -7.222   5.076  70.969  1.00  0.00    -0.060 A  
HETATM   10  C   UNL     1      -7.980   4.736  72.075  1.00  0.00    -0.105 A  
HETATM   11  N   UNL     1      -9.273   5.092  72.236  1.00  0.00    -0.134 NA 
ENDBRANCH   5   6
ENDBRANCH   4   5
ENDBRANCH   2   4
TORSDOF 3
ENDMDL
MODEL      236
REMARK 921   NORMALIZED FREE ENERGY PREDICTED BY IDOCK:    0.67 KCAL/MOL
REMARK 922        TOTAL FREE ENERGY PREDICTED BY IDOCK:    0.44 KCAL/MOL
REMARK 923 INTER-LIGAND FREE ENERGY PREDICTED BY IDOCK:    0.64 KCAL/MOL
REMARK 924 INTRA-LIGAND FREE ENERGY PREDICTED BY IDOCK:   -0.20 KCAL/MOL
REMARK 927      BINDING AFFINITY PREDICTED BY RF-SCORE:    0.00 PKD
ROOT
HETATM    1  C   UNL     1      -7.656   9.321  73.587  1.00  0.00     1.280 C  
HETATM    2  N   UNL     1      -7.445   7.987  73.041  1.00  0.00    -0.120 NA 
HETATM    3  H   UNL     1      -6.500   7.873  72.674  1.00  0.00     0.000 HD 
ENDROOT
BRANCH   2   4
HETATM    4  C   UNL     1      -7.769   6.958  74.040  1.00  0.00    -0.105 C  
BRANCH   4   5
HETATM    5  C   UNL     1      -8.646   5.861  73.427  1.00  0.00    -0.120 C  
BRANCH   5   6
HETATM    6  C   UNL     1      -7.830   4.647  73.053  1.00  0.00    -0.096 A  
HETATM    7  C   UNL     1      -8.421   3.563  72.409  1.00  0.00    -0.089 A  
HETATM    8  C   UNL     1      -7.636   2.456  72.098  1.00  0.00    -0.044 A  
HETATM    9  C   UNL     1      -6.289   2.456  72.439  1.00  0.00    -0.014 A  
HETATM   10  C   UNL     1      -5.781   3.570  73.082  1.00  0.00     0.000 A  
HETATM   11  N   UNL     1      -6.519   4.658  73.395  1.00  0.00    -0.049 NA 
ENDBRANCH   5   6
ENDBRANCH   4   5
ENDBRANCH   2   4
TORSDOF 3
ENDMDL
MODEL      237
REMARK 921   NORMALIZED FREE ENERGY PREDICTED BY IDOCK:    6.68 KCAL/MOL
REMARK 922        TOTAL FREE ENERGY PREDICTED BY IDOCK:    7.51 KCAL/MOL
REMARK 923 INTER-LIGAND FREE ENERGY PREDICTED BY IDOCK:    7.67 KCAL/MOL
REMARK 924 INTRA-LIGAND FREE ENERGY PREDICTED BY IDOCK:   -0.16 KCAL/MOL
REMARK 927      BINDING AFFINITY PREDICTED BY RF-SCORE:    0.00 PKD
ROOT
HETATM    1  C   UNL     1      -8.105  10.681  74.411  1.00  0.00     8.440 C  
HETATM    2  N   UNL     1      -7.757   9.463  73.690  1.00  0.00     0.856 NA 
HETATM    3  H   UNL     1      -6.807   9.500  73.321  1.00  0.00     0.000 HD 
ENDROOT
BRANCH   2   4
HETATM    4  C   UNL     1      -7.966   8.280  74.538  1.00  0.00    -0.218 C  
BRANCH   4   5
HETATM    5  C   UNL     1      -8.693   7.176  73.762  1.00  0.00    -0.199 C  
BRANCH   5   6
HETATM    6  C   UNL     1      -9.235   7.688  72.450  1.00  0.00    -0.151 A  
HETATM    7  C   UNL     1     -10.602   7.870  72.266  1.00  0.00    -0.331 A  
HETATM    8  C   UNL     1     -11.061   8.328  71.033  1.00  0.00    -0.284 A  
HETATM    9  C   UNL     1     -10.148   8.586  70.019  1.00  0.00    -0.195 A  
HETATM   10  C   UNL     1      -8.806   8.373  70.280  1.00  0.00    -0.142 A  
HETATM   11  N   UNL     1      -8.334   7.932  71.467  1.00  0.00    -0.108 NA 
ENDBRANCH   5   6
ENDBRANCH   4   5
ENDBRANCH   2   4
TORSDOF 3
ENDMDL
