MODEL        1
REMARK 921   NORMALIZED FREE ENERGY PREDICTED BY IDOCK:   -4.50 KCAL/MOL
REMARK 922        TOTAL FREE ENERGY PREDICTED BY IDOCK:   -5.30 KCAL/MOL
REMARK 923 INTER-LIGAND FREE ENERGY PREDICTED BY IDOCK:   -5.02 KCAL/MOL
REMARK 924 INTRA-LIGAND FREE ENERGY PREDICTED BY IDOCK:   -0.28 KCAL/MOL
REMARK 927      BINDING AFFINITY PREDICTED BY RF-SCORE:    0.00 PKD
ROOT
HETATM    1  N   UNL     1     -11.570  16.430  63.938  1.00  0.00    -1.602 NA 
HETATM    2  C   UNL     1     -10.698  16.150  65.089  1.00  0.00    -0.371 C  
HETATM    3  H2  UNL     1     -12.550  16.460  64.221  1.00  0.00     0.000 HD 
HETATM    4  H1  UNL     1     -11.307  17.281  63.442  1.00  0.00     0.000 HD 
ENDROOT
BRANCH   2   5
HETATM    5  C   UNL     1     -11.095  14.866  65.837  1.00  0.00    -0.338 C  
BRANCH   5   6
HETATM    6  C   UNL     1     -11.505  13.744  64.940  1.00  0.00    -0.343 A  
HETATM    7  C   UNL     1     -10.790  12.742  64.323  1.00  0.00    -0.419 A  
HETATM    8  C   UNL     1     -11.754  11.985  63.629  1.00  0.00    -0.493 A  
HETATM    9  N   UNL     1     -12.989  12.463  63.792  1.00  0.00    -0.775 NA 
HETATM   10  N   UNL     1     -12.814  13.525  64.596  1.00  0.00    -0.680 NA 
HETATM   11  H   UNL     1     -13.861  12.105  63.399  1.00  0.00     0.000 HD 
ENDBRANCH   5   6
ENDBRANCH   2   5
TORSDOF 2
ENDMDL
MODEL        2
REMARK 921   NORMALIZED FREE ENERGY PREDICTED BY IDOCK:   -4.42 KCAL/MOL
REMARK 922        TOTAL FREE ENERGY PREDICTED BY IDOCK:   -5.22 KCAL/MOL
REMARK 923 INTER-LIGAND FREE ENERGY PREDICTED BY IDOCK:   -4.94 KCAL/MOL
REMARK 924 INTRA-LIGAND FREE ENERGY PREDICTED BY IDOCK:   -0.27 KCAL/MOL
REMARK 927      BINDING AFFINITY PREDICTED BY RF-SCORE:    0.00 PKD
ROOT
HETATM    1  N   UNL     1     -11.416  12.504  62.895  1.00  0.00    -0.615 NA 
HETATM    2  C   UNL     1     -12.234  11.888  63.951  1.00  0.00    -0.392 C  
HETATM    3  H2  UNL     1     -10.587  12.951  63.288  1.00  0.00     0.000 HD 
HETATM    4  H1  UNL     1     -11.162  11.846  62.159  1.00  0.00     0.000 HD 
ENDROOT
BRANCH   2   5
HETATM    5  C   UNL     1     -12.617  12.883  65.061  1.00  0.00    -0.538 C  
BRANCH   5   6
HETATM    6  C   UNL     1     -12.037  14.247  64.880  1.00  0.00    -0.435 A  
HETATM    7  C   UNL     1     -11.067  14.941  65.568  1.00  0.00    -0.353 A  
HETATM    8  C   UNL     1     -10.955  16.171  64.892  1.00  0.00    -0.349 A  
HETATM    9  N   UNL     1     -11.785  16.258  63.852  1.00  0.00    -1.518 NA 
HETATM   10  N   UNL     1     -12.427  15.077  63.860  1.00  0.00    -0.744 NA 
HETATM   11  H   UNL     1     -11.905  17.036  63.203  1.00  0.00     0.000 HD 
ENDBRANCH   5   6
ENDBRANCH   2   5
TORSDOF 2
ENDMDL
MODEL        3
REMARK 921   NORMALIZED FREE ENERGY PREDICTED BY IDOCK:   -4.01 KCAL/MOL
REMARK 922        TOTAL FREE ENERGY PREDICTED BY IDOCK:   -4.75 KCAL/MOL
REMARK 923 INTER-LIGAND FREE ENERGY PREDICTED BY IDOCK:   -4.72 KCAL/MOL
REMARK 924 INTRA-LIGAND FREE ENERGY PREDICTED BY IDOCK:   -0.03 KCAL/MOL
REMARK 927      BINDING AFFINITY PREDICTED BY RF-SCORE:    0.00 PKD
ROOT
HETATM    1  N   UNL     1     -11.743  16.458  63.875  1.00  0.00    -1.527 NA 
HETATM    2  C   UNL     1     -11.281  15.495  64.886  1.00  0.00    -0.389 C  
HETATM    3  H2  UNL     1     -12.719  16.710  64.029  1.00  0.00     0.000 HD 
HETATM    4  H1  UNL     1     -11.154  17.289  63.825  1.00  0.00     0.000 HD 
ENDROOT
BRANCH   2   5
HETATM    5  C   UNL     1     -12.169  14.240  64.960  1.00  0.00    -0.438 C  
BRANCH   5   6
HETATM    6  C   UNL     1     -11.994  13.448  66.214  1.00  0.00    -0.411 A  
HETATM    7  C   UNL     1     -11.870  13.818  67.535  1.00  0.00    -0.422 A  
HETATM    8  C   UNL     1     -11.756  12.604  68.240  1.00  0.00    -0.342 A  
HETATM    9  N   UNL     1     -11.806  11.541  67.436  1.00  0.00    -0.620 NA 
HETATM   10  N   UNL     1     -11.957  12.077  66.213  1.00  0.00    -0.574 NA 
HETATM   11  H   UNL     1     -11.744  10.555  67.690  1.00  0.00     0.000 HD 
ENDBRANCH   5   6
ENDBRANCH   2   5
TORSDOF 2
ENDMDL
MODEL        4
REMARK 921   NORMALIZED FREE ENERGY PREDICTED BY IDOCK:   -3.95 KCAL/MOL
REMARK 922        TOTAL FREE ENERGY PREDICTED BY IDOCK:   -4.68 KCAL/MOL
REMARK 923 INTER-LIGAND FREE ENERGY PREDICTED BY IDOCK:   -4.42 KCAL/MOL
REMARK 924 INTRA-LIGAND FREE ENERGY PREDICTED BY IDOCK:   -0.26 KCAL/MOL
REMARK 927      BINDING AFFINITY PREDICTED BY RF-SCORE:    0.00 PKD
ROOT
HETATM    1  N   UNL     1     -11.741  16.312  63.873  1.00  0.00    -1.518 NA 
HETATM    2  C   UNL     1     -11.295  15.342  64.885  1.00  0.00    -0.363 C  
HETATM    3  H2  UNL     1     -10.972  16.578  63.258  1.00  0.00     0.000 HD 
HETATM    4  H1  UNL     1     -12.542  15.980  63.336  1.00  0.00     0.000 HD 
ENDROOT
BRANCH   2   5
HETATM    5  C   UNL     1     -10.087  15.843  65.697  1.00  0.00    -0.388 C  
BRANCH   5   6
HETATM    6  C   UNL     1     -10.310  17.159  66.366  1.00  0.00    -0.307 A  
HETATM    7  C   UNL     1     -10.534  17.505  67.680  1.00  0.00    -0.370 A  
HETATM    8  C   UNL     1     -10.644  18.908  67.671  1.00  0.00    -0.428 A  
HETATM    9  N   UNL     1     -10.499  19.422  66.448  1.00  0.00    -0.460 NA 
HETATM   10  N   UNL     1     -10.291  18.343  65.674  1.00  0.00    -0.591 NA 
HETATM   11  H   UNL     1     -10.537  20.402  66.167  1.00  0.00     0.000 HD 
ENDBRANCH   5   6
ENDBRANCH   2   5
TORSDOF 2
ENDMDL
MODEL        5
REMARK 921   NORMALIZED FREE ENERGY PREDICTED BY IDOCK:   -3.87 KCAL/MOL
REMARK 922        TOTAL FREE ENERGY PREDICTED BY IDOCK:   -4.60 KCAL/MOL
REMARK 923 INTER-LIGAND FREE ENERGY PREDICTED BY IDOCK:   -4.58 KCAL/MOL
REMARK 924 INTRA-LIGAND FREE ENERGY PREDICTED BY IDOCK:   -0.02 KCAL/MOL
REMARK 927      BINDING AFFINITY PREDICTED BY RF-SCORE:    0.00 PKD
ROOT
HETATM    1  N   UNL     1     -10.283  10.590  62.456  1.00  0.00    -0.718 NA 
HETATM    2  C   UNL     1     -10.163  11.611  63.509  1.00  0.00    -0.436 C  
HETATM    3  H2  UNL     1     -10.821  10.944  61.664  1.00  0.00     0.000 HD 
HETATM    4  H1  UNL     1      -9.380  10.229  62.153  1.00  0.00     0.000 HD 
ENDROOT
BRANCH   2   5
HETATM    5  C   UNL     1     -11.527  12.156  63.967  1.00  0.00    -0.488 C  
BRANCH   5   6
HETATM    6  C   UNL     1     -11.549  13.635  64.176  1.00  0.00    -0.352 A  
HETATM    7  C   UNL     1     -10.785  14.472  64.960  1.00  0.00    -0.444 A  
HETATM    8  C   UNL     1     -11.284  15.763  64.701  1.00  0.00    -0.363 A  
HETATM    9  N   UNL     1     -12.286  15.754  63.820  1.00  0.00    -1.100 NA 
HETATM   10  N   UNL     1     -12.424  14.454  63.511  1.00  0.00    -0.675 NA 
HETATM   11  H   UNL     1     -12.820  16.548  63.465  1.00  0.00     0.000 HD 
ENDBRANCH   5   6
ENDBRANCH   2   5
TORSDOF 2
ENDMDL
MODEL        6
REMARK 921   NORMALIZED FREE ENERGY PREDICTED BY IDOCK:   -3.84 KCAL/MOL
REMARK 922        TOTAL FREE ENERGY PREDICTED BY IDOCK:   -4.57 KCAL/MOL
REMARK 923 INTER-LIGAND FREE ENERGY PREDICTED BY IDOCK:   -4.53 KCAL/MOL
REMARK 924 INTRA-LIGAND FREE ENERGY PREDICTED BY IDOCK:   -0.04 KCAL/MOL
REMARK 927      BINDING AFFINITY PREDICTED BY RF-SCORE:    0.00 PKD
ROOT
HETATM    1  N   UNL     1     -11.929  10.976  67.976  1.00  0.00    -0.761 NA 
HETATM    2  C   UNL     1     -11.232  12.245  67.716  1.00  0.00    -0.276 C  
HETATM    3  H2  UNL     1     -12.351  10.609  67.122  1.00  0.00     0.000 HD 
HETATM    4  H1  UNL     1     -11.328  10.279  68.415  1.00  0.00     0.000 HD 
ENDROOT
BRANCH   2   5
HETATM    5  C   UNL     1     -12.139  13.297  67.053  1.00  0.00    -0.375 C  
BRANCH   5   6
HETATM    6  C   UNL     1     -12.098  13.279  65.560  1.00  0.00    -0.435 A  
HETATM    7  C   UNL     1     -11.781  12.291  64.654  1.00  0.00    -0.420 A  
HETATM    8  C   UNL     1     -11.953  12.892  63.392  1.00  0.00    -0.537 A  
HETATM    9  N   UNL     1     -12.351  14.162  63.482  1.00  0.00    -1.127 NA 
HETATM   10  N   UNL     1     -12.438  14.373  64.807  1.00  0.00    -0.594 NA 
HETATM   11  H   UNL     1     -12.544  14.819  62.725  1.00  0.00     0.000 HD 
ENDBRANCH   5   6
ENDBRANCH   2   5
TORSDOF 2
ENDMDL
MODEL        7
REMARK 921   NORMALIZED FREE ENERGY PREDICTED BY IDOCK:   -3.84 KCAL/MOL
REMARK 922        TOTAL FREE ENERGY PREDICTED BY IDOCK:   -4.57 KCAL/MOL
REMARK 923 INTER-LIGAND FREE ENERGY PREDICTED BY IDOCK:   -4.29 KCAL/MOL
REMARK 924 INTRA-LIGAND FREE ENERGY PREDICTED BY IDOCK:   -0.28 KCAL/MOL
REMARK 927      BINDING AFFINITY PREDICTED BY RF-SCORE:    0.00 PKD
ROOT
HETATM    1  N   UNL     1     -10.326  15.616  65.771  1.00  0.00    -0.339 NA 
HETATM    2  C   UNL     1     -11.059  15.179  66.969  1.00  0.00    -0.328 C  
HETATM    3  H2  UNL     1     -10.948  16.084  65.112  1.00  0.00     0.000 HD 
HETATM    4  H1  UNL     1      -9.521  16.201  65.993  1.00  0.00     0.000 HD 
ENDROOT
BRANCH   2   5
HETATM    5  C   UNL     1     -12.274  14.296  66.633  1.00  0.00    -0.411 C  
BRANCH   5   6
HETATM    6  C   UNL     1     -12.231  13.701  65.264  1.00  0.00    -0.439 A  
HETATM    7  C   UNL     1     -11.995  12.420  64.817  1.00  0.00    -0.462 A  
HETATM    8  C   UNL     1     -12.115  12.499  63.416  1.00  0.00    -0.529 A  
HETATM    9  N   UNL     1     -12.407  13.732  62.999  1.00  0.00    -1.030 NA 
HETATM   10  N   UNL     1     -12.479  14.443  64.138  1.00  0.00    -0.754 NA 
HETATM   11  H   UNL     1     -12.543  14.059  62.042  1.00  0.00     0.000 HD 
ENDBRANCH   5   6
ENDBRANCH   2   5
TORSDOF 2
ENDMDL
MODEL        8
REMARK 921   NORMALIZED FREE ENERGY PREDICTED BY IDOCK:   -3.81 KCAL/MOL
REMARK 922        TOTAL FREE ENERGY PREDICTED BY IDOCK:   -4.53 KCAL/MOL
REMARK 923 INTER-LIGAND FREE ENERGY PREDICTED BY IDOCK:   -4.51 KCAL/MOL
REMARK 924 INTRA-LIGAND FREE ENERGY PREDICTED BY IDOCK:   -0.03 KCAL/MOL
REMARK 927      BINDING AFFINITY PREDICTED BY RF-SCORE:    0.00 PKD
ROOT
HETATM    1  N   UNL     1     -11.996  11.393  67.895  1.00  0.00    -0.644 NA 
HETATM    2  C   UNL     1     -11.423  12.557  67.202  1.00  0.00    -0.351 C  
HETATM    3  H2  UNL     1     -12.025  10.579  67.281  1.00  0.00     0.000 HD 
HETATM    4  H1  UNL     1     -11.513  11.177  68.766  1.00  0.00     0.000 HD 
ENDROOT
BRANCH   2   5
HETATM    5  C   UNL     1     -12.151  12.884  65.886  1.00  0.00    -0.503 C  
BRANCH   5   6
HETATM    6  C   UNL     1     -11.829  14.234  65.334  1.00  0.00    -0.363 A  
HETATM    7  C   UNL     1     -10.860  15.159  65.653  1.00  0.00    -0.367 A  
HETATM    8  C   UNL     1     -11.067  16.223  64.755  1.00  0.00    -0.281 A  
HETATM    9  N   UNL     1     -12.087  15.997  63.924  1.00  0.00    -1.257 NA 
HETATM   10  N   UNL     1     -12.529  14.782  64.290  1.00  0.00    -0.738 NA 
HETATM   11  H   UNL     1     -12.445  16.603  63.186  1.00  0.00     0.000 HD 
ENDBRANCH   5   6
ENDBRANCH   2   5
TORSDOF 2
ENDMDL
MODEL        9
REMARK 921   NORMALIZED FREE ENERGY PREDICTED BY IDOCK:   -3.81 KCAL/MOL
REMARK 922        TOTAL FREE ENERGY PREDICTED BY IDOCK:   -4.53 KCAL/MOL
REMARK 923 INTER-LIGAND FREE ENERGY PREDICTED BY IDOCK:   -4.24 KCAL/MOL
REMARK 924 INTRA-LIGAND FREE ENERGY PREDICTED BY IDOCK:   -0.28 KCAL/MOL
REMARK 927      BINDING AFFINITY PREDICTED BY RF-SCORE:    0.00 PKD
ROOT
HETATM    1  N   UNL     1      -8.600  18.684  65.861  1.00  0.00    -0.451 NA 
HETATM    2  C   UNL     1      -9.112  18.447  67.220  1.00  0.00    -0.266 C  
HETATM    3  H2  UNL     1      -9.268  19.221  65.307  1.00  0.00     0.000 HD 
HETATM    4  H1  UNL     1      -7.682  19.128  65.858  1.00  0.00     0.000 HD 
ENDROOT
BRANCH   2   5
HETATM    5  C   UNL     1     -10.497  17.777  67.225  1.00  0.00    -0.356 C  
BRANCH   5   6
HETATM    6  C   UNL     1     -10.761  16.922  66.029  1.00  0.00    -0.125 A  
HETATM    7  C   UNL     1     -10.716  15.559  65.835  1.00  0.00    -0.346 A  
HETATM    8  C   UNL     1     -11.091  15.373  64.491  1.00  0.00    -0.256 A  
HETATM    9  N   UNL     1     -11.358  16.525  63.873  1.00  0.00    -1.559 NA 
HETATM   10  N   UNL     1     -11.157  17.450  64.827  1.00  0.00    -0.883 NA 
HETATM   11  H   UNL     1     -11.647  16.669  62.905  1.00  0.00     0.000 HD 
ENDBRANCH   5   6
ENDBRANCH   2   5
TORSDOF 2
ENDMDL
MODEL       10
REMARK 921   NORMALIZED FREE ENERGY PREDICTED BY IDOCK:   -3.78 KCAL/MOL
REMARK 922        TOTAL FREE ENERGY PREDICTED BY IDOCK:   -4.49 KCAL/MOL
REMARK 923 INTER-LIGAND FREE ENERGY PREDICTED BY IDOCK:   -4.41 KCAL/MOL
REMARK 924 INTRA-LIGAND FREE ENERGY PREDICTED BY IDOCK:   -0.08 KCAL/MOL
REMARK 927      BINDING AFFINITY PREDICTED BY RF-SCORE:    0.00 PKD
ROOT
HETATM    1  N   UNL     1     -11.642  16.392  63.913  1.00  0.00    -1.602 NA 
HETATM    2  C   UNL     1     -10.990  15.477  64.863  1.00  0.00    -0.436 C  
HETATM    3  H2  UNL     1     -11.116  17.262  63.824  1.00  0.00     0.000 HD 
HETATM    4  H1  UNL     1     -11.799  15.965  63.000  1.00  0.00     0.000 HD 
ENDROOT
BRANCH   2   5
HETATM    5  C   UNL     1     -10.753  16.122  66.240  1.00  0.00    -0.213 C  
BRANCH   5   6
HETATM    6  C   UNL     1     -10.056  17.441  66.180  1.00  0.00    -0.300 A  
HETATM    7  C   UNL     1     -10.485  18.728  66.421  1.00  0.00    -0.485 A  
HETATM    8  C   UNL     1      -9.347  19.531  66.214  1.00  0.00    -0.372 A  
HETATM    9  N   UNL     1      -8.274  18.817  65.872  1.00  0.00    -0.476 NA 
HETATM   10  N   UNL     1      -8.727  17.551  65.863  1.00  0.00    -0.529 NA 
HETATM   11  H   UNL     1      -7.333  19.152  65.665  1.00  0.00     0.000 HD 
ENDBRANCH   5   6
ENDBRANCH   2   5
TORSDOF 2
ENDMDL
MODEL       11
REMARK 921   NORMALIZED FREE ENERGY PREDICTED BY IDOCK:   -3.73 KCAL/MOL
REMARK 922        TOTAL FREE ENERGY PREDICTED BY IDOCK:   -4.44 KCAL/MOL
REMARK 923 INTER-LIGAND FREE ENERGY PREDICTED BY IDOCK:   -4.19 KCAL/MOL
REMARK 924 INTRA-LIGAND FREE ENERGY PREDICTED BY IDOCK:   -0.25 KCAL/MOL
REMARK 927      BINDING AFFINITY PREDICTED BY RF-SCORE:    0.00 PKD
ROOT
HETATM    1  N   UNL     1     -12.436  14.509  63.732  1.00  0.00    -1.065 NA 
HETATM    2  C   UNL     1     -11.724  13.633  64.674  1.00  0.00    -0.388 C  
HETATM    3  H2  UNL     1     -11.879  14.673  62.893  1.00  0.00     0.000 HD 
HETATM    4  H1  UNL     1     -13.363  14.158  63.492  1.00  0.00     0.000 HD 
ENDROOT
BRANCH   2   5
HETATM    5  C   UNL     1     -10.325  14.162  65.037  1.00  0.00    -0.443 C  
BRANCH   5   6
HETATM    6  C   UNL     1     -10.328  15.542  65.608  1.00  0.00    -0.384 A  
HETATM    7  C   UNL     1     -10.096  16.020  66.878  1.00  0.00    -0.266 A  
HETATM    8  C   UNL     1     -10.226  17.418  66.766  1.00  0.00    -0.318 A  
HETATM    9  N   UNL     1     -10.514  17.805  65.523  1.00  0.00    -0.636 NA 
HETATM   10  N   UNL     1     -10.565  16.651  64.836  1.00  0.00    -0.689 NA 
HETATM   11  H   UNL     1     -10.662  18.753  65.175  1.00  0.00     0.000 HD 
ENDBRANCH   5   6
ENDBRANCH   2   5
TORSDOF 2
ENDMDL
MODEL       12
REMARK 921   NORMALIZED FREE ENERGY PREDICTED BY IDOCK:   -3.71 KCAL/MOL
REMARK 922        TOTAL FREE ENERGY PREDICTED BY IDOCK:   -4.42 KCAL/MOL
REMARK 923 INTER-LIGAND FREE ENERGY PREDICTED BY IDOCK:   -4.26 KCAL/MOL
REMARK 924 INTRA-LIGAND FREE ENERGY PREDICTED BY IDOCK:   -0.16 KCAL/MOL
REMARK 927      BINDING AFFINITY PREDICTED BY RF-SCORE:    0.00 PKD
ROOT
HETATM    1  N   UNL     1     -12.068  11.698  67.707  1.00  0.00    -0.579 NA 
HETATM    2  C   UNL     1     -11.804  13.144  67.651  1.00  0.00    -0.359 C  
HETATM    3  H2  UNL     1     -11.710  11.228  66.876  1.00  0.00     0.000 HD 
HETATM    4  H1  UNL     1     -11.707  11.265  68.556  1.00  0.00     0.000 HD 
ENDROOT
BRANCH   2   5
HETATM    5  C   UNL     1     -12.349  13.798  66.369  1.00  0.00    -0.460 C  
BRANCH   5   6
HETATM    6  C   UNL     1     -12.013  13.053  65.118  1.00  0.00    -0.402 A  
HETATM    7  C   UNL     1     -10.822  12.828  64.465  1.00  0.00    -0.373 A  
HETATM    8  C   UNL     1     -11.164  12.035  63.353  1.00  0.00    -0.398 A  
HETATM    9  N   UNL     1     -12.471  11.769  63.300  1.00  0.00    -0.904 NA 
HETATM   10  N   UNL     1     -12.964  12.392  64.384  1.00  0.00    -0.791 NA 
HETATM   11  H   UNL     1     -12.976  11.223  62.602  1.00  0.00     0.000 HD 
ENDBRANCH   5   6
ENDBRANCH   2   5
TORSDOF 2
ENDMDL
MODEL       13
REMARK 921   NORMALIZED FREE ENERGY PREDICTED BY IDOCK:   -3.69 KCAL/MOL
REMARK 922        TOTAL FREE ENERGY PREDICTED BY IDOCK:   -4.39 KCAL/MOL
REMARK 923 INTER-LIGAND FREE ENERGY PREDICTED BY IDOCK:   -4.15 KCAL/MOL
REMARK 924 INTRA-LIGAND FREE ENERGY PREDICTED BY IDOCK:   -0.24 KCAL/MOL
REMARK 927      BINDING AFFINITY PREDICTED BY RF-SCORE:    0.00 PKD
ROOT
HETATM    1  N   UNL     1     -12.485  14.690  63.533  1.00  0.00    -1.016 NA 
HETATM    2  C   UNL     1     -11.789  13.399  63.633  1.00  0.00    -0.398 C  
HETATM    3  H2  UNL     1     -12.525  15.155  64.441  1.00  0.00     0.000 HD 
HETATM    4  H1  UNL     1     -12.080  15.303  62.826  1.00  0.00     0.000 HD 
ENDROOT
BRANCH   2   5
HETATM    5  C   UNL     1     -12.400  12.474  64.700  1.00  0.00    -0.547 C  
BRANCH   5   6
HETATM    6  C   UNL     1     -12.130  12.907  66.104  1.00  0.00    -0.393 A  
HETATM    7  C   UNL     1     -11.601  12.250  67.192  1.00  0.00    -0.423 A  
HETATM    8  C   UNL     1     -11.585  13.210  68.221  1.00  0.00    -0.335 A  
HETATM    9  N   UNL     1     -12.063  14.390  67.825  1.00  0.00    -0.596 NA 
HETATM   10  N   UNL     1     -12.382  14.185  66.535  1.00  0.00    -0.442 NA 
HETATM   11  H   UNL     1     -12.164  15.246  68.371  1.00  0.00     0.000 HD 
ENDBRANCH   5   6
ENDBRANCH   2   5
TORSDOF 2
ENDMDL
MODEL       14
REMARK 921   NORMALIZED FREE ENERGY PREDICTED BY IDOCK:   -3.65 KCAL/MOL
REMARK 922        TOTAL FREE ENERGY PREDICTED BY IDOCK:   -4.35 KCAL/MOL
REMARK 923 INTER-LIGAND FREE ENERGY PREDICTED BY IDOCK:   -4.11 KCAL/MOL
REMARK 924 INTRA-LIGAND FREE ENERGY PREDICTED BY IDOCK:   -0.24 KCAL/MOL
REMARK 927      BINDING AFFINITY PREDICTED BY RF-SCORE:    0.00 PKD
ROOT
HETATM    1  N   UNL     1     -13.031  11.924  63.052  1.00  0.00    -0.774 NA 
HETATM    2  C   UNL     1     -11.953  12.870  63.381  1.00  0.00    -0.537 C  
HETATM    3  H2  UNL     1     -13.889  12.419  62.809  1.00  0.00     0.000 HD 
HETATM    4  H1  UNL     1     -12.767  11.267  62.318  1.00  0.00     0.000 HD 
ENDROOT
BRANCH   2   5
HETATM    5  C   UNL     1     -12.350  13.861  64.489  1.00  0.00    -0.408 C  
BRANCH   5   6
HETATM    6  C   UNL     1     -12.119  13.348  65.873  1.00  0.00    -0.439 A  
HETATM    7  C   UNL     1     -11.934  13.986  67.079  1.00  0.00    -0.472 A  
HETATM    8  C   UNL     1     -11.791  12.947  68.018  1.00  0.00    -0.343 A  
HETATM    9  N   UNL     1     -11.880  11.739  67.459  1.00  0.00    -0.617 NA 
HETATM   10  N   UNL     1     -12.086  12.007  66.158  1.00  0.00    -0.520 NA 
HETATM   11  H   UNL     1     -11.809  10.827  67.912  1.00  0.00     0.000 HD 
ENDBRANCH   5   6
ENDBRANCH   2   5
TORSDOF 2
ENDMDL
MODEL       15
REMARK 921   NORMALIZED FREE ENERGY PREDICTED BY IDOCK:   -3.58 KCAL/MOL
REMARK 922        TOTAL FREE ENERGY PREDICTED BY IDOCK:   -4.28 KCAL/MOL
REMARK 923 INTER-LIGAND FREE ENERGY PREDICTED BY IDOCK:   -4.23 KCAL/MOL
REMARK 924 INTRA-LIGAND FREE ENERGY PREDICTED BY IDOCK:   -0.05 KCAL/MOL
REMARK 927      BINDING AFFINITY PREDICTED BY RF-SCORE:    0.00 PKD
ROOT
HETATM    1  N   UNL     1     -11.332  16.694  64.057  1.00  0.00    -1.530 NA 
HETATM    2  C   UNL     1     -11.309  15.279  64.456  1.00  0.00    -0.300 C  
HETATM    3  H2  UNL     1     -10.392  17.030  63.846  1.00  0.00     0.000 HD 
HETATM    4  H1  UNL     1     -11.967  16.874  63.280  1.00  0.00     0.000 HD 
ENDROOT
BRANCH   2   5
HETATM    5  C   UNL     1     -10.351  15.007  65.629  1.00  0.00    -0.374 C  
BRANCH   5   6
HETATM    6  C   UNL     1     -10.990  15.124  66.973  1.00  0.00    -0.322 A  
HETATM    7  C   UNL     1     -10.833  16.029  67.999  1.00  0.00    -0.335 A  
HETATM    8  C   UNL     1     -11.737  15.609  68.993  1.00  0.00    -0.395 A  
HETATM    9  N   UNL     1     -12.422  14.522  68.632  1.00  0.00    -0.566 NA 
HETATM   10  N   UNL     1     -11.956  14.250  67.401  1.00  0.00    -0.404 NA 
HETATM   11  H   UNL     1     -13.131  14.017  69.165  1.00  0.00     0.000 HD 
ENDBRANCH   5   6
ENDBRANCH   2   5
TORSDOF 2
ENDMDL
MODEL       16
REMARK 921   NORMALIZED FREE ENERGY PREDICTED BY IDOCK:   -3.58 KCAL/MOL
REMARK 922        TOTAL FREE ENERGY PREDICTED BY IDOCK:   -4.28 KCAL/MOL
REMARK 923 INTER-LIGAND FREE ENERGY PREDICTED BY IDOCK:   -4.24 KCAL/MOL
REMARK 924 INTRA-LIGAND FREE ENERGY PREDICTED BY IDOCK:   -0.04 KCAL/MOL
REMARK 927      BINDING AFFINITY PREDICTED BY RF-SCORE:    0.00 PKD
ROOT
HETATM    1  N   UNL     1     -11.738  16.412  63.845  1.00  0.00    -1.527 NA 
HETATM    2  C   UNL     1     -11.339  15.325  64.752  1.00  0.00    -0.391 C  
HETATM    3  H2  UNL     1     -12.750  16.537  63.847  1.00  0.00     0.000 HD 
HETATM    4  H1  UNL     1     -11.261  17.290  64.048  1.00  0.00     0.000 HD 
ENDROOT
BRANCH   2   5
HETATM    5  C   UNL     1     -12.059  14.000  64.445  1.00  0.00    -0.486 C  
BRANCH   5   6
HETATM    6  C   UNL     1     -11.155  12.811  64.419  1.00  0.00    -0.349 A  
HETATM    7  C   UNL     1     -11.237  11.598  63.773  1.00  0.00    -0.498 A  
HETATM    8  C   UNL     1     -10.060  10.916  64.135  1.00  0.00    -0.355 A  
HETATM    9  N   UNL     1      -9.283  11.636  64.946  1.00  0.00    -0.420 NA 
HETATM   10  N   UNL     1      -9.964  12.784  65.099  1.00  0.00    -0.215 NA 
HETATM   11  H   UNL     1      -8.384  11.376  65.353  1.00  0.00     0.000 HD 
ENDBRANCH   5   6
ENDBRANCH   2   5
TORSDOF 2
ENDMDL
MODEL       17
REMARK 921   NORMALIZED FREE ENERGY PREDICTED BY IDOCK:   -3.57 KCAL/MOL
REMARK 922        TOTAL FREE ENERGY PREDICTED BY IDOCK:   -4.27 KCAL/MOL
REMARK 923 INTER-LIGAND FREE ENERGY PREDICTED BY IDOCK:   -4.01 KCAL/MOL
REMARK 924 INTRA-LIGAND FREE ENERGY PREDICTED BY IDOCK:   -0.25 KCAL/MOL
REMARK 927      BINDING AFFINITY PREDICTED BY RF-SCORE:    0.00 PKD
ROOT
HETATM    1  N   UNL     1     -12.942  12.854  64.916  1.00  0.00    -0.823 NA 
HETATM    2  C   UNL     1     -11.668  13.405  65.402  1.00  0.00    -0.331 C  
HETATM    3  H2  UNL     1     -13.682  13.555  64.954  1.00  0.00     0.000 HD 
HETATM    4  H1  UNL     1     -12.866  12.452  63.982  1.00  0.00     0.000 HD 
ENDROOT
BRANCH   2   5
HETATM    5  C   UNL     1     -11.783  14.011  66.812  1.00  0.00    -0.430 C  
BRANCH   5   6
HETATM    6  C   UNL     1     -11.873  12.995  67.903  1.00  0.00    -0.343 A  
HETATM    7  C   UNL     1     -11.857  13.105  69.276  1.00  0.00    -0.377 A  
HETATM    8  C   UNL     1     -12.002  11.785  69.745  1.00  0.00    -0.322 A  
HETATM    9  N   UNL     1     -12.105  10.900  68.752  1.00  0.00    -0.763 NA 
HETATM   10  N   UNL     1     -12.031  11.658  67.644  1.00  0.00    -0.625 NA 
HETATM   11  H   UNL     1     -12.215   9.888  68.818  1.00  0.00     0.000 HD 
ENDBRANCH   5   6
ENDBRANCH   2   5
TORSDOF 2
ENDMDL
MODEL       18
REMARK 921   NORMALIZED FREE ENERGY PREDICTED BY IDOCK:   -3.54 KCAL/MOL
REMARK 922        TOTAL FREE ENERGY PREDICTED BY IDOCK:   -4.23 KCAL/MOL
REMARK 923 INTER-LIGAND FREE ENERGY PREDICTED BY IDOCK:   -4.04 KCAL/MOL
REMARK 924 INTRA-LIGAND FREE ENERGY PREDICTED BY IDOCK:   -0.19 KCAL/MOL
REMARK 927      BINDING AFFINITY PREDICTED BY RF-SCORE:    0.00 PKD
ROOT
HETATM    1  N   UNL     1      -9.076  11.796  62.905  1.00  0.00    -0.634 NA 
HETATM    2  C   UNL     1      -9.994  10.843  63.550  1.00  0.00    -0.363 C  
HETATM    3  H2  UNL     1      -8.449  12.219  63.589  1.00  0.00     0.000 HD 
HETATM    4  H1  UNL     1      -8.552  11.378  62.137  1.00  0.00     0.000 HD 
ENDROOT
BRANCH   2   5
HETATM    5  C   UNL     1     -10.785  11.473  64.710  1.00  0.00    -0.366 C  
BRANCH   5   6
HETATM    6  C   UNL     1     -11.196  12.888  64.465  1.00  0.00    -0.336 A  
HETATM    7  C   UNL     1     -10.783  14.082  65.014  1.00  0.00    -0.409 A  
HETATM    8  C   UNL     1     -11.537  15.066  64.346  1.00  0.00    -0.276 A  
HETATM    9  N   UNL     1     -12.365  14.545  63.439  1.00  0.00    -1.034 NA 
HETATM   10  N   UNL     1     -12.136  13.223  63.524  1.00  0.00    -0.627 NA 
HETATM   11  H   UNL     1     -13.017  15.034  62.825  1.00  0.00     0.000 HD 
ENDBRANCH   5   6
ENDBRANCH   2   5
TORSDOF 2
ENDMDL
MODEL       19
REMARK 921   NORMALIZED FREE ENERGY PREDICTED BY IDOCK:   -3.54 KCAL/MOL
REMARK 922        TOTAL FREE ENERGY PREDICTED BY IDOCK:   -4.22 KCAL/MOL
REMARK 923 INTER-LIGAND FREE ENERGY PREDICTED BY IDOCK:   -4.00 KCAL/MOL
REMARK 924 INTRA-LIGAND FREE ENERGY PREDICTED BY IDOCK:   -0.23 KCAL/MOL
REMARK 927      BINDING AFFINITY PREDICTED BY RF-SCORE:    0.00 PKD
ROOT
HETATM    1  N   UNL     1     -10.022  13.416  64.108  1.00  0.00    -0.757 NA 
HETATM    2  C   UNL     1     -10.944  12.354  63.677  1.00  0.00    -0.470 C  
HETATM    3  H2  UNL     1      -9.836  13.355  65.109  1.00  0.00     0.000 HD 
HETATM    4  H1  UNL     1      -9.153  13.423  63.574  1.00  0.00     0.000 HD 
ENDROOT
BRANCH   2   5
HETATM    5  C   UNL     1     -12.255  12.343  64.483  1.00  0.00    -0.509 C  
BRANCH   5   6
HETATM    6  C   UNL     1     -12.129  12.919  65.855  1.00  0.00    -0.444 A  
HETATM    7  C   UNL     1     -11.644  12.403  67.036  1.00  0.00    -0.434 A  
HETATM    8  C   UNL     1     -11.776  13.449  67.968  1.00  0.00    -0.356 A  
HETATM    9  N   UNL     1     -12.301  14.550  67.427  1.00  0.00    -0.575 NA 
HETATM   10  N   UNL     1     -12.500  14.207  66.143  1.00  0.00    -0.451 NA 
HETATM   11  H   UNL     1     -12.502  15.442  67.881  1.00  0.00     0.000 HD 
ENDBRANCH   5   6
ENDBRANCH   2   5
TORSDOF 2
ENDMDL
MODEL       20
REMARK 921   NORMALIZED FREE ENERGY PREDICTED BY IDOCK:   -3.53 KCAL/MOL
REMARK 922        TOTAL FREE ENERGY PREDICTED BY IDOCK:   -4.21 KCAL/MOL
REMARK 923 INTER-LIGAND FREE ENERGY PREDICTED BY IDOCK:   -3.95 KCAL/MOL
REMARK 924 INTRA-LIGAND FREE ENERGY PREDICTED BY IDOCK:   -0.26 KCAL/MOL
REMARK 927      BINDING AFFINITY PREDICTED BY RF-SCORE:    0.00 PKD
ROOT
HETATM    1  N   UNL     1     -12.115  12.984  70.589  1.00  0.00    -0.508 NA 
HETATM    2  C   UNL     1     -12.001  13.880  69.428  1.00  0.00    -0.354 C  
HETATM    3  H2  UNL     1     -12.970  13.172  71.113  1.00  0.00     0.000 HD 
HETATM    4  H1  UNL     1     -12.051  11.999  70.334  1.00  0.00     0.000 HD 
ENDROOT
BRANCH   2   5
HETATM    5  C   UNL     1     -12.098  15.367  69.813  1.00  0.00    -0.373 C  
BRANCH   5   6
HETATM    6  C   UNL     1     -12.560  15.602  71.214  1.00  0.00    -0.463 A  
HETATM    7  C   UNL     1     -11.901  16.013  72.351  1.00  0.00    -0.639 A  
HETATM    8  C   UNL     1     -12.895  16.061  73.347  1.00  0.00    -0.562 A  
HETATM    9  N   UNL     1     -14.097  15.711  72.884  1.00  0.00    -0.554 NA 
HETATM   10  N   UNL     1     -13.870  15.443  71.587  1.00  0.00    -0.498 NA 
HETATM   11  H   UNL     1     -14.979  15.660  73.394  1.00  0.00     0.000 HD 
ENDBRANCH   5   6
ENDBRANCH   2   5
TORSDOF 2
ENDMDL
MODEL       21
REMARK 921   NORMALIZED FREE ENERGY PREDICTED BY IDOCK:   -3.52 KCAL/MOL
REMARK 922        TOTAL FREE ENERGY PREDICTED BY IDOCK:   -4.21 KCAL/MOL
REMARK 923 INTER-LIGAND FREE ENERGY PREDICTED BY IDOCK:   -3.91 KCAL/MOL
REMARK 924 INTRA-LIGAND FREE ENERGY PREDICTED BY IDOCK:   -0.29 KCAL/MOL
REMARK 927      BINDING AFFINITY PREDICTED BY RF-SCORE:    0.00 PKD
ROOT
HETATM    1  N   UNL     1     -14.089   8.897  73.082  1.00  0.00    -1.225 NA 
HETATM    2  C   UNL     1     -13.403   9.727  72.080  1.00  0.00    -0.431 C  
HETATM    3  H2  UNL     1     -13.425   8.506  73.750  1.00  0.00     0.000 HD 
HETATM    4  H1  UNL     1     -14.838   9.396  73.560  1.00  0.00     0.000 HD 
ENDROOT
BRANCH   2   5
HETATM    5  C   UNL     1     -12.272   8.973  71.358  1.00  0.00    -0.387 C  
BRANCH   5   6
HETATM    6  C   UNL     1     -11.731   7.812  72.125  1.00  0.00    -0.320 A  
HETATM    7  C   UNL     1     -10.674   7.689  72.999  1.00  0.00    -0.449 A  
HETATM    8  C   UNL     1     -10.696   6.341  73.405  1.00  0.00    -0.259 A  
HETATM    9  N   UNL     1     -11.690   5.654  72.838  1.00  0.00    -0.530 NA 
HETATM   10  N   UNL     1     -12.308   6.569  72.071  1.00  0.00    -0.314 NA 
HETATM   11  H   UNL     1     -11.925   4.669  72.958  1.00  0.00     0.000 HD 
ENDBRANCH   5   6
ENDBRANCH   2   5
TORSDOF 2
ENDMDL
MODEL       22
REMARK 921   NORMALIZED FREE ENERGY PREDICTED BY IDOCK:   -3.49 KCAL/MOL
REMARK 922        TOTAL FREE ENERGY PREDICTED BY IDOCK:   -4.18 KCAL/MOL
REMARK 923 INTER-LIGAND FREE ENERGY PREDICTED BY IDOCK:   -4.12 KCAL/MOL
REMARK 924 INTRA-LIGAND FREE ENERGY PREDICTED BY IDOCK:   -0.06 KCAL/MOL
REMARK 927      BINDING AFFINITY PREDICTED BY RF-SCORE:    0.00 PKD
ROOT
HETATM    1  N   UNL     1      -9.715  15.319  68.545  1.00  0.00    -0.205 NA 
HETATM    2  C   UNL     1      -9.639  16.486  67.652  1.00  0.00    -0.235 C  
HETATM    3  H2  UNL     1      -8.840  14.794  68.535  1.00  0.00     0.000 HD 
HETATM    4  H1  UNL     1      -9.980  15.568  69.497  1.00  0.00     0.000 HD 
ENDROOT
BRANCH   2   5
HETATM    5  C   UNL     1      -9.238  16.110  66.215  1.00  0.00    -0.366 C  
BRANCH   5   6
HETATM    6  C   UNL     1     -10.388  15.714  65.349  1.00  0.00    -0.393 A  
HETATM    7  C   UNL     1     -11.054  14.520  65.181  1.00  0.00    -0.374 A  
HETATM    8  C   UNL     1     -12.061  14.798  64.237  1.00  0.00    -0.394 A  
HETATM    9  N   UNL     1     -12.044  16.070  63.835  1.00  0.00    -1.257 NA 
HETATM   10  N   UNL     1     -11.025  16.608  64.527  1.00  0.00    -0.898 NA 
HETATM   11  H   UNL     1     -12.659  16.527  63.161  1.00  0.00     0.000 HD 
ENDBRANCH   5   6
ENDBRANCH   2   5
TORSDOF 2
ENDMDL
MODEL       23
REMARK 921   NORMALIZED FREE ENERGY PREDICTED BY IDOCK:   -3.45 KCAL/MOL
REMARK 922        TOTAL FREE ENERGY PREDICTED BY IDOCK:   -4.13 KCAL/MOL
REMARK 923 INTER-LIGAND FREE ENERGY PREDICTED BY IDOCK:   -3.85 KCAL/MOL
REMARK 924 INTRA-LIGAND FREE ENERGY PREDICTED BY IDOCK:   -0.27 KCAL/MOL
REMARK 927      BINDING AFFINITY PREDICTED BY RF-SCORE:    0.00 PKD
ROOT
HETATM    1  N   UNL     1     -12.451  14.030  62.957  1.00  0.00    -0.988 NA 
HETATM    2  C   UNL     1     -12.280  12.683  63.523  1.00  0.00    -0.547 C  
HETATM    3  H2  UNL     1     -11.781  14.684  63.361  1.00  0.00     0.000 HD 
HETATM    4  H1  UNL     1     -12.402  14.038  61.939  1.00  0.00     0.000 HD 
ENDROOT
BRANCH   2   5
HETATM    5  C   UNL     1     -12.355  12.671  65.060  1.00  0.00    -0.561 C  
BRANCH   5   6
HETATM    6  C   UNL     1     -11.597  13.781  65.713  1.00  0.00    -0.331 A  
HETATM    7  C   UNL     1     -11.820  14.506  66.862  1.00  0.00    -0.399 A  
HETATM    8  C   UNL     1     -10.732  15.395  66.945  1.00  0.00    -0.314 A  
HETATM    9  N   UNL     1      -9.876  15.248  65.931  1.00  0.00    -0.328 NA 
HETATM   10  N   UNL     1     -10.418  14.259  65.200  1.00  0.00    -0.386 NA 
HETATM   11  H   UNL     1      -9.014  15.765  65.753  1.00  0.00     0.000 HD 
ENDBRANCH   5   6
ENDBRANCH   2   5
TORSDOF 2
ENDMDL
MODEL       24
REMARK 921   NORMALIZED FREE ENERGY PREDICTED BY IDOCK:   -3.45 KCAL/MOL
REMARK 922        TOTAL FREE ENERGY PREDICTED BY IDOCK:   -4.12 KCAL/MOL
REMARK 923 INTER-LIGAND FREE ENERGY PREDICTED BY IDOCK:   -4.09 KCAL/MOL
REMARK 924 INTRA-LIGAND FREE ENERGY PREDICTED BY IDOCK:   -0.04 KCAL/MOL
REMARK 927      BINDING AFFINITY PREDICTED BY RF-SCORE:    0.00 PKD
ROOT
HETATM    1  N   UNL     1     -12.467  13.893  63.492  1.00  0.00    -1.067 NA 
HETATM    2  C   UNL     1     -11.425  13.689  64.511  1.00  0.00    -0.379 C  
HETATM    3  H2  UNL     1     -13.091  14.656  63.756  1.00  0.00     0.000 HD 
HETATM    4  H1  UNL     1     -12.083  14.041  62.560  1.00  0.00     0.000 HD 
ENDROOT
BRANCH   2   5
HETATM    5  C   UNL     1     -12.006  13.466  65.918  1.00  0.00    -0.452 C  
BRANCH   5   6
HETATM    6  C   UNL     1     -11.585  12.180  66.550  1.00  0.00    -0.359 A  
HETATM    7  C   UNL     1     -10.660  11.227  66.187  1.00  0.00    -0.312 A  
HETATM    8  C   UNL     1     -10.715  10.261  67.209  1.00  0.00    -0.263 A  
HETATM    9  N   UNL     1     -11.604  10.571  68.155  1.00  0.00    -0.695 NA 
HETATM   10  N   UNL     1     -12.114  11.742  67.738  1.00  0.00    -0.560 NA 
HETATM   11  H   UNL     1     -11.839  10.044  68.997  1.00  0.00     0.000 HD 
ENDBRANCH   5   6
ENDBRANCH   2   5
TORSDOF 2
ENDMDL
MODEL       25
REMARK 921   NORMALIZED FREE ENERGY PREDICTED BY IDOCK:   -3.42 KCAL/MOL
REMARK 922        TOTAL FREE ENERGY PREDICTED BY IDOCK:   -4.10 KCAL/MOL
REMARK 923 INTER-LIGAND FREE ENERGY PREDICTED BY IDOCK:   -3.85 KCAL/MOL
REMARK 924 INTRA-LIGAND FREE ENERGY PREDICTED BY IDOCK:   -0.24 KCAL/MOL
REMARK 927      BINDING AFFINITY PREDICTED BY RF-SCORE:    0.00 PKD
ROOT
HETATM    1  N   UNL     1     -12.535  14.494  63.485  1.00  0.00    -1.063 NA 
HETATM    2  C   UNL     1     -12.167  14.062  64.842  1.00  0.00    -0.437 C  
HETATM    3  H2  UNL     1     -12.270  13.792  62.793  1.00  0.00     0.000 HD 
HETATM    4  H1  UNL     1     -13.522  14.734  63.402  1.00  0.00     0.000 HD 
ENDROOT
BRANCH   2   5
HETATM    5  C   UNL     1     -10.676  13.700  64.967  1.00  0.00    -0.374 C  
BRANCH   5   6
HETATM    6  C   UNL     1     -10.337  12.342  64.444  1.00  0.00    -0.343 A  
HETATM    7  C   UNL     1      -9.790  11.229  65.042  1.00  0.00    -0.307 A  
HETATM    8  C   UNL     1      -9.741  10.259  64.022  1.00  0.00    -0.278 A  
HETATM    9  N   UNL     1     -10.221  10.714  62.863  1.00  0.00    -0.723 NA 
HETATM   10  N   UNL     1     -10.582  11.978  63.145  1.00  0.00    -0.328 NA 
HETATM   11  H   UNL     1     -10.296  10.220  61.974  1.00  0.00     0.000 HD 
ENDBRANCH   5   6
ENDBRANCH   2   5
TORSDOF 2
ENDMDL
MODEL       26
REMARK 921   NORMALIZED FREE ENERGY PREDICTED BY IDOCK:   -3.39 KCAL/MOL
REMARK 922        TOTAL FREE ENERGY PREDICTED BY IDOCK:   -4.06 KCAL/MOL
REMARK 923 INTER-LIGAND FREE ENERGY PREDICTED BY IDOCK:   -4.03 KCAL/MOL
REMARK 924 INTRA-LIGAND FREE ENERGY PREDICTED BY IDOCK:   -0.03 KCAL/MOL
REMARK 927      BINDING AFFINITY PREDICTED BY RF-SCORE:    0.00 PKD
ROOT
HETATM    1  N   UNL     1     -10.590  11.184  62.929  1.00  0.00    -0.800 NA 
HETATM    2  C   UNL     1     -11.200  12.457  63.342  1.00  0.00    -0.422 C  
HETATM    3  H2  UNL     1     -11.285  10.563  62.514  1.00  0.00     0.000 HD 
HETATM    4  H1  UNL     1      -9.795  11.312  62.305  1.00  0.00     0.000 HD 
ENDROOT
BRANCH   2   5
HETATM    5  C   UNL     1     -12.401  12.263  64.285  1.00  0.00    -0.519 C  
BRANCH   5   6
HETATM    6  C   UNL     1     -12.187  12.808  65.659  1.00  0.00    -0.444 A  
HETATM    7  C   UNL     1     -12.287  14.080  66.177  1.00  0.00    -0.491 A  
HETATM    8  C   UNL     1     -11.981  13.937  67.544  1.00  0.00    -0.386 A  
HETATM    9  N   UNL     1     -11.710  12.674  67.876  1.00  0.00    -0.350 NA 
HETATM   10  N   UNL     1     -11.847  12.006  66.718  1.00  0.00    -0.614 NA 
HETATM   11  H   UNL     1     -11.458  12.302  68.793  1.00  0.00     0.000 HD 
ENDBRANCH   5   6
ENDBRANCH   2   5
TORSDOF 2
ENDMDL
MODEL       27
REMARK 921   NORMALIZED FREE ENERGY PREDICTED BY IDOCK:   -3.36 KCAL/MOL
REMARK 922        TOTAL FREE ENERGY PREDICTED BY IDOCK:   -4.02 KCAL/MOL
REMARK 923 INTER-LIGAND FREE ENERGY PREDICTED BY IDOCK:   -3.81 KCAL/MOL
REMARK 924 INTRA-LIGAND FREE ENERGY PREDICTED BY IDOCK:   -0.21 KCAL/MOL
REMARK 927      BINDING AFFINITY PREDICTED BY RF-SCORE:    0.00 PKD
ROOT
HETATM    1  N   UNL     1     -14.275   8.864  73.252  1.00  0.00    -1.237 NA 
HETATM    2  C   UNL     1     -13.987   8.928  71.811  1.00  0.00    -0.393 C  
HETATM    3  H2  UNL     1     -14.540   9.781  73.613  1.00  0.00     0.000 HD 
HETATM    4  H1  UNL     1     -14.979   8.163  73.482  1.00  0.00     0.000 HD 
ENDROOT
BRANCH   2   5
HETATM    5  C   UNL     1     -12.925   9.986  71.464  1.00  0.00    -0.535 C  
BRANCH   5   6
HETATM    6  C   UNL     1     -11.528   9.458  71.442  1.00  0.00    -0.379 A  
HETATM    7  C   UNL     1     -10.461   9.693  70.604  1.00  0.00    -0.379 A  
HETATM    8  C   UNL     1      -9.413   8.909  71.124  1.00  0.00    -0.265 A  
HETATM    9  N   UNL     1      -9.779   8.228  72.212  1.00  0.00    -0.261 NA 
HETATM   10  N   UNL     1     -11.064   8.582  72.389  1.00  0.00    -0.361 NA 
HETATM   11  H   UNL     1      -9.216   7.590  72.776  1.00  0.00     0.000 HD 
ENDBRANCH   5   6
ENDBRANCH   2   5
TORSDOF 2
ENDMDL
MODEL       28
REMARK 921   NORMALIZED FREE ENERGY PREDICTED BY IDOCK:   -3.32 KCAL/MOL
REMARK 922        TOTAL FREE ENERGY PREDICTED BY IDOCK:   -3.99 KCAL/MOL
REMARK 923 INTER-LIGAND FREE ENERGY PREDICTED BY IDOCK:   -3.96 KCAL/MOL
REMARK 924 INTRA-LIGAND FREE ENERGY PREDICTED BY IDOCK:   -0.03 KCAL/MOL
REMARK 927      BINDING AFFINITY PREDICTED BY RF-SCORE:    0.00 PKD
ROOT
HETATM    1  N   UNL     1     -12.122  10.608  68.534  1.00  0.00    -0.819 NA 
HETATM    2  C   UNL     1     -11.668  11.610  69.510  1.00  0.00    -0.344 C  
HETATM    3  H2  UNL     1     -13.131  10.662  68.396  1.00  0.00     0.000 HD 
HETATM    4  H1  UNL     1     -11.627  10.673  67.645  1.00  0.00     0.000 HD 
ENDROOT
BRANCH   2   5
HETATM    5  C   UNL     1     -12.414  11.513  70.852  1.00  0.00    -0.464 C  
BRANCH   5   6
HETATM    6  C   UNL     1     -12.342  10.164  71.489  1.00  0.00    -0.408 A  
HETATM    7  C   UNL     1     -11.308   9.268  71.649  1.00  0.00    -0.467 A  
HETATM    8  C   UNL     1     -11.874   8.186  72.351  1.00  0.00    -0.388 A  
HETATM    9  N   UNL     1     -13.166   8.375  72.623  1.00  0.00    -0.619 NA 
HETATM   10  N   UNL     1     -13.427   9.584  72.096  1.00  0.00    -0.446 NA 
HETATM   11  H   UNL     1     -13.806   7.750  73.114  1.00  0.00     0.000 HD 
ENDBRANCH   5   6
ENDBRANCH   2   5
TORSDOF 2
ENDMDL
MODEL       29
REMARK 921   NORMALIZED FREE ENERGY PREDICTED BY IDOCK:   -3.29 KCAL/MOL
REMARK 922        TOTAL FREE ENERGY PREDICTED BY IDOCK:   -3.95 KCAL/MOL
REMARK 923 INTER-LIGAND FREE ENERGY PREDICTED BY IDOCK:   -3.70 KCAL/MOL
REMARK 924 INTRA-LIGAND FREE ENERGY PREDICTED BY IDOCK:   -0.25 KCAL/MOL
REMARK 927      BINDING AFFINITY PREDICTED BY RF-SCORE:    0.00 PKD
ROOT
HETATM    1  N   UNL     1      -9.533  15.094  69.817  1.00  0.00    -0.465 NA 
HETATM    2  C   UNL     1     -10.622  15.907  69.255  1.00  0.00    -0.252 C  
HETATM    3  H2  UNL     1      -9.570  14.138  69.463  1.00  0.00     0.000 HD 
HETATM    4  H1  UNL     1      -8.613  15.506  69.662  1.00  0.00     0.000 HD 
ENDROOT
BRANCH   2   5
HETATM    5  C   UNL     1     -12.010  15.285  69.489  1.00  0.00    -0.356 C  
BRANCH   5   6
HETATM    6  C   UNL     1     -12.543  15.495  70.868  1.00  0.00    -0.456 A  
HETATM    7  C   UNL     1     -13.744  15.167  71.458  1.00  0.00    -0.582 A  
HETATM    8  C   UNL     1     -13.627  15.616  72.787  1.00  0.00    -0.593 A  
HETATM    9  N   UNL     1     -12.444  16.183  73.031  1.00  0.00    -0.480 NA 
HETATM   10  N   UNL     1     -11.802  16.093  71.854  1.00  0.00    -0.515 NA 
HETATM   11  H   UNL     1     -12.108  16.590  73.905  1.00  0.00     0.000 HD 
ENDBRANCH   5   6
ENDBRANCH   2   5
TORSDOF 2
ENDMDL
MODEL       30
REMARK 921   NORMALIZED FREE ENERGY PREDICTED BY IDOCK:   -3.27 KCAL/MOL
REMARK 922        TOTAL FREE ENERGY PREDICTED BY IDOCK:   -3.93 KCAL/MOL
REMARK 923 INTER-LIGAND FREE ENERGY PREDICTED BY IDOCK:   -3.65 KCAL/MOL
REMARK 924 INTRA-LIGAND FREE ENERGY PREDICTED BY IDOCK:   -0.27 KCAL/MOL
REMARK 927      BINDING AFFINITY PREDICTED BY RF-SCORE:    0.00 PKD
ROOT
HETATM    1  N   UNL     1      -9.125  11.511  64.553  1.00  0.00    -0.405 NA 
HETATM    2  C   UNL     1      -9.673  11.298  65.902  1.00  0.00    -0.224 C  
HETATM    3  H2  UNL     1      -9.330  12.453  64.220  1.00  0.00     0.000 HD 
HETATM    4  H1  UNL     1      -8.127  11.313  64.498  1.00  0.00     0.000 HD 
ENDROOT
BRANCH   2   5
HETATM    5  C   UNL     1     -11.180  11.598  65.985  1.00  0.00    -0.299 C  
BRANCH   5   6
HETATM    6  C   UNL     1     -11.597  12.823  65.240  1.00  0.00    -0.344 A  
HETATM    7  C   UNL     1     -11.618  14.156  65.586  1.00  0.00    -0.339 A  
HETATM    8  C   UNL     1     -12.097  14.818  64.439  1.00  0.00    -0.440 A  
HETATM    9  N   UNL     1     -12.358  13.977  63.437  1.00  0.00    -1.154 NA 
HETATM   10  N   UNL     1     -12.041  12.773  63.944  1.00  0.00    -0.449 NA 
HETATM   11  H   UNL     1     -12.714  14.196  62.506  1.00  0.00     0.000 HD 
ENDBRANCH   5   6
ENDBRANCH   2   5
TORSDOF 2
ENDMDL
MODEL       31
REMARK 921   NORMALIZED FREE ENERGY PREDICTED BY IDOCK:   -3.27 KCAL/MOL
REMARK 922        TOTAL FREE ENERGY PREDICTED BY IDOCK:   -3.92 KCAL/MOL
REMARK 923 INTER-LIGAND FREE ENERGY PREDICTED BY IDOCK:   -3.87 KCAL/MOL
REMARK 924 INTRA-LIGAND FREE ENERGY PREDICTED BY IDOCK:   -0.05 KCAL/MOL
REMARK 927      BINDING AFFINITY PREDICTED BY RF-SCORE:    0.00 PKD
ROOT
HETATM    1  N   UNL     1     -14.234   8.870  73.266  1.00  0.00    -1.237 NA 
HETATM    2  C   UNL     1     -13.929   9.024  71.836  1.00  0.00    -0.387 C  
HETATM    3  H2  UNL     1     -13.956   9.700  73.791  1.00  0.00     0.000 HD 
HETATM    4  H1  UNL     1     -15.212   8.639  73.438  1.00  0.00     0.000 HD 
ENDROOT
BRANCH   2   5
HETATM    5  C   UNL     1     -12.453   9.373  71.577  1.00  0.00    -0.450 C  
BRANCH   5   6
HETATM    6  C   UNL     1     -12.246  10.720  70.966  1.00  0.00    -0.380 A  
HETATM    7  C   UNL     1     -11.686  11.121  69.773  1.00  0.00    -0.419 A  
HETATM    8  C   UNL     1     -11.809  12.523  69.771  1.00  0.00    -0.310 A  
HETATM    9  N   UNL     1     -12.403  12.985  70.873  1.00  0.00    -0.400 NA 
HETATM   10  N   UNL     1     -12.665  11.872  71.580  1.00  0.00    -0.286 NA 
HETATM   11  H   UNL     1     -12.609  13.953  71.120  1.00  0.00     0.000 HD 
ENDBRANCH   5   6
ENDBRANCH   2   5
TORSDOF 2
ENDMDL
MODEL       32
REMARK 921   NORMALIZED FREE ENERGY PREDICTED BY IDOCK:   -3.23 KCAL/MOL
REMARK 922        TOTAL FREE ENERGY PREDICTED BY IDOCK:   -3.89 KCAL/MOL
REMARK 923 INTER-LIGAND FREE ENERGY PREDICTED BY IDOCK:   -3.83 KCAL/MOL
REMARK 924 INTRA-LIGAND FREE ENERGY PREDICTED BY IDOCK:   -0.06 KCAL/MOL
REMARK 927      BINDING AFFINITY PREDICTED BY RF-SCORE:    0.00 PKD
ROOT
HETATM    1  N   UNL     1     -13.063  15.731  70.456  1.00  0.00    -0.753 NA 
HETATM    2  C   UNL     1     -11.750  15.272  69.979  1.00  0.00    -0.315 C  
HETATM    3  H2  UNL     1     -13.707  14.948  70.565  1.00  0.00     0.000 HD 
HETATM    4  H1  UNL     1     -13.001  16.276  71.316  1.00  0.00     0.000 HD 
ENDROOT
BRANCH   2   5
HETATM    5  C   UNL     1     -11.844  14.449  68.681  1.00  0.00    -0.366 C  
BRANCH   5   6
HETATM    6  C   UNL     1     -11.901  12.973  68.902  1.00  0.00    -0.316 A  
HETATM    7  C   UNL     1     -11.891  12.206  70.046  1.00  0.00    -0.383 A  
HETATM    8  C   UNL     1     -11.990  10.878  69.590  1.00  0.00    -0.343 A  
HETATM    9  N   UNL     1     -12.061  10.800  68.260  1.00  0.00    -0.807 NA 
HETATM   10  N   UNL     1     -12.012  12.083  67.865  1.00  0.00    -0.547 NA 
HETATM   11  H   UNL     1     -12.136   9.963  67.680  1.00  0.00     0.000 HD 
ENDBRANCH   5   6
ENDBRANCH   2   5
TORSDOF 2
ENDMDL
MODEL       33
REMARK 921   NORMALIZED FREE ENERGY PREDICTED BY IDOCK:   -3.23 KCAL/MOL
REMARK 922        TOTAL FREE ENERGY PREDICTED BY IDOCK:   -3.88 KCAL/MOL
REMARK 923 INTER-LIGAND FREE ENERGY PREDICTED BY IDOCK:   -3.65 KCAL/MOL
REMARK 924 INTRA-LIGAND FREE ENERGY PREDICTED BY IDOCK:   -0.24 KCAL/MOL
REMARK 927      BINDING AFFINITY PREDICTED BY RF-SCORE:    0.00 PKD
ROOT
HETATM    1  N   UNL     1      -9.446  13.849  66.122  1.00  0.00    -0.472 NA 
HETATM    2  C   UNL     1      -9.449  12.720  67.066  1.00  0.00    -0.233 C  
HETATM    3  H2  UNL     1     -10.397  14.116  65.869  1.00  0.00     0.000 HD 
HETATM    4  H1  UNL     1      -8.921  14.650  66.469  1.00  0.00     0.000 HD 
ENDROOT
BRANCH   2   5
HETATM    5  C   UNL     1     -10.242  11.510  66.543  1.00  0.00    -0.253 C  
BRANCH   5   6
HETATM    6  C   UNL     1     -11.139  11.825  65.391  1.00  0.00    -0.279 A  
HETATM    7  C   UNL     1     -11.042  11.566  64.042  1.00  0.00    -0.441 A  
HETATM    8  C   UNL     1     -12.220  12.100  63.486  1.00  0.00    -0.567 A  
HETATM    9  N   UNL     1     -13.012  12.653  64.406  1.00  0.00    -0.759 NA 
HETATM   10  N   UNL     1     -12.339  12.469  65.555  1.00  0.00    -0.642 NA 
HETATM   11  H   UNL     1     -13.915  13.109  64.270  1.00  0.00     0.000 HD 
ENDBRANCH   5   6
ENDBRANCH   2   5
TORSDOF 2
ENDMDL
MODEL       34
REMARK 921   NORMALIZED FREE ENERGY PREDICTED BY IDOCK:   -3.23 KCAL/MOL
REMARK 922        TOTAL FREE ENERGY PREDICTED BY IDOCK:   -3.88 KCAL/MOL
REMARK 923 INTER-LIGAND FREE ENERGY PREDICTED BY IDOCK:   -3.82 KCAL/MOL
REMARK 924 INTRA-LIGAND FREE ENERGY PREDICTED BY IDOCK:   -0.06 KCAL/MOL
REMARK 927      BINDING AFFINITY PREDICTED BY RF-SCORE:    0.00 PKD
ROOT
HETATM    1  N   UNL     1     -13.908  15.467  70.756  1.00  0.00    -0.865 NA 
HETATM    2  C   UNL     1     -12.824  14.683  71.367  1.00  0.00    -0.330 C  
HETATM    3  H2  UNL     1     -14.648  14.858  70.407  1.00  0.00     0.000 HD 
HETATM    4  H1  UNL     1     -14.285  16.175  71.386  1.00  0.00     0.000 HD 
ENDROOT
BRANCH   2   5
HETATM    5  C   UNL     1     -12.255  13.615  70.416  1.00  0.00    -0.434 C  
BRANCH   5   6
HETATM    6  C   UNL     1     -12.454  12.213  70.892  1.00  0.00    -0.279 A  
HETATM    7  C   UNL     1     -11.916  11.011  70.487  1.00  0.00    -0.474 A  
HETATM    8  C   UNL     1     -12.487  10.053  71.346  1.00  0.00    -0.411 A  
HETATM    9  N   UNL     1     -13.323  10.597  72.232  1.00  0.00    -0.581 NA 
HETATM   10  N   UNL     1     -13.282  11.909  71.942  1.00  0.00    -0.449 NA 
HETATM   11  H   UNL     1     -13.865  10.128  72.959  1.00  0.00     0.000 HD 
ENDBRANCH   5   6
ENDBRANCH   2   5
TORSDOF 2
ENDMDL
MODEL       35
REMARK 921   NORMALIZED FREE ENERGY PREDICTED BY IDOCK:   -3.19 KCAL/MOL
REMARK 922        TOTAL FREE ENERGY PREDICTED BY IDOCK:   -3.84 KCAL/MOL
REMARK 923 INTER-LIGAND FREE ENERGY PREDICTED BY IDOCK:   -3.55 KCAL/MOL
REMARK 924 INTRA-LIGAND FREE ENERGY PREDICTED BY IDOCK:   -0.29 KCAL/MOL
REMARK 927      BINDING AFFINITY PREDICTED BY RF-SCORE:    0.00 PKD
ROOT
HETATM    1  N   UNL     1     -12.044   7.020  70.133  1.00  0.00    -0.623 NA 
HETATM    2  C   UNL     1     -11.945   6.725  71.571  1.00  0.00    -0.350 C  
HETATM    3  H2  UNL     1     -11.205   7.494  69.799  1.00  0.00     0.000 HD 
HETATM    4  H1  UNL     1     -12.243   6.191  69.575  1.00  0.00     0.000 HD 
ENDROOT
BRANCH   2   5
HETATM    5  C   UNL     1     -11.644   7.977  72.415  1.00  0.00    -0.450 C  
BRANCH   5   6
HETATM    6  C   UNL     1     -11.795   9.262  71.668  1.00  0.00    -0.383 A  
HETATM    7  C   UNL     1     -12.778  10.226  71.672  1.00  0.00    -0.561 A  
HETATM    8  C   UNL     1     -12.327  11.205  70.767  1.00  0.00    -0.406 A  
HETATM    9  N   UNL     1     -11.147  10.894  70.227  1.00  0.00    -0.467 NA 
HETATM   10  N   UNL     1     -10.841   9.714  70.794  1.00  0.00    -0.307 NA 
HETATM   11  H   UNL     1     -10.604  11.426  69.546  1.00  0.00     0.000 HD 
ENDBRANCH   5   6
ENDBRANCH   2   5
TORSDOF 2
ENDMDL
MODEL       36
REMARK 921   NORMALIZED FREE ENERGY PREDICTED BY IDOCK:   -3.13 KCAL/MOL
REMARK 922        TOTAL FREE ENERGY PREDICTED BY IDOCK:   -3.77 KCAL/MOL
REMARK 923 INTER-LIGAND FREE ENERGY PREDICTED BY IDOCK:   -3.58 KCAL/MOL
REMARK 924 INTRA-LIGAND FREE ENERGY PREDICTED BY IDOCK:   -0.19 KCAL/MOL
REMARK 927      BINDING AFFINITY PREDICTED BY RF-SCORE:    0.00 PKD
ROOT
HETATM    1  N   UNL     1     -12.538  14.440  69.686  1.00  0.00    -0.538 NA 
HETATM    2  C   UNL     1     -12.029  13.123  69.274  1.00  0.00    -0.292 C  
HETATM    3  H2  UNL     1     -12.935  14.943  68.892  1.00  0.00     0.000 HD 
HETATM    4  H1  UNL     1     -13.206  14.382  70.453  1.00  0.00     0.000 HD 
ENDROOT
BRANCH   2   5
HETATM    5  C   UNL     1     -11.019  13.211  68.116  1.00  0.00    -0.275 C  
BRANCH   5   6
HETATM    6  C   UNL     1     -11.646  13.157  66.761  1.00  0.00    -0.366 A  
HETATM    7  C   UNL     1     -11.572  12.234  65.742  1.00  0.00    -0.443 A  
HETATM    8  C   UNL     1     -12.408  12.745  64.731  1.00  0.00    -0.478 A  
HETATM    9  N   UNL     1     -12.975  13.903  65.076  1.00  0.00    -0.752 NA 
HETATM   10  N   UNL     1     -12.502  14.130  66.314  1.00  0.00    -0.439 NA 
HETATM   11  H   UNL     1     -13.615  14.480  64.529  1.00  0.00     0.000 HD 
ENDBRANCH   5   6
ENDBRANCH   2   5
TORSDOF 2
ENDMDL
MODEL       37
REMARK 921   NORMALIZED FREE ENERGY PREDICTED BY IDOCK:   -3.12 KCAL/MOL
REMARK 922        TOTAL FREE ENERGY PREDICTED BY IDOCK:   -3.76 KCAL/MOL
REMARK 923 INTER-LIGAND FREE ENERGY PREDICTED BY IDOCK:   -3.73 KCAL/MOL
REMARK 924 INTRA-LIGAND FREE ENERGY PREDICTED BY IDOCK:   -0.03 KCAL/MOL
REMARK 927      BINDING AFFINITY PREDICTED BY RF-SCORE:    0.00 PKD
ROOT
HETATM    1  N   UNL     1     -13.290   9.921  70.696  1.00  0.00    -0.612 NA 
HETATM    2  C   UNL     1     -13.026  11.051  71.600  1.00  0.00    -0.456 C  
HETATM    3  H2  UNL     1     -12.452   9.670  70.171  1.00  0.00     0.000 HD 
HETATM    4  H1  UNL     1     -13.673   9.110  71.182  1.00  0.00     0.000 HD 
ENDROOT
BRANCH   2   5
HETATM    5  C   UNL     1     -12.448  12.275  70.867  1.00  0.00    -0.371 C  
BRANCH   5   6
HETATM    6  C   UNL     1     -12.848  13.584  71.465  1.00  0.00    -0.352 A  
HETATM    7  C   UNL     1     -13.990  13.995  72.116  1.00  0.00    -0.633 A  
HETATM    8  C   UNL     1     -13.747  15.339  72.457  1.00  0.00    -0.526 A  
HETATM    9  N   UNL     1     -12.543  15.756  72.058  1.00  0.00    -0.430 NA 
HETATM   10  N   UNL     1     -12.014  14.672  71.465  1.00  0.00    -0.351 NA 
HETATM   11  H   UNL     1     -12.124  16.679  72.176  1.00  0.00     0.000 HD 
ENDBRANCH   5   6
ENDBRANCH   2   5
TORSDOF 2
ENDMDL
MODEL       38
REMARK 921   NORMALIZED FREE ENERGY PREDICTED BY IDOCK:   -3.10 KCAL/MOL
REMARK 922        TOTAL FREE ENERGY PREDICTED BY IDOCK:   -3.74 KCAL/MOL
REMARK 923 INTER-LIGAND FREE ENERGY PREDICTED BY IDOCK:   -3.45 KCAL/MOL
REMARK 924 INTRA-LIGAND FREE ENERGY PREDICTED BY IDOCK:   -0.29 KCAL/MOL
REMARK 927      BINDING AFFINITY PREDICTED BY RF-SCORE:    0.00 PKD
ROOT
HETATM    1  N   UNL     1     -11.960   6.822  69.866  1.00  0.00    -0.659 NA 
HETATM    2  C   UNL     1     -10.653   6.841  70.541  1.00  0.00    -0.225 C  
HETATM    3  H2  UNL     1     -12.042   7.596  69.205  1.00  0.00     0.000 HD 
HETATM    4  H1  UNL     1     -12.155   5.931  69.411  1.00  0.00     0.000 HD 
ENDROOT
BRANCH   2   5
HETATM    5  C   UNL     1     -10.359   8.187  71.227  1.00  0.00    -0.243 C  
BRANCH   5   6
HETATM    6  C   UNL     1     -11.581   8.977  71.562  1.00  0.00    -0.343 A  
HETATM    7  C   UNL     1     -12.034  10.208  71.140  1.00  0.00    -0.480 A  
HETATM    8  C   UNL     1     -13.263  10.386  71.804  1.00  0.00    -0.424 A  
HETATM    9  N   UNL     1     -13.575   9.351  72.586  1.00  0.00    -0.699 NA 
HETATM   10  N   UNL     1     -12.544   8.506  72.418  1.00  0.00    -0.377 NA 
HETATM   11  H   UNL     1     -14.401   9.230  73.172  1.00  0.00     0.000 HD 
ENDBRANCH   5   6
ENDBRANCH   2   5
TORSDOF 2
ENDMDL
MODEL       39
REMARK 921   NORMALIZED FREE ENERGY PREDICTED BY IDOCK:   -3.09 KCAL/MOL
REMARK 922        TOTAL FREE ENERGY PREDICTED BY IDOCK:   -3.73 KCAL/MOL
REMARK 923 INTER-LIGAND FREE ENERGY PREDICTED BY IDOCK:   -3.70 KCAL/MOL
REMARK 924 INTRA-LIGAND FREE ENERGY PREDICTED BY IDOCK:   -0.03 KCAL/MOL
REMARK 927      BINDING AFFINITY PREDICTED BY RF-SCORE:    0.00 PKD
ROOT
HETATM    1  N   UNL     1     -14.077   8.899  73.087  1.00  0.00    -1.225 NA 
HETATM    2  C   UNL     1     -13.329   9.806  72.204  1.00  0.00    -0.431 C  
HETATM    3  H2  UNL     1     -13.458   8.458  73.768  1.00  0.00     0.000 HD 
HETATM    4  H1  UNL     1     -14.862   9.358  73.549  1.00  0.00     0.000 HD 
ENDROOT
BRANCH   2   5
HETATM    5  C   UNL     1     -12.145   9.114  71.506  1.00  0.00    -0.422 C  
BRANCH   5   6
HETATM    6  C   UNL     1     -11.445   9.972  70.504  1.00  0.00    -0.330 A  
HETATM    7  C   UNL     1     -11.885  10.993  69.690  1.00  0.00    -0.414 A  
HETATM    8  C   UNL     1     -10.738  11.415  68.990  1.00  0.00    -0.205 A  
HETATM    9  N   UNL     1      -9.650  10.723  69.331  1.00  0.00    -0.410 NA 
HETATM   10  N   UNL     1     -10.102   9.858  70.255  1.00  0.00    -0.266 NA 
HETATM   11  H   UNL     1      -8.699  10.826  68.975  1.00  0.00     0.000 HD 
ENDBRANCH   5   6
ENDBRANCH   2   5
TORSDOF 2
ENDMDL
MODEL       40
REMARK 921   NORMALIZED FREE ENERGY PREDICTED BY IDOCK:   -3.05 KCAL/MOL
REMARK 922        TOTAL FREE ENERGY PREDICTED BY IDOCK:   -3.68 KCAL/MOL
REMARK 923 INTER-LIGAND FREE ENERGY PREDICTED BY IDOCK:   -3.41 KCAL/MOL
REMARK 924 INTRA-LIGAND FREE ENERGY PREDICTED BY IDOCK:   -0.27 KCAL/MOL
REMARK 927      BINDING AFFINITY PREDICTED BY RF-SCORE:    0.00 PKD
ROOT
HETATM    1  N   UNL     1     -11.535   6.670  69.040  1.00  0.00    -0.615 NA 
HETATM    2  C   UNL     1     -10.959   5.844  70.113  1.00  0.00    -0.342 C  
HETATM    3  H2  UNL     1     -11.240   7.642  69.129  1.00  0.00     0.000 HD 
HETATM    4  H1  UNL     1     -11.326   6.308  68.110  1.00  0.00     0.000 HD 
ENDROOT
BRANCH   2   5
HETATM    5  C   UNL     1     -11.274   6.390  71.517  1.00  0.00    -0.334 C  
BRANCH   5   6
HETATM    6  C   UNL     1     -12.276   7.497  71.526  1.00  0.00    -0.331 A  
HETATM    7  C   UNL     1     -12.154   8.856  71.715  1.00  0.00    -0.432 A  
HETATM    8  C   UNL     1     -13.463   9.357  71.584  1.00  0.00    -0.394 A  
HETATM    9  N   UNL     1     -14.353   8.397  71.328  1.00  0.00    -0.644 NA 
HETATM   10  N   UNL     1     -13.609   7.278  71.291  1.00  0.00    -0.318 NA 
HETATM   11  H   UNL     1     -15.360   8.489  71.192  1.00  0.00     0.000 HD 
ENDBRANCH   5   6
ENDBRANCH   2   5
TORSDOF 2
ENDMDL
MODEL       41
REMARK 921   NORMALIZED FREE ENERGY PREDICTED BY IDOCK:   -3.03 KCAL/MOL
REMARK 922        TOTAL FREE ENERGY PREDICTED BY IDOCK:   -3.66 KCAL/MOL
REMARK 923 INTER-LIGAND FREE ENERGY PREDICTED BY IDOCK:   -3.37 KCAL/MOL
REMARK 924 INTRA-LIGAND FREE ENERGY PREDICTED BY IDOCK:   -0.29 KCAL/MOL
REMARK 927      BINDING AFFINITY PREDICTED BY RF-SCORE:    0.00 PKD
ROOT
HETATM    1  N   UNL     1     -10.739  14.183  69.334  1.00  0.00    -0.420 NA 
HETATM    2  C   UNL     1     -11.233  14.916  68.158  1.00  0.00    -0.299 C  
HETATM    3  H2  UNL     1     -10.151  13.397  69.055  1.00  0.00     0.000 HD 
HETATM    4  H1  UNL     1     -10.254  14.785  69.998  1.00  0.00     0.000 HD 
ENDROOT
BRANCH   2   5
HETATM    5  C   UNL     1     -11.965  14.007  67.155  1.00  0.00    -0.465 C  
BRANCH   5   6
HETATM    6  C   UNL     1     -11.542  12.576  67.213  1.00  0.00    -0.367 A  
HETATM    7  C   UNL     1     -10.565  11.870  66.547  1.00  0.00    -0.278 A  
HETATM    8  C   UNL     1     -10.652  10.562  67.060  1.00  0.00    -0.253 A  
HETATM    9  N   UNL     1     -11.607  10.439  67.984  1.00  0.00    -0.712 NA 
HETATM   10  N   UNL     1     -12.129  11.675  68.064  1.00  0.00    -0.572 NA 
HETATM   11  H   UNL     1     -11.877   9.605  68.505  1.00  0.00     0.000 HD 
ENDBRANCH   5   6
ENDBRANCH   2   5
TORSDOF 2
ENDMDL
MODEL       42
REMARK 921   NORMALIZED FREE ENERGY PREDICTED BY IDOCK:   -3.01 KCAL/MOL
REMARK 922        TOTAL FREE ENERGY PREDICTED BY IDOCK:   -3.63 KCAL/MOL
REMARK 923 INTER-LIGAND FREE ENERGY PREDICTED BY IDOCK:   -3.60 KCAL/MOL
REMARK 924 INTRA-LIGAND FREE ENERGY PREDICTED BY IDOCK:   -0.03 KCAL/MOL
REMARK 927      BINDING AFFINITY PREDICTED BY RF-SCORE:    0.00 PKD
ROOT
HETATM    1  N   UNL     1      -9.485  12.099  68.928  1.00  0.00    -0.406 NA 
HETATM    2  C   UNL     1     -10.543  12.993  68.431  1.00  0.00    -0.251 C  
HETATM    3  H2  UNL     1      -9.001  11.641  68.155  1.00  0.00     0.000 HD 
HETATM    4  H1  UNL     1      -8.825  12.574  69.542  1.00  0.00     0.000 HD 
ENDROOT
BRANCH   2   5
HETATM    5  C   UNL     1     -11.539  12.276  67.503  1.00  0.00    -0.422 C  
BRANCH   5   6
HETATM    6  C   UNL     1     -11.899  13.056  66.281  1.00  0.00    -0.408 A  
HETATM    7  C   UNL     1     -11.743  14.383  65.950  1.00  0.00    -0.371 A  
HETATM    8  C   UNL     1     -12.265  14.493  64.647  1.00  0.00    -0.460 A  
HETATM    9  N   UNL     1     -12.716  13.328  64.179  1.00  0.00    -0.658 NA 
HETATM   10  N   UNL     1     -12.478  12.470  65.185  1.00  0.00    -0.628 NA 
HETATM   11  H   UNL     1     -13.142  13.135  63.272  1.00  0.00     0.000 HD 
ENDBRANCH   5   6
ENDBRANCH   2   5
TORSDOF 2
ENDMDL
MODEL       43
REMARK 921   NORMALIZED FREE ENERGY PREDICTED BY IDOCK:   -2.99 KCAL/MOL
REMARK 922        TOTAL FREE ENERGY PREDICTED BY IDOCK:   -3.61 KCAL/MOL
REMARK 923 INTER-LIGAND FREE ENERGY PREDICTED BY IDOCK:   -3.34 KCAL/MOL
REMARK 924 INTRA-LIGAND FREE ENERGY PREDICTED BY IDOCK:   -0.28 KCAL/MOL
REMARK 927      BINDING AFFINITY PREDICTED BY RF-SCORE:    0.00 PKD
ROOT
HETATM    1  N   UNL     1      -7.190  18.524  68.860  1.00  0.00    -0.292 NA 
HETATM    2  C   UNL     1      -6.769  19.893  68.526  1.00  0.00    -0.303 C  
HETATM    3  H2  UNL     1      -6.909  17.867  68.132  1.00  0.00     0.000 HD 
HETATM    4  H1  UNL     1      -6.857  18.221  69.774  1.00  0.00     0.000 HD 
ENDROOT
BRANCH   2   5
HETATM    5  C   UNL     1      -7.272  20.350  67.145  1.00  0.00    -0.347 C  
BRANCH   5   6
HETATM    6  C   UNL     1      -8.639  19.853  66.804  1.00  0.00    -0.337 A  
HETATM    7  C   UNL     1      -9.897  20.355  67.051  1.00  0.00    -0.594 A  
HETATM    8  C   UNL     1     -10.777  19.433  66.453  1.00  0.00    -0.412 A  
HETATM    9  N   UNL     1     -10.135  18.422  65.866  1.00  0.00    -0.569 NA 
HETATM   10  N   UNL     1      -8.838  18.701  66.086  1.00  0.00    -0.484 NA 
HETATM   11  H   UNL     1     -10.533  17.626  65.368  1.00  0.00     0.000 HD 
ENDBRANCH   5   6
ENDBRANCH   2   5
TORSDOF 2
ENDMDL
MODEL       44
REMARK 921   NORMALIZED FREE ENERGY PREDICTED BY IDOCK:   -2.99 KCAL/MOL
REMARK 922        TOTAL FREE ENERGY PREDICTED BY IDOCK:   -3.61 KCAL/MOL
REMARK 923 INTER-LIGAND FREE ENERGY PREDICTED BY IDOCK:   -3.38 KCAL/MOL
REMARK 924 INTRA-LIGAND FREE ENERGY PREDICTED BY IDOCK:   -0.23 KCAL/MOL
REMARK 927      BINDING AFFINITY PREDICTED BY RF-SCORE:    0.00 PKD
ROOT
HETATM    1  N   UNL     1      -9.240  13.593  68.751  1.00  0.00    -0.396 NA 
HETATM    2  C   UNL     1     -10.178  14.708  68.544  1.00  0.00    -0.240 C  
HETATM    3  H2  UNL     1      -9.427  12.832  68.098  1.00  0.00     0.000 HD 
HETATM    4  H1  UNL     1      -8.264  13.886  68.702  1.00  0.00     0.000 HD 
ENDROOT
BRANCH   2   5
HETATM    5  C   UNL     1     -11.650  14.267  68.618  1.00  0.00    -0.352 C  
BRANCH   5   6
HETATM    6  C   UNL     1     -11.835  12.833  68.995  1.00  0.00    -0.297 A  
HETATM    7  C   UNL     1     -12.041  12.213  70.207  1.00  0.00    -0.385 A  
HETATM    8  C   UNL     1     -12.160  10.845  69.897  1.00  0.00    -0.354 A  
HETATM    9  N   UNL     1     -12.044  10.607  68.589  1.00  0.00    -0.812 NA 
HETATM   10  N   UNL     1     -11.854  11.829  68.061  1.00  0.00    -0.546 NA 
HETATM   11  H   UNL     1     -12.089   9.711  68.104  1.00  0.00     0.000 HD 
ENDBRANCH   5   6
ENDBRANCH   2   5
TORSDOF 2
ENDMDL
MODEL       45
REMARK 921   NORMALIZED FREE ENERGY PREDICTED BY IDOCK:   -2.98 KCAL/MOL
REMARK 922        TOTAL FREE ENERGY PREDICTED BY IDOCK:   -3.60 KCAL/MOL
REMARK 923 INTER-LIGAND FREE ENERGY PREDICTED BY IDOCK:   -3.55 KCAL/MOL
REMARK 924 INTRA-LIGAND FREE ENERGY PREDICTED BY IDOCK:   -0.05 KCAL/MOL
REMARK 927      BINDING AFFINITY PREDICTED BY RF-SCORE:    0.00 PKD
ROOT
HETATM    1  N   UNL     1      -9.816   8.578  65.890  1.00  0.00    -0.463 NA 
HETATM    2  C   UNL     1     -10.501   9.579  66.721  1.00  0.00    -0.193 C  
HETATM    3  H2  UNL     1      -8.805   8.714  65.913  1.00  0.00     0.000 HD 
HETATM    4  H1  UNL     1     -10.062   7.621  66.142  1.00  0.00     0.000 HD 
ENDROOT
BRANCH   2   5
HETATM    5  C   UNL     1     -10.130  11.023  66.340  1.00  0.00    -0.275 C  
BRANCH   5   6
HETATM    6  C   UNL     1     -11.035  11.633  65.321  1.00  0.00    -0.268 A  
HETATM    7  C   UNL     1     -11.086  11.535  63.948  1.00  0.00    -0.458 A  
HETATM    8  C   UNL     1     -12.183  12.331  63.570  1.00  0.00    -0.568 A  
HETATM    9  N   UNL     1     -12.790  12.893  64.617  1.00  0.00    -0.740 NA 
HETATM   10  N   UNL     1     -12.081  12.450  65.669  1.00  0.00    -0.584 NA 
HETATM   11  H   UNL     1     -13.602  13.512  64.619  1.00  0.00     0.000 HD 
ENDBRANCH   5   6
ENDBRANCH   2   5
TORSDOF 2
ENDMDL
MODEL       46
REMARK 921   NORMALIZED FREE ENERGY PREDICTED BY IDOCK:   -2.98 KCAL/MOL
REMARK 922        TOTAL FREE ENERGY PREDICTED BY IDOCK:   -3.60 KCAL/MOL
REMARK 923 INTER-LIGAND FREE ENERGY PREDICTED BY IDOCK:   -3.42 KCAL/MOL
REMARK 924 INTRA-LIGAND FREE ENERGY PREDICTED BY IDOCK:   -0.18 KCAL/MOL
REMARK 927      BINDING AFFINITY PREDICTED BY RF-SCORE:    0.00 PKD
ROOT
HETATM    1  N   UNL     1     -13.892   8.822  73.016  1.00  0.00    -1.065 NA 
HETATM    2  C   UNL     1     -13.317   9.625  71.927  1.00  0.00    -0.438 C  
HETATM    3  H2  UNL     1     -13.412   9.003  73.898  1.00  0.00     0.000 HD 
HETATM    4  H1  UNL     1     -14.898   8.954  73.114  1.00  0.00     0.000 HD 
ENDROOT
BRANCH   2   5
HETATM    5  C   UNL     1     -11.798   9.425  71.779  1.00  0.00    -0.452 C  
BRANCH   5   6
HETATM    6  C   UNL     1     -11.419   8.381  70.780  1.00  0.00    -0.255 A  
HETATM    7  C   UNL     1     -10.562   8.398  69.702  1.00  0.00    -0.219 A  
HETATM    8  C   UNL     1     -10.624   7.095  69.172  1.00  0.00    -0.214 A  
HETATM    9  N   UNL     1     -11.452   6.305  69.857  1.00  0.00    -0.436 NA 
HETATM   10  N   UNL     1     -11.918   7.105  70.832  1.00  0.00    -0.338 NA 
HETATM   11  H   UNL     1     -11.678   5.325  69.683  1.00  0.00     0.000 HD 
ENDBRANCH   5   6
ENDBRANCH   2   5
TORSDOF 2
ENDMDL
MODEL       47
REMARK 921   NORMALIZED FREE ENERGY PREDICTED BY IDOCK:   -2.97 KCAL/MOL
REMARK 922        TOTAL FREE ENERGY PREDICTED BY IDOCK:   -3.60 KCAL/MOL
REMARK 923 INTER-LIGAND FREE ENERGY PREDICTED BY IDOCK:   -3.37 KCAL/MOL
REMARK 924 INTRA-LIGAND FREE ENERGY PREDICTED BY IDOCK:   -0.23 KCAL/MOL
REMARK 927      BINDING AFFINITY PREDICTED BY RF-SCORE:    0.00 PKD
ROOT
HETATM    1  N   UNL     1     -11.877   9.858  69.494  1.00  0.00    -0.458 NA 
HETATM    2  C   UNL     1     -10.715   9.817  70.395  1.00  0.00    -0.308 C  
HETATM    3  H2  UNL     1     -12.741  10.005  70.017  1.00  0.00     0.000 HD 
HETATM    4  H1  UNL     1     -11.776  10.551  68.753  1.00  0.00     0.000 HD 
ENDROOT
BRANCH   2   5
HETATM    5  C   UNL     1     -10.868   8.771  71.514  1.00  0.00    -0.374 C  
BRANCH   5   6
HETATM    6  C   UNL     1     -12.280   8.350  71.761  1.00  0.00    -0.330 A  
HETATM    7  C   UNL     1     -12.972   7.200  71.454  1.00  0.00    -0.419 A  
HETATM    8  C   UNL     1     -14.263   7.406  71.975  1.00  0.00    -0.241 A  
HETATM    9  N   UNL     1     -14.389   8.593  72.571  1.00  0.00    -0.795 NA 
HETATM   10  N   UNL     1     -13.171   9.145  72.435  1.00  0.00    -0.445 NA 
HETATM   11  H   UNL     1     -15.214   8.988  73.024  1.00  0.00     0.000 HD 
ENDBRANCH   5   6
ENDBRANCH   2   5
TORSDOF 2
ENDMDL
MODEL       48
REMARK 921   NORMALIZED FREE ENERGY PREDICTED BY IDOCK:   -2.97 KCAL/MOL
REMARK 922        TOTAL FREE ENERGY PREDICTED BY IDOCK:   -3.59 KCAL/MOL
REMARK 923 INTER-LIGAND FREE ENERGY PREDICTED BY IDOCK:   -3.52 KCAL/MOL
REMARK 924 INTRA-LIGAND FREE ENERGY PREDICTED BY IDOCK:   -0.07 KCAL/MOL
REMARK 927      BINDING AFFINITY PREDICTED BY RF-SCORE:    0.00 PKD
ROOT
HETATM    1  N   UNL     1     -12.404  14.761  67.691  1.00  0.00    -0.491 NA 
HETATM    2  C   UNL     1     -11.597  15.536  68.646  1.00  0.00    -0.368 C  
HETATM    3  H2  UNL     1     -13.251  14.404  68.134  1.00  0.00     0.000 HD 
HETATM    4  H1  UNL     1     -12.627  15.287  66.847  1.00  0.00     0.000 HD 
ENDROOT
BRANCH   2   5
HETATM    5  C   UNL     1     -11.260  14.742  69.921  1.00  0.00    -0.293 C  
BRANCH   5   6
HETATM    6  C   UNL     1     -12.423  14.547  70.838  1.00  0.00    -0.345 A  
HETATM    7  C   UNL     1     -13.444  15.382  71.231  1.00  0.00    -0.598 A  
HETATM    8  C   UNL     1     -14.238  14.602  72.093  1.00  0.00    -0.518 A  
HETATM    9  N   UNL     1     -13.764  13.363  72.239  1.00  0.00    -0.582 NA 
HETATM   10  N   UNL     1     -12.667  13.351  71.463  1.00  0.00    -0.325 NA 
HETATM   11  H   UNL     1     -14.146  12.604  72.805  1.00  0.00     0.000 HD 
ENDBRANCH   5   6
ENDBRANCH   2   5
TORSDOF 2
ENDMDL
MODEL       49
REMARK 921   NORMALIZED FREE ENERGY PREDICTED BY IDOCK:   -2.97 KCAL/MOL
REMARK 922        TOTAL FREE ENERGY PREDICTED BY IDOCK:   -3.59 KCAL/MOL
REMARK 923 INTER-LIGAND FREE ENERGY PREDICTED BY IDOCK:   -3.56 KCAL/MOL
REMARK 924 INTRA-LIGAND FREE ENERGY PREDICTED BY IDOCK:   -0.02 KCAL/MOL
REMARK 927      BINDING AFFINITY PREDICTED BY RF-SCORE:    0.00 PKD
ROOT
HETATM    1  N   UNL     1     -13.398   9.002  71.443  1.00  0.00    -0.477 NA 
HETATM    2  C   UNL     1     -12.890  10.376  71.300  1.00  0.00    -0.433 C  
HETATM    3  H2  UNL     1     -12.651   8.363  71.717  1.00  0.00     0.000 HD 
HETATM    4  H1  UNL     1     -14.187   8.940  72.086  1.00  0.00     0.000 HD 
ENDROOT
BRANCH   2   5
HETATM    5  C   UNL     1     -11.699  10.471  70.331  1.00  0.00    -0.434 C  
BRANCH   5   6
HETATM    6  C   UNL     1     -11.806  11.589  69.347  1.00  0.00    -0.350 A  
HETATM    7  C   UNL     1     -11.718  12.957  69.484  1.00  0.00    -0.387 A  
HETATM    8  C   UNL     1     -11.885  13.462  68.180  1.00  0.00    -0.361 A  
HETATM    9  N   UNL     1     -12.062  12.495  67.278  1.00  0.00    -0.480 NA 
HETATM   10  N   UNL     1     -12.004  11.367  68.008  1.00  0.00    -0.640 NA 
HETATM   11  H   UNL     1     -12.207  12.589  66.273  1.00  0.00     0.000 HD 
ENDBRANCH   5   6
ENDBRANCH   2   5
TORSDOF 2
ENDMDL
MODEL       50
REMARK 921   NORMALIZED FREE ENERGY PREDICTED BY IDOCK:   -2.95 KCAL/MOL
REMARK 922        TOTAL FREE ENERGY PREDICTED BY IDOCK:   -3.58 KCAL/MOL
REMARK 923 INTER-LIGAND FREE ENERGY PREDICTED BY IDOCK:   -3.33 KCAL/MOL
REMARK 924 INTRA-LIGAND FREE ENERGY PREDICTED BY IDOCK:   -0.25 KCAL/MOL
REMARK 927      BINDING AFFINITY PREDICTED BY RF-SCORE:    0.00 PKD
ROOT
HETATM    1  N   UNL     1      -8.676  11.884  66.141  1.00  0.00    -0.387 NA 
HETATM    2  C   UNL     1      -9.098  13.194  66.658  1.00  0.00    -0.173 C  
HETATM    3  H2  UNL     1      -9.003  11.746  65.184  1.00  0.00     0.000 HD 
HETATM    4  H1  UNL     1      -7.669  11.740  66.208  1.00  0.00     0.000 HD 
ENDROOT
BRANCH   2   5
HETATM    5  C   UNL     1     -10.619  13.411  66.557  1.00  0.00    -0.287 C  
BRANCH   5   6
HETATM    6  C   UNL     1     -11.211  12.959  65.262  1.00  0.00    -0.288 A  
HETATM    7  C   UNL     1     -12.475  12.533  64.919  1.00  0.00    -0.524 A  
HETATM    8  C   UNL     1     -12.404  12.270  63.538  1.00  0.00    -0.565 A  
HETATM    9  N   UNL     1     -11.192  12.511  63.035  1.00  0.00    -0.682 NA 
HETATM   10  N   UNL     1     -10.487  12.934  64.098  1.00  0.00    -0.420 NA 
HETATM   11  H   UNL     1     -10.875  12.400  62.071  1.00  0.00     0.000 HD 
ENDBRANCH   5   6
ENDBRANCH   2   5
TORSDOF 2
ENDMDL
MODEL       51
REMARK 921   NORMALIZED FREE ENERGY PREDICTED BY IDOCK:   -2.94 KCAL/MOL
REMARK 922        TOTAL FREE ENERGY PREDICTED BY IDOCK:   -3.55 KCAL/MOL
REMARK 923 INTER-LIGAND FREE ENERGY PREDICTED BY IDOCK:   -3.26 KCAL/MOL
REMARK 924 INTRA-LIGAND FREE ENERGY PREDICTED BY IDOCK:   -0.29 KCAL/MOL
REMARK 927      BINDING AFFINITY PREDICTED BY RF-SCORE:    0.00 PKD
ROOT
HETATM    1  N   UNL     1     -10.166  11.935  67.498  1.00  0.00    -0.195 NA 
HETATM    2  C   UNL     1     -10.318  10.709  66.699  1.00  0.00    -0.241 C  
HETATM    3  H2  UNL     1     -10.990  12.530  67.414  1.00  0.00     0.000 HD 
HETATM    4  H1  UNL     1      -9.951  11.743  68.475  1.00  0.00     0.000 HD 
ENDROOT
BRANCH   2   5
HETATM    5  C   UNL     1     -10.643  10.998  65.222  1.00  0.00    -0.283 C  
BRANCH   5   6
HETATM    6  C   UNL     1     -11.324  12.308  64.997  1.00  0.00    -0.328 A  
HETATM    7  C   UNL     1     -11.042  13.369  64.166  1.00  0.00    -0.353 A  
HETATM    8  C   UNL     1     -12.075  14.297  64.402  1.00  0.00    -0.468 A  
HETATM    9  N   UNL     1     -12.951  13.863  65.310  1.00  0.00    -0.774 NA 
HETATM   10  N   UNL     1     -12.479  12.652  65.652  1.00  0.00    -0.620 NA 
HETATM   11  H   UNL     1     -13.783  14.338  65.662  1.00  0.00     0.000 HD 
ENDBRANCH   5   6
ENDBRANCH   2   5
TORSDOF 2
ENDMDL
MODEL       52
REMARK 921   NORMALIZED FREE ENERGY PREDICTED BY IDOCK:   -2.91 KCAL/MOL
REMARK 922        TOTAL FREE ENERGY PREDICTED BY IDOCK:   -3.52 KCAL/MOL
REMARK 923 INTER-LIGAND FREE ENERGY PREDICTED BY IDOCK:   -3.24 KCAL/MOL
REMARK 924 INTRA-LIGAND FREE ENERGY PREDICTED BY IDOCK:   -0.28 KCAL/MOL
REMARK 927      BINDING AFFINITY PREDICTED BY RF-SCORE:    0.00 PKD
ROOT
HETATM    1  N   UNL     1     -13.356  15.208  70.429  1.00  0.00    -0.675 NA 
HETATM    2  C   UNL     1     -11.962  15.677  70.416  1.00  0.00    -0.376 C  
HETATM    3  H2  UNL     1     -13.437  14.289  69.991  1.00  0.00     0.000 HD 
HETATM    4  H1  UNL     1     -13.761  15.204  71.364  1.00  0.00     0.000 HD 
ENDROOT
BRANCH   2   5
HETATM    5  C   UNL     1     -11.350  15.683  69.004  1.00  0.00    -0.332 C  
BRANCH   5   6
HETATM    6  C   UNL     1     -11.669  14.465  68.200  1.00  0.00    -0.342 A  
HETATM    7  C   UNL     1     -11.939  14.281  66.862  1.00  0.00    -0.467 A  
HETATM    8  C   UNL     1     -12.137  12.895  66.721  1.00  0.00    -0.265 A  
HETATM    9  N   UNL     1     -12.002  12.241  67.876  1.00  0.00    -0.480 NA 
HETATM   10  N   UNL     1     -11.712  13.213  68.758  1.00  0.00    -0.304 NA 
HETATM   11  H   UNL     1     -12.096  11.240  68.049  1.00  0.00     0.000 HD 
ENDBRANCH   5   6
ENDBRANCH   2   5
TORSDOF 2
ENDMDL
MODEL       53
REMARK 921   NORMALIZED FREE ENERGY PREDICTED BY IDOCK:   -2.90 KCAL/MOL
REMARK 922        TOTAL FREE ENERGY PREDICTED BY IDOCK:   -3.52 KCAL/MOL
REMARK 923 INTER-LIGAND FREE ENERGY PREDICTED BY IDOCK:   -3.27 KCAL/MOL
REMARK 924 INTRA-LIGAND FREE ENERGY PREDICTED BY IDOCK:   -0.25 KCAL/MOL
REMARK 927      BINDING AFFINITY PREDICTED BY RF-SCORE:    0.00 PKD
ROOT
HETATM    1  N   UNL     1     -10.701  14.247  69.094  1.00  0.00    -0.311 NA 
HETATM    2  C   UNL     1     -11.868  13.395  68.815  1.00  0.00    -0.351 C  
HETATM    3  H2  UNL     1     -10.480  14.837  68.292  1.00  0.00     0.000 HD 
HETATM    4  H1  UNL     1     -10.815  14.806  69.939  1.00  0.00     0.000 HD 
ENDROOT
BRANCH   2   5
HETATM    5  C   UNL     1     -11.696  12.551  67.539  1.00  0.00    -0.439 C  
BRANCH   5   6
HETATM    6  C   UNL     1     -11.768  13.343  66.275  1.00  0.00    -0.366 A  
HETATM    7  C   UNL     1     -12.654  13.327  65.220  1.00  0.00    -0.528 A  
HETATM    8  C   UNL     1     -12.191  14.328  64.345  1.00  0.00    -0.447 A  
HETATM    9  N   UNL     1     -11.098  14.940  64.804  1.00  0.00    -0.532 NA 
HETATM   10  N   UNL     1     -10.864  14.330  65.979  1.00  0.00    -0.298 NA 
HETATM   11  H   UNL     1     -10.565  15.692  64.367  1.00  0.00     0.000 HD 
ENDBRANCH   5   6
ENDBRANCH   2   5
TORSDOF 2
ENDMDL
MODEL       54
REMARK 921   NORMALIZED FREE ENERGY PREDICTED BY IDOCK:   -2.89 KCAL/MOL
REMARK 922        TOTAL FREE ENERGY PREDICTED BY IDOCK:   -3.51 KCAL/MOL
REMARK 923 INTER-LIGAND FREE ENERGY PREDICTED BY IDOCK:   -3.45 KCAL/MOL
REMARK 924 INTRA-LIGAND FREE ENERGY PREDICTED BY IDOCK:   -0.06 KCAL/MOL
REMARK 927      BINDING AFFINITY PREDICTED BY RF-SCORE:    0.00 PKD
ROOT
HETATM    1  N   UNL     1     -12.384  13.812  63.070  1.00  0.00    -1.030 NA 
HETATM    2  C   UNL     1     -12.326  12.491  63.714  1.00  0.00    -0.502 C  
HETATM    3  H2  UNL     1     -11.624  14.410  63.394  1.00  0.00     0.000 HD 
HETATM    4  H1  UNL     1     -12.395  13.754  62.052  1.00  0.00     0.000 HD 
ENDROOT
BRANCH   2   5
HETATM    5  C   UNL     1     -12.309  12.578  65.250  1.00  0.00    -0.469 C  
BRANCH   5   6
HETATM    6  C   UNL     1     -10.957  12.843  65.827  1.00  0.00    -0.278 A  
HETATM    7  C   UNL     1     -10.474  13.852  66.630  1.00  0.00    -0.272 A  
HETATM    8  C   UNL     1      -9.122  13.524  66.848  1.00  0.00    -0.239 A  
HETATM    9  N   UNL     1      -8.768  12.393  66.235  1.00  0.00    -0.414 NA 
HETATM   10  N   UNL     1      -9.899  11.994  65.628  1.00  0.00    -0.244 NA 
HETATM   11  H   UNL     1      -7.854  11.937  66.230  1.00  0.00     0.000 HD 
ENDBRANCH   5   6
ENDBRANCH   2   5
TORSDOF 2
ENDMDL
MODEL       55
REMARK 921   NORMALIZED FREE ENERGY PREDICTED BY IDOCK:   -2.88 KCAL/MOL
REMARK 922        TOTAL FREE ENERGY PREDICTED BY IDOCK:   -3.49 KCAL/MOL
REMARK 923 INTER-LIGAND FREE ENERGY PREDICTED BY IDOCK:   -3.44 KCAL/MOL
REMARK 924 INTRA-LIGAND FREE ENERGY PREDICTED BY IDOCK:   -0.05 KCAL/MOL
REMARK 927      BINDING AFFINITY PREDICTED BY RF-SCORE:    0.00 PKD
ROOT
HETATM    1  N   UNL     1     -11.710  16.344  63.837  1.00  0.00    -1.527 NA 
HETATM    2  C   UNL     1     -11.057  15.319  64.666  1.00  0.00    -0.332 C  
HETATM    3  H2  UNL     1     -11.259  17.252  63.956  1.00  0.00     0.000 HD 
HETATM    4  H1  UNL     1     -11.754  16.085  62.852  1.00  0.00     0.000 HD 
ENDROOT
BRANCH   2   5
HETATM    5  C   UNL     1     -10.990  15.711  66.153  1.00  0.00    -0.206 C  
BRANCH   5   6
HETATM    6  C   UNL     1      -9.775  16.500  66.517  1.00  0.00    -0.272 A  
HETATM    7  C   UNL     1      -8.462  16.422  66.107  1.00  0.00    -0.329 A  
HETATM    8  C   UNL     1      -7.806  17.458  66.800  1.00  0.00    -0.238 A  
HETATM    9  N   UNL     1      -8.633  18.147  67.589  1.00  0.00    -0.249 NA 
HETATM   10  N   UNL     1      -9.823  17.552  67.396  1.00  0.00    -0.288 NA 
HETATM   11  H   UNL     1      -8.415  18.938  68.195  1.00  0.00     0.000 HD 
ENDBRANCH   5   6
ENDBRANCH   2   5
TORSDOF 2
ENDMDL
MODEL       56
REMARK 921   NORMALIZED FREE ENERGY PREDICTED BY IDOCK:   -2.88 KCAL/MOL
REMARK 922        TOTAL FREE ENERGY PREDICTED BY IDOCK:   -3.49 KCAL/MOL
REMARK 923 INTER-LIGAND FREE ENERGY PREDICTED BY IDOCK:   -3.25 KCAL/MOL
REMARK 924 INTRA-LIGAND FREE ENERGY PREDICTED BY IDOCK:   -0.24 KCAL/MOL
REMARK 927      BINDING AFFINITY PREDICTED BY RF-SCORE:    0.00 PKD
ROOT
HETATM    1  N   UNL     1      -9.271  17.951  65.931  1.00  0.00    -0.509 NA 
HETATM    2  C   UNL     1     -10.359  18.925  66.111  1.00  0.00    -0.460 C  
HETATM    3  H2  UNL     1      -8.830  17.727  66.823  1.00  0.00     0.000 HD 
HETATM    4  H1  UNL     1      -9.575  17.105  65.451  1.00  0.00     0.000 HD 
ENDROOT
BRANCH   2   5
HETATM    5  C   UNL     1      -9.900  20.202  66.836  1.00  0.00    -0.593 C  
BRANCH   5   6
HETATM    6  C   UNL     1      -8.540  20.098  67.445  1.00  0.00    -0.343 A  
HETATM    7  C   UNL     1      -7.311  20.584  67.057  1.00  0.00    -0.372 A  
HETATM    8  C   UNL     1      -6.423  20.165  68.066  1.00  0.00    -0.264 A  
HETATM    9  N   UNL     1      -7.034  19.468  69.026  1.00  0.00    -0.346 NA 
HETATM   10  N   UNL     1      -8.319  19.446  68.631  1.00  0.00    -0.364 NA 
HETATM   11  H   UNL     1      -6.624  19.051  69.861  1.00  0.00     0.000 HD 
ENDBRANCH   5   6
ENDBRANCH   2   5
TORSDOF 2
ENDMDL
MODEL       57
REMARK 921   NORMALIZED FREE ENERGY PREDICTED BY IDOCK:   -2.88 KCAL/MOL
REMARK 922        TOTAL FREE ENERGY PREDICTED BY IDOCK:   -3.49 KCAL/MOL
REMARK 923 INTER-LIGAND FREE ENERGY PREDICTED BY IDOCK:   -3.23 KCAL/MOL
REMARK 924 INTRA-LIGAND FREE ENERGY PREDICTED BY IDOCK:   -0.26 KCAL/MOL
REMARK 927      BINDING AFFINITY PREDICTED BY RF-SCORE:    0.00 PKD
ROOT
HETATM    1  N   UNL     1      -9.743  20.530  65.997  1.00  0.00    -0.629 NA 
HETATM    2  C   UNL     1      -9.888  20.360  67.451  1.00  0.00    -0.446 C  
HETATM    3  H2  UNL     1     -10.021  19.683  65.501  1.00  0.00     0.000 HD 
HETATM    4  H1  UNL     1     -10.248  21.342  65.644  1.00  0.00     0.000 HD 
ENDROOT
BRANCH   2   5
HETATM    5  C   UNL     1      -9.127  19.133  67.984  1.00  0.00    -0.358 C  
BRANCH   5   6
HETATM    6  C   UNL     1      -9.460  17.859  67.279  1.00  0.00    -0.263 A  
HETATM    7  C   UNL     1     -10.433  16.908  67.493  1.00  0.00    -0.328 A  
HETATM    8  C   UNL     1     -10.238  15.957  66.474  1.00  0.00    -0.290 A  
HETATM    9  N   UNL     1      -9.222  16.274  65.668  1.00  0.00    -0.423 NA 
HETATM   10  N   UNL     1      -8.770  17.435  66.172  1.00  0.00    -0.490 NA 
HETATM   11  H   UNL     1      -8.872  15.758  64.861  1.00  0.00     0.000 HD 
ENDBRANCH   5   6
ENDBRANCH   2   5
TORSDOF 2
ENDMDL
MODEL       58
REMARK 921   NORMALIZED FREE ENERGY PREDICTED BY IDOCK:   -2.86 KCAL/MOL
REMARK 922        TOTAL FREE ENERGY PREDICTED BY IDOCK:   -3.47 KCAL/MOL
REMARK 923 INTER-LIGAND FREE ENERGY PREDICTED BY IDOCK:   -3.42 KCAL/MOL
REMARK 924 INTRA-LIGAND FREE ENERGY PREDICTED BY IDOCK:   -0.05 KCAL/MOL
REMARK 927      BINDING AFFINITY PREDICTED BY RF-SCORE:    0.00 PKD
ROOT
HETATM    1  N   UNL     1     -10.766  17.465  65.442  1.00  0.00    -0.576 NA 
HETATM    2  C   UNL     1     -10.247  16.496  66.419  1.00  0.00    -0.316 C  
HETATM    3  H2  UNL     1     -11.523  17.060  64.892  1.00  0.00     0.000 HD 
HETATM    4  H1  UNL     1     -11.056  18.342  65.874  1.00  0.00     0.000 HD 
ENDROOT
BRANCH   2   5
HETATM    5  C   UNL     1      -9.809  15.172  65.768  1.00  0.00    -0.384 C  
BRANCH   5   6
HETATM    6  C   UNL     1     -10.915  14.181  65.606  1.00  0.00    -0.308 A  
HETATM    7  C   UNL     1     -11.885  14.025  64.641  1.00  0.00    -0.433 A  
HETATM    8  C   UNL     1     -12.615  12.890  65.045  1.00  0.00    -0.472 A  
HETATM    9  N   UNL     1     -12.148  12.360  66.177  1.00  0.00    -0.641 NA 
HETATM   10  N   UNL     1     -11.112  13.156  66.495  1.00  0.00    -0.289 NA 
HETATM   11  H   UNL     1     -12.494  11.543  66.681  1.00  0.00     0.000 HD 
ENDBRANCH   5   6
ENDBRANCH   2   5
TORSDOF 2
ENDMDL
MODEL       59
REMARK 921   NORMALIZED FREE ENERGY PREDICTED BY IDOCK:   -2.85 KCAL/MOL
REMARK 922        TOTAL FREE ENERGY PREDICTED BY IDOCK:   -3.46 KCAL/MOL
REMARK 923 INTER-LIGAND FREE ENERGY PREDICTED BY IDOCK:   -3.44 KCAL/MOL
REMARK 924 INTRA-LIGAND FREE ENERGY PREDICTED BY IDOCK:   -0.02 KCAL/MOL
REMARK 927      BINDING AFFINITY PREDICTED BY RF-SCORE:    0.00 PKD
ROOT
HETATM    1  N   UNL     1     -11.276  16.610  64.017  1.00  0.00    -1.432 NA 
HETATM    2  C   UNL     1     -11.083  15.586  65.056  1.00  0.00    -0.401 C  
HETATM    3  H2  UNL     1     -10.384  17.015  63.733  1.00  0.00     0.000 HD 
HETATM    4  H1  UNL     1     -11.791  16.259  63.210  1.00  0.00     0.000 HD 
ENDROOT
BRANCH   2   5
HETATM    5  C   UNL     1     -10.306  16.116  66.274  1.00  0.00    -0.337 C  
BRANCH   5   6
HETATM    6  C   UNL     1      -9.682  15.044  67.107  1.00  0.00    -0.226 A  
HETATM    7  C   UNL     1      -8.434  14.463  67.088  1.00  0.00    -0.229 A  
HETATM    8  C   UNL     1      -8.454  13.529  68.141  1.00  0.00    -0.172 A  
HETATM    9  N   UNL     1      -9.622  13.515  68.786  1.00  0.00    -0.413 NA 
HETATM   10  N   UNL     1     -10.349  14.446  68.146  1.00  0.00    -0.227 NA 
HETATM   11  H   UNL     1      -9.898  12.934  69.579  1.00  0.00     0.000 HD 
ENDBRANCH   5   6
ENDBRANCH   2   5
TORSDOF 2
ENDMDL
MODEL       60
REMARK 921   NORMALIZED FREE ENERGY PREDICTED BY IDOCK:   -2.84 KCAL/MOL
REMARK 922        TOTAL FREE ENERGY PREDICTED BY IDOCK:   -3.44 KCAL/MOL
REMARK 923 INTER-LIGAND FREE ENERGY PREDICTED BY IDOCK:   -3.42 KCAL/MOL
REMARK 924 INTRA-LIGAND FREE ENERGY PREDICTED BY IDOCK:   -0.02 KCAL/MOL
REMARK 927      BINDING AFFINITY PREDICTED BY RF-SCORE:    0.00 PKD
ROOT
HETATM    1  N   UNL     1      -5.164  19.080  71.966  1.00  0.00    -0.759 NA 
HETATM    2  C   UNL     1      -5.673  19.920  70.871  1.00  0.00    -0.291 C  
HETATM    3  H2  UNL     1      -4.306  18.601  71.691  1.00  0.00     0.000 HD 
HETATM    4  H1  UNL     1      -5.030  19.601  72.833  1.00  0.00     0.000 HD 
ENDROOT
BRANCH   2   5
HETATM    5  C   UNL     1      -5.874  19.134  69.564  1.00  0.00    -0.268 C  
BRANCH   5   6
HETATM    6  C   UNL     1      -6.865  19.752  68.632  1.00  0.00    -0.322 A  
HETATM    7  C   UNL     1      -8.181  19.459  68.352  1.00  0.00    -0.382 A  
HETATM    8  C   UNL     1      -8.569  20.420  67.399  1.00  0.00    -0.319 A  
HETATM    9  N   UNL     1      -7.582  21.264  67.095  1.00  0.00    -0.755 NA 
HETATM   10  N   UNL     1      -6.560  20.843  67.860  1.00  0.00    -0.322 NA 
HETATM   11  H   UNL     1      -7.598  22.045  66.438  1.00  0.00     0.000 HD 
ENDBRANCH   5   6
ENDBRANCH   2   5
TORSDOF 2
ENDMDL
MODEL       61
REMARK 921   NORMALIZED FREE ENERGY PREDICTED BY IDOCK:   -2.83 KCAL/MOL
REMARK 922        TOTAL FREE ENERGY PREDICTED BY IDOCK:   -3.44 KCAL/MOL
REMARK 923 INTER-LIGAND FREE ENERGY PREDICTED BY IDOCK:   -3.18 KCAL/MOL
REMARK 924 INTRA-LIGAND FREE ENERGY PREDICTED BY IDOCK:   -0.26 KCAL/MOL
REMARK 927      BINDING AFFINITY PREDICTED BY RF-SCORE:    0.00 PKD
ROOT
HETATM    1  N   UNL     1     -12.145  10.494  68.474  1.00  0.00    -0.790 NA 
HETATM    2  C   UNL     1     -12.014  11.015  69.843  1.00  0.00    -0.351 C  
HETATM    3  H2  UNL     1     -12.445   9.519  68.481  1.00  0.00     0.000 HD 
HETATM    4  H1  UNL     1     -12.762  11.062  67.894  1.00  0.00     0.000 HD 
ENDROOT
BRANCH   2   5
HETATM    5  C   UNL     1     -11.083  10.158  70.719  1.00  0.00    -0.372 C  
BRANCH   5   6
HETATM    6  C   UNL     1     -11.532   8.742  70.875  1.00  0.00    -0.284 A  
HETATM    7  C   UNL     1     -12.137   8.070  71.913  1.00  0.00    -0.359 A  
HETATM    8  C   UNL     1     -12.324   6.759  71.434  1.00  0.00    -0.353 A  
HETATM    9  N   UNL     1     -11.878   6.604  70.187  1.00  0.00    -0.605 NA 
HETATM   10  N   UNL     1     -11.407   7.821  69.866  1.00  0.00    -0.068 NA 
HETATM   11  H   UNL     1     -11.890   5.761  69.612  1.00  0.00     0.000 HD 
ENDBRANCH   5   6
ENDBRANCH   2   5
TORSDOF 2
ENDMDL
MODEL       62
REMARK 921   NORMALIZED FREE ENERGY PREDICTED BY IDOCK:   -2.77 KCAL/MOL
REMARK 922        TOTAL FREE ENERGY PREDICTED BY IDOCK:   -3.37 KCAL/MOL
REMARK 923 INTER-LIGAND FREE ENERGY PREDICTED BY IDOCK:   -3.33 KCAL/MOL
REMARK 924 INTRA-LIGAND FREE ENERGY PREDICTED BY IDOCK:   -0.04 KCAL/MOL
REMARK 927      BINDING AFFINITY PREDICTED BY RF-SCORE:    0.00 PKD
ROOT
HETATM    1  N   UNL     1     -11.940  10.707  68.327  1.00  0.00    -0.814 NA 
HETATM    2  C   UNL     1     -11.413  11.505  67.209  1.00  0.00    -0.263 C  
HETATM    3  H2  UNL     1     -11.229  10.572  69.046  1.00  0.00     0.000 HD 
HETATM    4  H1  UNL     1     -12.793  11.099  68.724  1.00  0.00     0.000 HD 
ENDROOT
BRANCH   2   5
HETATM    5  C   UNL     1     -10.126  10.912  66.610  1.00  0.00    -0.264 C  
BRANCH   5   6
HETATM    6  C   UNL     1     -10.095  10.916  65.117  1.00  0.00    -0.292 A  
HETATM    7  C   UNL     1      -9.146  10.505  64.208  1.00  0.00    -0.256 A  
HETATM    8  C   UNL     1      -9.722  10.751  62.947  1.00  0.00    -0.304 A  
HETATM    9  N   UNL     1     -10.946  11.275  63.040  1.00  0.00    -0.836 NA 
HETATM   10  N   UNL     1     -11.153  11.360  64.366  1.00  0.00    -0.303 NA 
HETATM   11  H   UNL     1     -11.575  11.547  62.284  1.00  0.00     0.000 HD 
ENDBRANCH   5   6
ENDBRANCH   2   5
TORSDOF 2
ENDMDL
MODEL       63
REMARK 921   NORMALIZED FREE ENERGY PREDICTED BY IDOCK:   -2.77 KCAL/MOL
REMARK 922        TOTAL FREE ENERGY PREDICTED BY IDOCK:   -3.37 KCAL/MOL
REMARK 923 INTER-LIGAND FREE ENERGY PREDICTED BY IDOCK:   -3.14 KCAL/MOL
REMARK 924 INTRA-LIGAND FREE ENERGY PREDICTED BY IDOCK:   -0.23 KCAL/MOL
REMARK 927      BINDING AFFINITY PREDICTED BY RF-SCORE:    0.00 PKD
ROOT
HETATM    1  N   UNL     1     -11.258  14.429  68.027  1.00  0.00    -0.268 NA 
HETATM    2  C   UNL     1     -11.841  13.136  68.414  1.00  0.00    -0.351 C  
HETATM    3  H2  UNL     1     -10.313  14.531  68.399  1.00  0.00     0.000 HD 
HETATM    4  H1  UNL     1     -11.272  14.582  67.019  1.00  0.00     0.000 HD 
ENDROOT
BRANCH   2   5
HETATM    5  C   UNL     1     -11.819  12.905  69.936  1.00  0.00    -0.373 C  
BRANCH   5   6
HETATM    6  C   UNL     1     -12.638  13.887  70.709  1.00  0.00    -0.354 A  
HETATM    7  C   UNL     1     -13.637  13.728  71.643  1.00  0.00    -0.386 A  
HETATM    8  C   UNL     1     -13.993  15.038  72.016  1.00  0.00    -0.503 A  
HETATM    9  N   UNL     1     -13.277  15.963  71.375  1.00  0.00    -0.531 NA 
HETATM   10  N   UNL     1     -12.457  15.241  70.592  1.00  0.00    -0.376 NA 
HETATM   11  H   UNL     1     -13.337  16.978  71.459  1.00  0.00     0.000 HD 
ENDBRANCH   5   6
ENDBRANCH   2   5
TORSDOF 2
ENDMDL
MODEL       64
REMARK 921   NORMALIZED FREE ENERGY PREDICTED BY IDOCK:   -2.77 KCAL/MOL
REMARK 922        TOTAL FREE ENERGY PREDICTED BY IDOCK:   -3.37 KCAL/MOL
REMARK 923 INTER-LIGAND FREE ENERGY PREDICTED BY IDOCK:   -3.18 KCAL/MOL
REMARK 924 INTRA-LIGAND FREE ENERGY PREDICTED BY IDOCK:   -0.19 KCAL/MOL
REMARK 927      BINDING AFFINITY PREDICTED BY RF-SCORE:    0.00 PKD
ROOT
HETATM    1  N   UNL     1     -12.648  13.503  65.061  1.00  0.00    -0.619 NA 
HETATM    2  C   UNL     1     -11.508  13.076  65.886  1.00  0.00    -0.337 C  
HETATM    3  H2  UNL     1     -13.136  14.289  65.490  1.00  0.00     0.000 HD 
HETATM    4  H1  UNL     1     -12.381  13.718  64.101  1.00  0.00     0.000 HD 
ENDROOT
BRANCH   2   5
HETATM    5  C   UNL     1     -11.911  12.750  67.335  1.00  0.00    -0.404 C  
BRANCH   5   6
HETATM    6  C   UNL     1     -11.856  13.923  68.257  1.00  0.00    -0.376 A  
HETATM    7  C   UNL     1     -12.042  14.043  69.617  1.00  0.00    -0.408 A  
HETATM    8  C   UNL     1     -11.835  15.408  69.890  1.00  0.00    -0.350 A  
HETATM    9  N   UNL     1     -11.536  16.107  68.794  1.00  0.00    -0.364 NA 
HETATM   10  N   UNL     1     -11.548  15.184  67.817  1.00  0.00    -0.322 NA 
HETATM   11  H   UNL     1     -11.343  17.106  68.716  1.00  0.00     0.000 HD 
ENDBRANCH   5   6
ENDBRANCH   2   5
TORSDOF 2
ENDMDL
MODEL       65
REMARK 921   NORMALIZED FREE ENERGY PREDICTED BY IDOCK:   -2.74 KCAL/MOL
REMARK 922        TOTAL FREE ENERGY PREDICTED BY IDOCK:   -3.34 KCAL/MOL
REMARK 923 INTER-LIGAND FREE ENERGY PREDICTED BY IDOCK:   -3.10 KCAL/MOL
REMARK 924 INTRA-LIGAND FREE ENERGY PREDICTED BY IDOCK:   -0.24 KCAL/MOL
REMARK 927      BINDING AFFINITY PREDICTED BY RF-SCORE:    0.00 PKD
ROOT
HETATM    1  N   UNL     1     -10.847   6.307  73.756  1.00  0.00    -0.434 NA 
HETATM    2  C   UNL     1     -10.110   7.542  73.444  1.00  0.00    -0.338 C  
HETATM    3  H2  UNL     1     -10.608   5.563  73.101  1.00  0.00     0.000 HD 
HETATM    4  H1  UNL     1     -10.714   6.002  74.720  1.00  0.00     0.000 HD 
ENDROOT
BRANCH   2   5
HETATM    5  C   UNL     1     -10.311   8.002  71.990  1.00  0.00    -0.298 C  
BRANCH   5   6
HETATM    6  C   UNL     1     -11.677   8.535  71.706  1.00  0.00    -0.327 A  
HETATM    7  C   UNL     1     -12.157   9.815  71.537  1.00  0.00    -0.493 A  
HETATM    8  C   UNL     1     -13.530   9.653  71.273  1.00  0.00    -0.289 A  
HETATM    9  N   UNL     1     -13.902   8.372  71.271  1.00  0.00    -0.583 NA 
HETATM   10  N   UNL     1     -12.760   7.712  71.529  1.00  0.00    -0.338 NA 
HETATM   11  H   UNL     1     -14.832   7.985  71.110  1.00  0.00     0.000 HD 
ENDBRANCH   5   6
ENDBRANCH   2   5
TORSDOF 2
ENDMDL
MODEL       66
REMARK 921   NORMALIZED FREE ENERGY PREDICTED BY IDOCK:   -2.73 KCAL/MOL
REMARK 922        TOTAL FREE ENERGY PREDICTED BY IDOCK:   -3.32 KCAL/MOL
REMARK 923 INTER-LIGAND FREE ENERGY PREDICTED BY IDOCK:   -3.30 KCAL/MOL
REMARK 924 INTRA-LIGAND FREE ENERGY PREDICTED BY IDOCK:   -0.02 KCAL/MOL
REMARK 927      BINDING AFFINITY PREDICTED BY RF-SCORE:    0.00 PKD
ROOT
HETATM    1  N   UNL     1     -12.400  14.177  63.445  1.00  0.00    -1.144 NA 
HETATM    2  C   UNL     1     -12.161  13.400  64.671  1.00  0.00    -0.410 C  
HETATM    3  H2  UNL     1     -11.570  14.708  63.182  1.00  0.00     0.000 HD 
HETATM    4  H1  UNL     1     -12.727  13.601  62.671  1.00  0.00     0.000 HD 
ENDROOT
BRANCH   2   5
HETATM    5  C   UNL     1     -11.668  14.270  65.840  1.00  0.00    -0.375 C  
BRANCH   5   6
HETATM    6  C   UNL     1     -10.851  13.527  66.847  1.00  0.00    -0.282 A  
HETATM    7  C   UNL     1      -9.527  13.148  66.868  1.00  0.00    -0.244 A  
HETATM    8  C   UNL     1      -9.360  12.494  68.104  1.00  0.00    -0.210 A  
HETATM    9  N   UNL     1     -10.486  12.460  68.819  1.00  0.00    -0.357 NA 
HETATM   10  N   UNL     1     -11.375  13.099  68.039  1.00  0.00    -0.274 NA 
HETATM   11  H   UNL     1     -10.637  12.047  69.740  1.00  0.00     0.000 HD 
ENDBRANCH   5   6
ENDBRANCH   2   5
TORSDOF 2
ENDMDL
MODEL       67
REMARK 921   NORMALIZED FREE ENERGY PREDICTED BY IDOCK:   -2.72 KCAL/MOL
REMARK 922        TOTAL FREE ENERGY PREDICTED BY IDOCK:   -3.31 KCAL/MOL
REMARK 923 INTER-LIGAND FREE ENERGY PREDICTED BY IDOCK:   -3.06 KCAL/MOL
REMARK 924 INTRA-LIGAND FREE ENERGY PREDICTED BY IDOCK:   -0.25 KCAL/MOL
REMARK 927      BINDING AFFINITY PREDICTED BY RF-SCORE:    0.00 PKD
ROOT
HETATM    1  N   UNL     1     -10.794  16.607  64.820  1.00  0.00    -0.760 NA 
HETATM    2  C   UNL     1     -10.129  15.764  65.825  1.00  0.00    -0.371 C  
HETATM    3  H2  UNL     1     -10.239  17.438  64.614  1.00  0.00     0.000 HD 
HETATM    4  H1  UNL     1     -11.019  16.097  63.966  1.00  0.00     0.000 HD 
ENDROOT
BRANCH   2   5
HETATM    5  C   UNL     1      -9.788  16.533  67.114  1.00  0.00    -0.255 C  
BRANCH   5   6
HETATM    6  C   UNL     1      -8.675  17.516  66.957  1.00  0.00    -0.240 A  
HETATM    7  C   UNL     1      -8.035  18.343  67.854  1.00  0.00    -0.269 A  
HETATM    8  C   UNL     1      -7.057  19.011  67.093  1.00  0.00    -0.203 A  
HETATM    9  N   UNL     1      -7.067  18.640  65.811  1.00  0.00    -0.427 NA 
HETATM   10  N   UNL     1      -8.053  17.728  65.754  1.00  0.00    -0.531 NA 
HETATM   11  H   UNL     1      -6.468  18.971  65.054  1.00  0.00     0.000 HD 
ENDBRANCH   5   6
ENDBRANCH   2   5
TORSDOF 2
ENDMDL
MODEL       68
REMARK 921   NORMALIZED FREE ENERGY PREDICTED BY IDOCK:   -2.71 KCAL/MOL
REMARK 922        TOTAL FREE ENERGY PREDICTED BY IDOCK:   -3.31 KCAL/MOL
REMARK 923 INTER-LIGAND FREE ENERGY PREDICTED BY IDOCK:   -3.14 KCAL/MOL
REMARK 924 INTRA-LIGAND FREE ENERGY PREDICTED BY IDOCK:   -0.17 KCAL/MOL
REMARK 927      BINDING AFFINITY PREDICTED BY RF-SCORE:    0.00 PKD
ROOT
HETATM    1  N   UNL     1      -6.059  20.579  70.464  1.00  0.00    -0.522 NA 
HETATM    2  C   UNL     1      -6.093  19.537  69.426  1.00  0.00    -0.288 C  
HETATM    3  H2  UNL     1      -6.987  20.973  70.617  1.00  0.00     0.000 HD 
HETATM    4  H1  UNL     1      -5.652  20.250  71.339  1.00  0.00     0.000 HD 
ENDROOT
BRANCH   2   5
HETATM    5  C   UNL     1      -6.706  20.033  68.105  1.00  0.00    -0.326 C  
BRANCH   5   6
HETATM    6  C   UNL     1      -8.186  19.847  68.016  1.00  0.00    -0.263 A  
HETATM    7  C   UNL     1      -9.095  20.111  67.016  1.00  0.00    -0.481 A  
HETATM    8  C   UNL     1     -10.334  19.692  67.536  1.00  0.00    -0.448 A  
HETATM    9  N   UNL     1     -10.228  19.196  68.770  1.00  0.00    -0.510 NA 
HETATM   10  N   UNL     1      -8.915  19.294  69.038  1.00  0.00    -0.299 NA 
HETATM   11  H   UNL     1     -10.968  18.829  69.368  1.00  0.00     0.000 HD 
ENDBRANCH   5   6
ENDBRANCH   2   5
TORSDOF 2
ENDMDL
MODEL       69
REMARK 921   NORMALIZED FREE ENERGY PREDICTED BY IDOCK:   -2.71 KCAL/MOL
REMARK 922        TOTAL FREE ENERGY PREDICTED BY IDOCK:   -3.30 KCAL/MOL
REMARK 923 INTER-LIGAND FREE ENERGY PREDICTED BY IDOCK:   -3.24 KCAL/MOL
REMARK 924 INTRA-LIGAND FREE ENERGY PREDICTED BY IDOCK:   -0.05 KCAL/MOL
REMARK 927      BINDING AFFINITY PREDICTED BY RF-SCORE:    0.00 PKD
ROOT
HETATM    1  N   UNL     1     -12.355  14.153  67.674  1.00  0.00    -0.552 NA 
HETATM    2  C   UNL     1     -11.845  14.608  66.371  1.00  0.00    -0.293 C  
HETATM    3  H2  UNL     1     -12.360  14.916  68.351  1.00  0.00     0.000 HD 
HETATM    4  H1  UNL     1     -13.275  13.718  67.606  1.00  0.00     0.000 HD 
ENDROOT
BRANCH   2   5
HETATM    5  C   UNL     1     -10.457  15.264  66.473  1.00  0.00    -0.299 C  
BRANCH   5   6
HETATM    6  C   UNL     1     -10.499  16.726  66.775  1.00  0.00    -0.258 A  
HETATM    7  C   UNL     1     -10.541  17.427  67.960  1.00  0.00    -0.389 A  
HETATM    8  C   UNL     1     -10.543  18.782  67.577  1.00  0.00    -0.435 A  
HETATM    9  N   UNL     1     -10.502  18.938  66.252  1.00  0.00    -0.440 NA 
HETATM   10  N   UNL     1     -10.470  17.677  65.787  1.00  0.00    -0.578 NA 
HETATM   11  H   UNL     1     -10.497  19.808  65.719  1.00  0.00     0.000 HD 
ENDBRANCH   5   6
ENDBRANCH   2   5
TORSDOF 2
ENDMDL
MODEL       70
REMARK 921   NORMALIZED FREE ENERGY PREDICTED BY IDOCK:   -2.70 KCAL/MOL
REMARK 922        TOTAL FREE ENERGY PREDICTED BY IDOCK:   -3.29 KCAL/MOL
REMARK 923 INTER-LIGAND FREE ENERGY PREDICTED BY IDOCK:   -3.23 KCAL/MOL
REMARK 924 INTRA-LIGAND FREE ENERGY PREDICTED BY IDOCK:   -0.06 KCAL/MOL
REMARK 927      BINDING AFFINITY PREDICTED BY RF-SCORE:    0.00 PKD
ROOT
HETATM    1  N   UNL     1     -11.124   6.569  73.210  1.00  0.00    -0.475 NA 
HETATM    2  C   UNL     1     -11.468   6.580  71.780  1.00  0.00    -0.300 C  
HETATM    3  H2  UNL     1     -11.850   6.107  73.757  1.00  0.00     0.000 HD 
HETATM    4  H1  UNL     1     -10.210   6.157  73.392  1.00  0.00     0.000 HD 
ENDROOT
BRANCH   2   5
HETATM    5  C   UNL     1     -12.847   7.204  71.504  1.00  0.00    -0.434 C  
BRANCH   5   6
HETATM    6  C   UNL     1     -12.841   8.697  71.467  1.00  0.00    -0.319 A  
HETATM    7  C   UNL     1     -12.148   9.602  70.695  1.00  0.00    -0.269 A  
HETATM    8  C   UNL     1     -12.599  10.864  71.126  1.00  0.00    -0.428 A  
HETATM    9  N   UNL     1     -13.512  10.775  72.095  1.00  0.00    -0.533 NA 
HETATM   10  N   UNL     1     -13.647   9.451  72.281  1.00  0.00    -0.468 NA 
HETATM   11  H   UNL     1     -13.993  11.533  72.580  1.00  0.00     0.000 HD 
ENDBRANCH   5   6
ENDBRANCH   2   5
TORSDOF 2
ENDMDL
MODEL       71
REMARK 921   NORMALIZED FREE ENERGY PREDICTED BY IDOCK:   -2.69 KCAL/MOL
REMARK 922        TOTAL FREE ENERGY PREDICTED BY IDOCK:   -3.28 KCAL/MOL
REMARK 923 INTER-LIGAND FREE ENERGY PREDICTED BY IDOCK:   -3.05 KCAL/MOL
REMARK 924 INTRA-LIGAND FREE ENERGY PREDICTED BY IDOCK:   -0.23 KCAL/MOL
REMARK 927      BINDING AFFINITY PREDICTED BY RF-SCORE:    0.00 PKD
ROOT
HETATM    1  N   UNL     1     -10.066   9.135  65.794  1.00  0.00    -0.380 NA 
HETATM    2  C   UNL     1      -9.617  10.340  65.079  1.00  0.00    -0.285 C  
HETATM    3  H2  UNL     1     -10.876   8.718  65.335  1.00  0.00     0.000 HD 
HETATM    4  H1  UNL     1      -9.321   8.450  65.915  1.00  0.00     0.000 HD 
ENDROOT
BRANCH   2   5
HETATM    5  C   UNL     1     -10.741  11.376  64.896  1.00  0.00    -0.350 C  
BRANCH   5   6
HETATM    6  C   UNL     1     -11.207  11.997  66.172  1.00  0.00    -0.343 A  
HETATM    7  C   UNL     1     -11.449  13.303  66.533  1.00  0.00    -0.372 A  
HETATM    8  C   UNL     1     -11.890  13.233  67.868  1.00  0.00    -0.349 A  
HETATM    9  N   UNL     1     -11.930  11.981  68.326  1.00  0.00    -0.463 NA 
HETATM   10  N   UNL     1     -11.518  11.247  67.278  1.00  0.00    -0.510 NA 
HETATM   11  H   UNL     1     -12.208  11.656  69.252  1.00  0.00     0.000 HD 
ENDBRANCH   5   6
ENDBRANCH   2   5
TORSDOF 2
ENDMDL
MODEL       72
REMARK 921   NORMALIZED FREE ENERGY PREDICTED BY IDOCK:   -2.66 KCAL/MOL
REMARK 922        TOTAL FREE ENERGY PREDICTED BY IDOCK:   -3.25 KCAL/MOL
REMARK 923 INTER-LIGAND FREE ENERGY PREDICTED BY IDOCK:   -3.21 KCAL/MOL
REMARK 924 INTRA-LIGAND FREE ENERGY PREDICTED BY IDOCK:   -0.04 KCAL/MOL
REMARK 927      BINDING AFFINITY PREDICTED BY RF-SCORE:    0.00 PKD
ROOT
HETATM    1  N   UNL     1      -8.858  12.149  65.991  1.00  0.00    -0.412 NA 
HETATM    2  C   UNL     1      -9.934  13.128  66.205  1.00  0.00    -0.285 C  
HETATM    3  H2  UNL     1      -7.979  12.616  65.765  1.00  0.00     0.000 HD 
HETATM    4  H1  UNL     1      -8.742  11.513  66.779  1.00  0.00     0.000 HD 
ENDROOT
BRANCH   2   5
HETATM    5  C   UNL     1     -10.110  14.089  65.016  1.00  0.00    -0.323 C  
BRANCH   5   6
HETATM    6  C   UNL     1     -10.057  15.534  65.392  1.00  0.00    -0.352 A  
HETATM    7  C   UNL     1      -9.235  16.242  66.241  1.00  0.00    -0.363 A  
HETATM    8  C   UNL     1      -9.679  17.574  66.145  1.00  0.00    -0.209 A  
HETATM    9  N   UNL     1     -10.702  17.711  65.299  1.00  0.00    -0.581 NA 
HETATM   10  N   UNL     1     -10.910  16.461  64.849  1.00  0.00    -0.687 NA 
HETATM   11  H   UNL     1     -11.208  18.562  65.052  1.00  0.00     0.000 HD 
ENDBRANCH   5   6
ENDBRANCH   2   5
TORSDOF 2
ENDMDL
MODEL       73
REMARK 921   NORMALIZED FREE ENERGY PREDICTED BY IDOCK:   -2.64 KCAL/MOL
REMARK 922        TOTAL FREE ENERGY PREDICTED BY IDOCK:   -3.22 KCAL/MOL
REMARK 923 INTER-LIGAND FREE ENERGY PREDICTED BY IDOCK:   -2.99 KCAL/MOL
REMARK 924 INTRA-LIGAND FREE ENERGY PREDICTED BY IDOCK:   -0.23 KCAL/MOL
REMARK 927      BINDING AFFINITY PREDICTED BY RF-SCORE:    0.00 PKD
ROOT
HETATM    1  N   UNL     1      -9.905  14.188  69.009  1.00  0.00    -0.413 NA 
HETATM    2  C   UNL     1     -10.262  15.404  69.755  1.00  0.00    -0.268 C  
HETATM    3  H2  UNL     1      -9.592  14.417  68.065  1.00  0.00     0.000 HD 
HETATM    4  H1  UNL     1      -9.213  13.618  69.495  1.00  0.00     0.000 HD 
ENDROOT
BRANCH   2   5
HETATM    5  C   UNL     1     -11.306  16.266  69.022  1.00  0.00    -0.301 C  
BRANCH   5   6
HETATM    6  C   UNL     1     -10.763  17.000  67.840  1.00  0.00    -0.348 A  
HETATM    7  C   UNL     1     -10.412  18.318  67.648  1.00  0.00    -0.431 A  
HETATM    8  C   UNL     1      -9.946  18.377  66.321  1.00  0.00    -0.366 A  
HETATM    9  N   UNL     1      -9.991  17.191  65.712  1.00  0.00    -0.567 NA 
HETATM   10  N   UNL     1     -10.484  16.370  66.655  1.00  0.00    -0.293 NA 
HETATM   11  H   UNL     1      -9.716  16.961  64.756  1.00  0.00     0.000 HD 
ENDBRANCH   5   6
ENDBRANCH   2   5
TORSDOF 2
ENDMDL
MODEL       74
REMARK 921   NORMALIZED FREE ENERGY PREDICTED BY IDOCK:   -2.62 KCAL/MOL
REMARK 922        TOTAL FREE ENERGY PREDICTED BY IDOCK:   -3.20 KCAL/MOL
REMARK 923 INTER-LIGAND FREE ENERGY PREDICTED BY IDOCK:   -2.92 KCAL/MOL
REMARK 924 INTRA-LIGAND FREE ENERGY PREDICTED BY IDOCK:   -0.28 KCAL/MOL
REMARK 927      BINDING AFFINITY PREDICTED BY RF-SCORE:    0.00 PKD
ROOT
HETATM    1  N   UNL     1     -10.793  15.807  68.219  1.00  0.00    -0.291 NA 
HETATM    2  C   UNL     1     -10.682  15.692  66.756  1.00  0.00    -0.300 C  
HETATM    3  H2  UNL     1     -11.417  16.570  68.479  1.00  0.00     0.000 HD 
HETATM    4  H1  UNL     1     -11.078  14.934  68.661  1.00  0.00     0.000 HD 
ENDROOT
BRANCH   2   5
HETATM    5  C   UNL     1     -10.252  17.010  66.088  1.00  0.00    -0.346 C  
BRANCH   5   6
HETATM    6  C   UNL     1     -10.095  18.149  67.040  1.00  0.00    -0.351 A  
HETATM    7  C   UNL     1     -10.841  19.287  67.256  1.00  0.00    -0.554 A  
HETATM    8  C   UNL     1     -10.185  19.955  68.307  1.00  0.00    -0.434 A  
HETATM    9  N   UNL     1      -9.106  19.297  68.734  1.00  0.00    -0.372 NA 
HETATM   10  N   UNL     1      -9.075  18.202  67.955  1.00  0.00    -0.276 NA 
HETATM   11  H   UNL     1      -8.457  19.562  69.476  1.00  0.00     0.000 HD 
ENDBRANCH   5   6
ENDBRANCH   2   5
TORSDOF 2
ENDMDL
MODEL       75
REMARK 921   NORMALIZED FREE ENERGY PREDICTED BY IDOCK:   -2.59 KCAL/MOL
REMARK 922        TOTAL FREE ENERGY PREDICTED BY IDOCK:   -3.16 KCAL/MOL
REMARK 923 INTER-LIGAND FREE ENERGY PREDICTED BY IDOCK:   -3.11 KCAL/MOL
REMARK 924 INTRA-LIGAND FREE ENERGY PREDICTED BY IDOCK:   -0.05 KCAL/MOL
REMARK 927      BINDING AFFINITY PREDICTED BY RF-SCORE:    0.00 PKD
ROOT
HETATM    1  N   UNL     1     -10.948   9.241  67.884  1.00  0.00    -0.500 NA 
HETATM    2  C   UNL     1     -10.446  10.623  67.863  1.00  0.00    -0.208 C  
HETATM    3  H2  UNL     1     -11.388   8.999  66.996  1.00  0.00     0.000 HD 
HETATM    4  H1  UNL     1     -10.227   8.564  68.131  1.00  0.00     0.000 HD 
ENDROOT
BRANCH   2   5
HETATM    5  C   UNL     1     -11.534  11.645  67.490  1.00  0.00    -0.360 C  
BRANCH   5   6
HETATM    6  C   UNL     1     -11.364  12.243  66.132  1.00  0.00    -0.353 A  
HETATM    7  C   UNL     1     -12.189  13.022  65.351  1.00  0.00    -0.520 A  
HETATM    8  C   UNL     1     -11.444  13.280  64.185  1.00  0.00    -0.396 A  
HETATM    9  N   UNL     1     -10.236  12.714  64.216  1.00  0.00    -0.509 NA 
HETATM   10  N   UNL     1     -10.208  12.095  65.409  1.00  0.00    -0.264 NA 
HETATM   11  H   UNL     1      -9.507  12.743  63.503  1.00  0.00     0.000 HD 
ENDBRANCH   5   6
ENDBRANCH   2   5
TORSDOF 2
ENDMDL
MODEL       76
REMARK 921   NORMALIZED FREE ENERGY PREDICTED BY IDOCK:   -2.58 KCAL/MOL
REMARK 922        TOTAL FREE ENERGY PREDICTED BY IDOCK:   -3.15 KCAL/MOL
REMARK 923 INTER-LIGAND FREE ENERGY PREDICTED BY IDOCK:   -3.12 KCAL/MOL
REMARK 924 INTRA-LIGAND FREE ENERGY PREDICTED BY IDOCK:   -0.03 KCAL/MOL
REMARK 927      BINDING AFFINITY PREDICTED BY RF-SCORE:    0.00 PKD
ROOT
HETATM    1  N   UNL     1      -8.757  14.029  66.657  1.00  0.00    -0.444 NA 
HETATM    2  C   UNL     1      -9.087  15.371  67.162  1.00  0.00    -0.220 C  
HETATM    3  H2  UNL     1      -7.829  14.016  66.234  1.00  0.00     0.000 HD 
HETATM    4  H1  UNL     1      -8.843  13.308  67.372  1.00  0.00     0.000 HD 
ENDROOT
BRANCH   2   5
HETATM    5  C   UNL     1      -8.957  16.461  66.083  1.00  0.00    -0.367 C  
BRANCH   5   6
HETATM    6  C   UNL     1      -9.565  17.770  66.467  1.00  0.00    -0.308 A  
HETATM    7  C   UNL     1     -10.598  18.099  67.317  1.00  0.00    -0.384 A  
HETATM    8  C   UNL     1     -10.673  19.503  67.266  1.00  0.00    -0.484 A  
HETATM    9  N   UNL     1      -9.760  20.034  66.451  1.00  0.00    -0.454 NA 
HETATM   10  N   UNL     1      -9.095  18.964  65.983  1.00  0.00    -0.463 NA 
HETATM   11  H   UNL     1      -9.603  21.018  66.235  1.00  0.00     0.000 HD 
ENDBRANCH   5   6
ENDBRANCH   2   5
TORSDOF 2
ENDMDL
MODEL       77
REMARK 921   NORMALIZED FREE ENERGY PREDICTED BY IDOCK:   -2.53 KCAL/MOL
REMARK 922        TOTAL FREE ENERGY PREDICTED BY IDOCK:   -3.10 KCAL/MOL
REMARK 923 INTER-LIGAND FREE ENERGY PREDICTED BY IDOCK:   -2.85 KCAL/MOL
REMARK 924 INTRA-LIGAND FREE ENERGY PREDICTED BY IDOCK:   -0.25 KCAL/MOL
REMARK 927      BINDING AFFINITY PREDICTED BY RF-SCORE:    0.00 PKD
ROOT
HETATM    1  N   UNL     1      -9.546  14.061  65.614  1.00  0.00    -0.530 NA 
HETATM    2  C   UNL     1      -9.431  15.349  66.315  1.00  0.00    -0.309 C  
HETATM    3  H2  UNL     1     -10.266  14.101  64.891  1.00  0.00     0.000 HD 
HETATM    4  H1  UNL     1      -8.658  13.742  65.229  1.00  0.00     0.000 HD 
ENDROOT
BRANCH   2   5
HETATM    5  C   UNL     1     -10.772  15.831  66.897  1.00  0.00    -0.299 C  
BRANCH   5   6
HETATM    6  C   UNL     1     -11.113  15.223  68.217  1.00  0.00    -0.300 A  
HETATM    7  C   UNL     1     -11.785  15.709  69.317  1.00  0.00    -0.388 A  
HETATM    8  C   UNL     1     -11.797  14.642  70.234  1.00  0.00    -0.303 A  
HETATM    9  N   UNL     1     -11.185  13.555  69.760  1.00  0.00    -0.473 NA 
HETATM   10  N   UNL     1     -10.784  13.929  68.532  1.00  0.00    -0.251 NA 
HETATM   11  H   UNL     1     -11.052  12.654  70.219  1.00  0.00     0.000 HD 
ENDBRANCH   5   6
ENDBRANCH   2   5
TORSDOF 2
ENDMDL
MODEL       78
REMARK 921   NORMALIZED FREE ENERGY PREDICTED BY IDOCK:   -2.53 KCAL/MOL
REMARK 922        TOTAL FREE ENERGY PREDICTED BY IDOCK:   -3.10 KCAL/MOL
REMARK 923 INTER-LIGAND FREE ENERGY PREDICTED BY IDOCK:   -3.07 KCAL/MOL
REMARK 924 INTRA-LIGAND FREE ENERGY PREDICTED BY IDOCK:   -0.03 KCAL/MOL
REMARK 927      BINDING AFFINITY PREDICTED BY RF-SCORE:    0.00 PKD
ROOT
HETATM    1  N   UNL     1     -11.094   5.843  66.915  1.00  0.00    -0.558 NA 
HETATM    2  C   UNL     1     -10.853   6.715  68.074  1.00  0.00    -0.271 C  
HETATM    3  H2  UNL     1     -12.067   5.537  66.884  1.00  0.00     0.000 HD 
HETATM    4  H1  UNL     1     -10.819   6.275  66.033  1.00  0.00     0.000 HD 
ENDROOT
BRANCH   2   5
HETATM    5  C   UNL     1     -11.269   6.064  69.405  1.00  0.00    -0.397 C  
BRANCH   5   6
HETATM    6  C   UNL     1     -11.430   7.033  70.530  1.00  0.00    -0.319 A  
HETATM    7  C   UNL     1     -11.014   8.335  70.698  1.00  0.00    -0.257 A  
HETATM    8  C   UNL     1     -11.496   8.706  71.968  1.00  0.00    -0.367 A  
HETATM    9  N   UNL     1     -12.169   7.721  72.565  1.00  0.00    -0.556 NA 
HETATM   10  N   UNL     1     -12.122   6.718  71.672  1.00  0.00    -0.344 NA 
HETATM   11  H   UNL     1     -12.615   7.728  73.483  1.00  0.00     0.000 HD 
ENDBRANCH   5   6
ENDBRANCH   2   5
TORSDOF 2
ENDMDL
MODEL       79
REMARK 921   NORMALIZED FREE ENERGY PREDICTED BY IDOCK:   -2.52 KCAL/MOL
REMARK 922        TOTAL FREE ENERGY PREDICTED BY IDOCK:   -3.09 KCAL/MOL
REMARK 923 INTER-LIGAND FREE ENERGY PREDICTED BY IDOCK:   -3.06 KCAL/MOL
REMARK 924 INTRA-LIGAND FREE ENERGY PREDICTED BY IDOCK:   -0.03 KCAL/MOL
REMARK 927      BINDING AFFINITY PREDICTED BY RF-SCORE:    0.00 PKD
ROOT
HETATM    1  N   UNL     1     -10.334  18.725  65.918  1.00  0.00    -0.582 NA 
HETATM    2  C   UNL     1     -10.325  17.267  66.113  1.00  0.00    -0.317 C  
HETATM    3  H2  UNL     1      -9.396  19.113  66.018  1.00  0.00     0.000 HD 
HETATM    4  H1  UNL     1     -10.751  19.000  65.029  1.00  0.00     0.000 HD 
ENDROOT
BRANCH   2   5
HETATM    5  C   UNL     1      -9.696  16.851  67.454  1.00  0.00    -0.247 C  
BRANCH   5   6
HETATM    6  C   UNL     1     -10.656  16.207  68.400  1.00  0.00    -0.286 A  
HETATM    7  C   UNL     1     -10.945  16.437  69.727  1.00  0.00    -0.341 A  
HETATM    8  C   UNL     1     -11.959  15.513  70.041  1.00  0.00    -0.364 A  
HETATM    9  N   UNL     1     -12.296  14.752  68.997  1.00  0.00    -0.586 NA 
HETATM   10  N   UNL     1     -11.496  15.196  68.012  1.00  0.00    -0.336 NA 
HETATM   11  H   UNL     1     -12.994  14.010  68.957  1.00  0.00     0.000 HD 
ENDBRANCH   5   6
ENDBRANCH   2   5
TORSDOF 2
ENDMDL
MODEL       80
REMARK 921   NORMALIZED FREE ENERGY PREDICTED BY IDOCK:   -2.50 KCAL/MOL
REMARK 922        TOTAL FREE ENERGY PREDICTED BY IDOCK:   -3.07 KCAL/MOL
REMARK 923 INTER-LIGAND FREE ENERGY PREDICTED BY IDOCK:   -2.79 KCAL/MOL
REMARK 924 INTRA-LIGAND FREE ENERGY PREDICTED BY IDOCK:   -0.28 KCAL/MOL
REMARK 927      BINDING AFFINITY PREDICTED BY RF-SCORE:    0.00 PKD
ROOT
HETATM    1  N   UNL     1      -8.110  17.454  68.216  1.00  0.00    -0.240 NA 
HETATM    2  C   UNL     1      -9.156  18.484  68.119  1.00  0.00    -0.309 C  
HETATM    3  H2  UNL     1      -7.852  17.107  67.292  1.00  0.00     0.000 HD 
HETATM    4  H1  UNL     1      -7.289  17.774  68.729  1.00  0.00     0.000 HD 
ENDROOT
BRANCH   2   5
HETATM    5  C   UNL     1     -10.396  18.000  67.345  1.00  0.00    -0.391 C  
BRANCH   5   6
HETATM    6  C   UNL     1     -10.295  16.592  66.858  1.00  0.00    -0.299 A  
HETATM    7  C   UNL     1     -10.852  15.415  67.305  1.00  0.00    -0.316 A  
HETATM    8  C   UNL     1     -10.391  14.434  66.406  1.00  0.00    -0.287 A  
HETATM    9  N   UNL     1      -9.603  14.942  65.457  1.00  0.00    -0.472 NA 
HETATM   10  N   UNL     1      -9.565  16.254  65.747  1.00  0.00    -0.479 NA 
HETATM   11  H   UNL     1      -9.140  14.451  64.692  1.00  0.00     0.000 HD 
ENDBRANCH   5   6
ENDBRANCH   2   5
TORSDOF 2
ENDMDL
MODEL       81
REMARK 921   NORMALIZED FREE ENERGY PREDICTED BY IDOCK:   -2.49 KCAL/MOL
REMARK 922        TOTAL FREE ENERGY PREDICTED BY IDOCK:   -3.06 KCAL/MOL
REMARK 923 INTER-LIGAND FREE ENERGY PREDICTED BY IDOCK:   -2.82 KCAL/MOL
REMARK 924 INTRA-LIGAND FREE ENERGY PREDICTED BY IDOCK:   -0.24 KCAL/MOL
REMARK 927      BINDING AFFINITY PREDICTED BY RF-SCORE:    0.00 PKD
ROOT
HETATM    1  N   UNL     1      -8.876   8.707  72.545  1.00  0.00    -0.401 NA 
HETATM    2  C   UNL     1      -9.891   7.903  73.242  1.00  0.00    -0.277 C  
HETATM    3  H2  UNL     1      -9.213   9.655  72.377  1.00  0.00     0.000 HD 
HETATM    4  H1  UNL     1      -7.980   8.718  73.032  1.00  0.00     0.000 HD 
ENDROOT
BRANCH   2   5
HETATM    5  C   UNL     1     -11.243   7.886  72.507  1.00  0.00    -0.436 C  
BRANCH   5   6
HETATM    6  C   UNL     1     -11.162   7.392  71.100  1.00  0.00    -0.258 A  
HETATM    7  C   UNL     1     -11.250   6.131  70.553  1.00  0.00    -0.403 A  
HETATM    8  C   UNL     1     -11.116   6.330  69.166  1.00  0.00    -0.390 A  
HETATM    9  N   UNL     1     -10.958   7.616  68.848  1.00  0.00    -0.426 NA 
HETATM   10  N   UNL     1     -10.995   8.242  70.037  1.00  0.00    -0.232 NA 
HETATM   11  H   UNL     1     -10.837   8.027  67.922  1.00  0.00     0.000 HD 
ENDBRANCH   5   6
ENDBRANCH   2   5
TORSDOF 2
ENDMDL
MODEL       82
REMARK 921   NORMALIZED FREE ENERGY PREDICTED BY IDOCK:   -2.47 KCAL/MOL
REMARK 922        TOTAL FREE ENERGY PREDICTED BY IDOCK:   -3.04 KCAL/MOL
REMARK 923 INTER-LIGAND FREE ENERGY PREDICTED BY IDOCK:   -2.76 KCAL/MOL
REMARK 924 INTRA-LIGAND FREE ENERGY PREDICTED BY IDOCK:   -0.28 KCAL/MOL
REMARK 927      BINDING AFFINITY PREDICTED BY RF-SCORE:    0.00 PKD
ROOT
HETATM    1  N   UNL     1     -10.255  10.318  65.109  1.00  0.00    -0.289 NA 
HETATM    2  C   UNL     1      -9.237  11.357  65.326  1.00  0.00    -0.129 C  
HETATM    3  H2  UNL     1     -11.187  10.728  65.040  1.00  0.00     0.000 HD 
HETATM    4  H1  UNL     1     -10.052   9.731  64.301  1.00  0.00     0.000 HD 
ENDROOT
BRANCH   2   5
HETATM    5  C   UNL     1      -9.542  12.244  66.546  1.00  0.00    -0.242 C  
BRANCH   5   6
HETATM    6  C   UNL     1     -10.349  11.563  67.603  1.00  0.00    -0.186 A  
HETATM    7  C   UNL     1     -10.012  11.028  68.827  1.00  0.00    -0.215 A  
HETATM    8  C   UNL     1     -11.224  10.551  69.358  1.00  0.00    -0.269 A  
HETATM    9  N   UNL     1     -12.258  10.764  68.542  1.00  0.00    -0.822 NA 
HETATM   10  N   UNL     1     -11.704  11.385  67.486  1.00  0.00    -0.609 NA 
HETATM   11  H   UNL     1     -13.237  10.516  68.685  1.00  0.00     0.000 HD 
ENDBRANCH   5   6
ENDBRANCH   2   5
TORSDOF 2
ENDMDL
MODEL       83
REMARK 921   NORMALIZED FREE ENERGY PREDICTED BY IDOCK:   -2.46 KCAL/MOL
REMARK 922        TOTAL FREE ENERGY PREDICTED BY IDOCK:   -3.02 KCAL/MOL
REMARK 923 INTER-LIGAND FREE ENERGY PREDICTED BY IDOCK:   -2.74 KCAL/MOL
REMARK 924 INTRA-LIGAND FREE ENERGY PREDICTED BY IDOCK:   -0.28 KCAL/MOL
REMARK 927      BINDING AFFINITY PREDICTED BY RF-SCORE:    0.00 PKD
ROOT
HETATM    1  N   UNL     1      -9.703  15.529  68.388  1.00  0.00    -0.200 NA 
HETATM    2  C   UNL     1     -10.229  15.147  67.069  1.00  0.00    -0.262 C  
HETATM    3  H2  UNL     1      -9.663  14.723  69.013  1.00  0.00     0.000 HD 
HETATM    4  H1  UNL     1      -8.797  15.993  68.331  1.00  0.00     0.000 HD 
ENDROOT
BRANCH   2   5
HETATM    5  C   UNL     1     -11.597  14.446  67.155  1.00  0.00    -0.406 C  
BRANCH   5   6
HETATM    6  C   UNL     1     -11.701  13.454  68.266  1.00  0.00    -0.356 A  
HETATM    7  C   UNL     1     -11.451  12.101  68.327  1.00  0.00    -0.360 A  
HETATM    8  C   UNL     1     -11.717  11.745  69.663  1.00  0.00    -0.344 A  
HETATM    9  N   UNL     1     -12.103  12.787  70.400  1.00  0.00    -0.472 NA 
HETATM   10  N   UNL     1     -12.080  13.814  69.534  1.00  0.00    -0.338 NA 
HETATM   11  H   UNL     1     -12.356  12.801  71.389  1.00  0.00     0.000 HD 
ENDBRANCH   5   6
ENDBRANCH   2   5
TORSDOF 2
ENDMDL
MODEL       84
REMARK 921   NORMALIZED FREE ENERGY PREDICTED BY IDOCK:   -2.43 KCAL/MOL
REMARK 922        TOTAL FREE ENERGY PREDICTED BY IDOCK:   -2.99 KCAL/MOL
REMARK 923 INTER-LIGAND FREE ENERGY PREDICTED BY IDOCK:   -2.95 KCAL/MOL
REMARK 924 INTRA-LIGAND FREE ENERGY PREDICTED BY IDOCK:   -0.04 KCAL/MOL
REMARK 927      BINDING AFFINITY PREDICTED BY RF-SCORE:    0.00 PKD
ROOT
HETATM    1  N   UNL     1     -12.984  15.801  70.990  1.00  0.00    -0.550 NA 
HETATM    2  C   UNL     1     -11.649  16.042  70.421  1.00  0.00    -0.348 C  
HETATM    3  H2  UNL     1     -13.307  14.857  70.777  1.00  0.00     0.000 HD 
HETATM    4  H1  UNL     1     -13.024  15.984  71.992  1.00  0.00     0.000 HD 
ENDROOT
BRANCH   2   5
HETATM    5  C   UNL     1     -11.589  15.767  68.908  1.00  0.00    -0.400 C  
BRANCH   5   6
HETATM    6  C   UNL     1     -10.805  16.779  68.139  1.00  0.00    -0.353 A  
HETATM    7  C   UNL     1     -10.378  16.821  66.830  1.00  0.00    -0.294 A  
HETATM    8  C   UNL     1      -9.704  18.052  66.711  1.00  0.00    -0.323 A  
HETATM    9  N   UNL     1      -9.702  18.745  67.851  1.00  0.00    -0.316 NA 
HETATM   10  N   UNL     1     -10.381  17.956  68.701  1.00  0.00    -0.364 NA 
HETATM   11  H   UNL     1      -9.284  19.657  68.034  1.00  0.00     0.000 HD 
ENDBRANCH   5   6
ENDBRANCH   2   5
TORSDOF 2
ENDMDL
MODEL       85
REMARK 921   NORMALIZED FREE ENERGY PREDICTED BY IDOCK:   -2.43 KCAL/MOL
REMARK 922        TOTAL FREE ENERGY PREDICTED BY IDOCK:   -2.98 KCAL/MOL
REMARK 923 INTER-LIGAND FREE ENERGY PREDICTED BY IDOCK:   -2.71 KCAL/MOL
REMARK 924 INTRA-LIGAND FREE ENERGY PREDICTED BY IDOCK:   -0.27 KCAL/MOL
REMARK 927      BINDING AFFINITY PREDICTED BY RF-SCORE:    0.00 PKD
ROOT
HETATM    1  N   UNL     1     -11.179   6.024  66.467  1.00  0.00    -0.750 NA 
HETATM    2  C   UNL     1     -10.097   5.239  67.080  1.00  0.00    -0.203 C  
HETATM    3  H2  UNL     1     -10.823   6.898  66.080  1.00  0.00     0.000 HD 
HETATM    4  H1  UNL     1     -11.697   5.498  65.764  1.00  0.00     0.000 HD 
ENDROOT
BRANCH   2   5
HETATM    5  C   UNL     1      -9.315   6.033  68.141  1.00  0.00    -0.115 C  
BRANCH   5   6
HETATM    6  C   UNL     1     -10.182   6.735  69.134  1.00  0.00    -0.181 A  
HETATM    7  C   UNL     1     -10.019   7.904  69.845  1.00  0.00    -0.192 A  
HETATM    8  C   UNL     1     -11.202   8.035  70.598  1.00  0.00    -0.261 A  
HETATM    9  N   UNL     1     -12.056   7.033  70.384  1.00  0.00    -0.599 NA 
HETATM   10  N   UNL     1     -11.419   6.260  69.488  1.00  0.00    -0.411 NA 
HETATM   11  H   UNL     1     -12.975   6.888  70.802  1.00  0.00     0.000 HD 
ENDBRANCH   5   6
ENDBRANCH   2   5
TORSDOF 2
ENDMDL
MODEL       86
REMARK 921   NORMALIZED FREE ENERGY PREDICTED BY IDOCK:   -2.42 KCAL/MOL
REMARK 922        TOTAL FREE ENERGY PREDICTED BY IDOCK:   -2.97 KCAL/MOL
REMARK 923 INTER-LIGAND FREE ENERGY PREDICTED BY IDOCK:   -2.70 KCAL/MOL
REMARK 924 INTRA-LIGAND FREE ENERGY PREDICTED BY IDOCK:   -0.28 KCAL/MOL
REMARK 927      BINDING AFFINITY PREDICTED BY RF-SCORE:    0.00 PKD
ROOT
HETATM    1  N   UNL     1      -9.022   5.529  70.282  1.00  0.00    -0.135 NA 
HETATM    2  C   UNL     1     -10.110   5.128  69.377  1.00  0.00    -0.234 C  
HETATM    3  H2  UNL     1      -9.374   5.696  71.225  1.00  0.00     0.000 HD 
HETATM    4  H1  UNL     1      -8.252   4.861  70.291  1.00  0.00     0.000 HD 
ENDROOT
BRANCH   2   5
HETATM    5  C   UNL     1     -11.273   6.136  69.362  1.00  0.00    -0.466 C  
BRANCH   5   6
HETATM    6  C   UNL     1     -11.390   6.944  70.612  1.00  0.00    -0.320 A  
HETATM    7  C   UNL     1     -11.256   8.292  70.861  1.00  0.00    -0.292 A  
HETATM    8  C   UNL     1     -11.508   8.432  72.239  1.00  0.00    -0.384 A  
HETATM    9  N   UNL     1     -11.784   7.266  72.827  1.00  0.00    -0.547 NA 
HETATM   10  N   UNL     1     -11.713   6.379  71.819  1.00  0.00    -0.317 NA 
HETATM   11  H   UNL     1     -11.999   7.090  73.809  1.00  0.00     0.000 HD 
ENDBRANCH   5   6
ENDBRANCH   2   5
TORSDOF 2
ENDMDL
MODEL       87
REMARK 921   NORMALIZED FREE ENERGY PREDICTED BY IDOCK:   -2.41 KCAL/MOL
REMARK 922        TOTAL FREE ENERGY PREDICTED BY IDOCK:   -2.96 KCAL/MOL
REMARK 923 INTER-LIGAND FREE ENERGY PREDICTED BY IDOCK:   -2.92 KCAL/MOL
REMARK 924 INTRA-LIGAND FREE ENERGY PREDICTED BY IDOCK:   -0.05 KCAL/MOL
REMARK 927      BINDING AFFINITY PREDICTED BY RF-SCORE:    0.00 PKD
ROOT
HETATM    1  N   UNL     1     -11.117   6.199  73.394  1.00  0.00    -0.458 NA 
HETATM    2  C   UNL     1     -10.860   7.623  73.128  1.00  0.00    -0.382 C  
HETATM    3  H2  UNL     1     -11.418   5.717  72.546  1.00  0.00     0.000 HD 
HETATM    4  H1  UNL     1     -10.319   5.728  73.819  1.00  0.00     0.000 HD 
ENDROOT
BRANCH   2   5
HETATM    5  C   UNL     1     -12.065   8.334  72.486  1.00  0.00    -0.400 C  
BRANCH   5   6
HETATM    6  C   UNL     1     -11.744   9.032  71.205  1.00  0.00    -0.313 A  
HETATM    7  C   UNL     1     -11.790  10.357  70.834  1.00  0.00    -0.475 A  
HETATM    8  C   UNL     1     -11.345  10.374  69.499  1.00  0.00    -0.265 A  
HETATM    9  N   UNL     1     -11.035   9.156  69.050  1.00  0.00    -0.432 NA 
HETATM   10  N   UNL     1     -11.279   8.359  70.104  1.00  0.00    -0.193 NA 
HETATM   11  H   UNL     1     -10.694   8.893  68.125  1.00  0.00     0.000 HD 
ENDBRANCH   5   6
ENDBRANCH   2   5
TORSDOF 2
ENDMDL
MODEL       88
REMARK 921   NORMALIZED FREE ENERGY PREDICTED BY IDOCK:   -2.40 KCAL/MOL
REMARK 922        TOTAL FREE ENERGY PREDICTED BY IDOCK:   -2.96 KCAL/MOL
REMARK 923 INTER-LIGAND FREE ENERGY PREDICTED BY IDOCK:   -2.90 KCAL/MOL
REMARK 924 INTRA-LIGAND FREE ENERGY PREDICTED BY IDOCK:   -0.06 KCAL/MOL
REMARK 927      BINDING AFFINITY PREDICTED BY RF-SCORE:    0.00 PKD
ROOT
HETATM    1  N   UNL     1      -8.646  15.963  66.187  1.00  0.00    -0.332 NA 
HETATM    2  C   UNL     1     -10.076  16.139  65.892  1.00  0.00    -0.354 C  
HETATM    3  H2  UNL     1      -8.457  15.023  66.535  1.00  0.00     0.000 HD 
HETATM    4  H1  UNL     1      -8.049  16.184  65.390  1.00  0.00     0.000 HD 
ENDROOT
BRANCH   2   5
HETATM    5  C   UNL     1     -10.976  15.806  67.095  1.00  0.00    -0.244 C  
BRANCH   5   6
HETATM    6  C   UNL     1     -11.337  14.360  67.199  1.00  0.00    -0.343 A  
HETATM    7  C   UNL     1     -11.267  13.460  68.239  1.00  0.00    -0.310 A  
HETATM    8  C   UNL     1     -11.777  12.258  67.711  1.00  0.00    -0.337 A  
HETATM    9  N   UNL     1     -12.148  12.380  66.435  1.00  0.00    -0.614 NA 
HETATM   10  N   UNL     1     -11.877  13.665  66.148  1.00  0.00    -0.371 NA 
HETATM   11  H   UNL     1     -12.543  11.666  65.822  1.00  0.00     0.000 HD 
ENDBRANCH   5   6
ENDBRANCH   2   5
TORSDOF 2
ENDMDL
MODEL       89
REMARK 921   NORMALIZED FREE ENERGY PREDICTED BY IDOCK:   -2.37 KCAL/MOL
REMARK 922        TOTAL FREE ENERGY PREDICTED BY IDOCK:   -2.93 KCAL/MOL
REMARK 923 INTER-LIGAND FREE ENERGY PREDICTED BY IDOCK:   -2.81 KCAL/MOL
REMARK 924 INTRA-LIGAND FREE ENERGY PREDICTED BY IDOCK:   -0.12 KCAL/MOL
REMARK 927      BINDING AFFINITY PREDICTED BY RF-SCORE:    0.00 PKD
ROOT
HETATM    1  N   UNL     1     -11.079   8.821  67.655  1.00  0.00    -0.413 NA 
HETATM    2  C   UNL     1     -10.470  10.142  67.433  1.00  0.00    -0.256 C  
HETATM    3  H2  UNL     1     -11.721   8.583  66.899  1.00  0.00     0.000 HD 
HETATM    4  H1  UNL     1     -10.386   8.086  67.792  1.00  0.00     0.000 HD 
ENDROOT
BRANCH   2   5
HETATM    5  C   UNL     1     -11.516  11.252  67.227  1.00  0.00    -0.265 C  
BRANCH   5   6
HETATM    6  C   UNL     1     -11.724  12.118  68.426  1.00  0.00    -0.332 A  
HETATM    7  C   UNL     1     -11.977  13.465  68.563  1.00  0.00    -0.363 A  
HETATM    8  C   UNL     1     -12.094  13.670  69.951  1.00  0.00    -0.341 A  
HETATM    9  N   UNL     1     -11.932  12.544  70.648  1.00  0.00    -0.513 NA 
HETATM   10  N   UNL     1     -11.715  11.615  69.701  1.00  0.00    -0.323 NA 
HETATM   11  H   UNL     1     -11.965  12.418  71.660  1.00  0.00     0.000 HD 
ENDBRANCH   5   6
ENDBRANCH   2   5
TORSDOF 2
ENDMDL
MODEL       90
REMARK 921   NORMALIZED FREE ENERGY PREDICTED BY IDOCK:   -2.36 KCAL/MOL
REMARK 922        TOTAL FREE ENERGY PREDICTED BY IDOCK:   -2.91 KCAL/MOL
REMARK 923 INTER-LIGAND FREE ENERGY PREDICTED BY IDOCK:   -2.62 KCAL/MOL
REMARK 924 INTRA-LIGAND FREE ENERGY PREDICTED BY IDOCK:   -0.29 KCAL/MOL
REMARK 927      BINDING AFFINITY PREDICTED BY RF-SCORE:    0.00 PKD
ROOT
HETATM    1  N   UNL     1     -10.943   8.537  67.782  1.00  0.00    -0.486 NA 
HETATM    2  C   UNL     1     -10.205   8.124  68.986  1.00  0.00    -0.220 C  
HETATM    3  H2  UNL     1     -10.849   9.540  67.621  1.00  0.00     0.000 HD 
HETATM    4  H1  UNL     1     -10.673   8.007  66.954  1.00  0.00     0.000 HD 
ENDROOT
BRANCH   2   5
HETATM    5  C   UNL     1     -10.613   8.924  70.236  1.00  0.00    -0.246 C  
BRANCH   5   6
HETATM    6  C   UNL     1     -11.008  10.336  69.950  1.00  0.00    -0.303 A  
HETATM    7  C   UNL     1     -12.092  11.092  70.336  1.00  0.00    -0.475 A  
HETATM    8  C   UNL     1     -11.876  12.356  69.755  1.00  0.00    -0.317 A  
HETATM    9  N   UNL     1     -10.742  12.408  69.055  1.00  0.00    -0.394 NA 
HETATM   10  N   UNL     1     -10.229  11.173  69.192  1.00  0.00    -0.183 NA 
HETATM   11  H   UNL     1     -10.355  13.198  68.537  1.00  0.00     0.000 HD 
ENDBRANCH   5   6
ENDBRANCH   2   5
TORSDOF 2
ENDMDL
MODEL       91
REMARK 921   NORMALIZED FREE ENERGY PREDICTED BY IDOCK:   -2.36 KCAL/MOL
REMARK 922        TOTAL FREE ENERGY PREDICTED BY IDOCK:   -2.91 KCAL/MOL
REMARK 923 INTER-LIGAND FREE ENERGY PREDICTED BY IDOCK:   -2.86 KCAL/MOL
REMARK 924 INTRA-LIGAND FREE ENERGY PREDICTED BY IDOCK:   -0.05 KCAL/MOL
REMARK 927      BINDING AFFINITY PREDICTED BY RF-SCORE:    0.00 PKD
ROOT
HETATM    1  N   UNL     1      -6.696  17.594  68.956  1.00  0.00    -0.242 NA 
HETATM    2  C   UNL     1      -7.753  18.452  68.399  1.00  0.00    -0.297 C  
HETATM    3  H2  UNL     1      -5.788  17.824  68.551  1.00  0.00     0.000 HD 
HETATM    4  H1  UNL     1      -6.660  17.624  69.974  1.00  0.00     0.000 HD 
ENDROOT
BRANCH   2   5
HETATM    5  C   UNL     1      -7.808  18.407  66.862  1.00  0.00    -0.248 C  
BRANCH   5   6
HETATM    6  C   UNL     1      -8.759  17.392  66.319  1.00  0.00    -0.207 A  
HETATM    7  C   UNL     1      -8.728  16.016  66.286  1.00  0.00    -0.372 A  
HETATM    8  C   UNL     1      -9.931  15.642  65.658  1.00  0.00    -0.354 A  
HETATM    9  N   UNL     1     -10.676  16.695  65.317  1.00  0.00    -0.579 NA 
HETATM   10  N   UNL     1      -9.948  17.745  65.733  1.00  0.00    -0.559 NA 
HETATM   11  H   UNL     1     -11.583  16.701  64.850  1.00  0.00     0.000 HD 
ENDBRANCH   5   6
ENDBRANCH   2   5
TORSDOF 2
ENDMDL
MODEL       92
REMARK 921   NORMALIZED FREE ENERGY PREDICTED BY IDOCK:   -2.36 KCAL/MOL
REMARK 922        TOTAL FREE ENERGY PREDICTED BY IDOCK:   -2.91 KCAL/MOL
REMARK 923 INTER-LIGAND FREE ENERGY PREDICTED BY IDOCK:   -2.85 KCAL/MOL
REMARK 924 INTRA-LIGAND FREE ENERGY PREDICTED BY IDOCK:   -0.06 KCAL/MOL
REMARK 927      BINDING AFFINITY PREDICTED BY RF-SCORE:    0.00 PKD
ROOT
HETATM    1  N   UNL     1      -7.375  15.132  66.804  1.00  0.00    -0.278 NA 
HETATM    2  C   UNL     1      -8.226  16.280  66.455  1.00  0.00    -0.319 C  
HETATM    3  H2  UNL     1      -7.928  14.280  66.892  1.00  0.00     0.000 HD 
HETATM    4  H1  UNL     1      -6.603  15.001  66.151  1.00  0.00     0.000 HD 
ENDROOT
BRANCH   2   5
HETATM    5  C   UNL     1      -9.391  16.478  67.441  1.00  0.00    -0.223 C  
BRANCH   5   6
HETATM    6  C   UNL     1     -10.551  15.570  67.198  1.00  0.00    -0.300 A  
HETATM    7  C   UNL     1     -10.981  14.894  66.077  1.00  0.00    -0.334 A  
HETATM    8  C   UNL     1     -12.124  14.188  66.498  1.00  0.00    -0.454 A  
HETATM    9  N   UNL     1     -12.403  14.392  67.786  1.00  0.00    -0.603 NA 
HETATM   10  N   UNL     1     -11.432  15.228  68.192  1.00  0.00    -0.340 NA 
HETATM   11  H   UNL     1     -13.172  14.005  68.335  1.00  0.00     0.000 HD 
ENDBRANCH   5   6
ENDBRANCH   2   5
TORSDOF 2
ENDMDL
MODEL       93
REMARK 921   NORMALIZED FREE ENERGY PREDICTED BY IDOCK:   -2.36 KCAL/MOL
REMARK 922        TOTAL FREE ENERGY PREDICTED BY IDOCK:   -2.91 KCAL/MOL
REMARK 923 INTER-LIGAND FREE ENERGY PREDICTED BY IDOCK:   -2.68 KCAL/MOL
REMARK 924 INTRA-LIGAND FREE ENERGY PREDICTED BY IDOCK:   -0.23 KCAL/MOL
REMARK 927      BINDING AFFINITY PREDICTED BY RF-SCORE:    0.00 PKD
ROOT
HETATM    1  N   UNL     1     -11.130   7.887  69.225  1.00  0.00    -0.436 NA 
HETATM    2  C   UNL     1     -11.366   6.441  69.359  1.00  0.00    -0.377 C  
HETATM    3  H2  UNL     1     -10.177   8.075  68.912  1.00  0.00     0.000 HD 
HETATM    4  H1  UNL     1     -11.811   8.342  68.617  1.00  0.00     0.000 HD 
ENDROOT
BRANCH   2   5
HETATM    5  C   UNL     1     -10.339   5.754  70.277  1.00  0.00    -0.319 C  
BRANCH   5   6
HETATM    6  C   UNL     1     -10.440   6.160  71.711  1.00  0.00    -0.216 A  
HETATM    7  C   UNL     1      -9.941   5.606  72.868  1.00  0.00    -0.196 A  
HETATM    8  C   UNL     1     -10.365   6.471  73.895  1.00  0.00    -0.335 A  
HETATM    9  N   UNL     1     -11.078   7.500  73.431  1.00  0.00    -0.565 NA 
HETATM   10  N   UNL     1     -11.105   7.293  72.104  1.00  0.00    -0.237 NA 
HETATM   11  H   UNL     1     -11.502   8.263  73.960  1.00  0.00     0.000 HD 
ENDBRANCH   5   6
ENDBRANCH   2   5
TORSDOF 2
ENDMDL
MODEL       94
REMARK 921   NORMALIZED FREE ENERGY PREDICTED BY IDOCK:   -2.32 KCAL/MOL
REMARK 922        TOTAL FREE ENERGY PREDICTED BY IDOCK:   -2.87 KCAL/MOL
REMARK 923 INTER-LIGAND FREE ENERGY PREDICTED BY IDOCK:   -2.83 KCAL/MOL
REMARK 924 INTRA-LIGAND FREE ENERGY PREDICTED BY IDOCK:   -0.04 KCAL/MOL
REMARK 927      BINDING AFFINITY PREDICTED BY RF-SCORE:    0.00 PKD
ROOT
HETATM    1  N   UNL     1      -6.935  16.323  69.389  1.00  0.00    -0.217 NA 
HETATM    2  C   UNL     1      -6.909  17.689  68.845  1.00  0.00    -0.243 C  
HETATM    3  H2  UNL     1      -6.234  15.736  68.937  1.00  0.00     0.000 HD 
HETATM    4  H1  UNL     1      -6.833  16.300  70.403  1.00  0.00     0.000 HD 
ENDROOT
BRANCH   2   5
HETATM    5  C   UNL     1      -7.064  17.723  67.314  1.00  0.00    -0.201 C  
BRANCH   5   6
HETATM    6  C   UNL     1      -8.449  18.038  66.852  1.00  0.00    -0.249 A  
HETATM    7  C   UNL     1      -9.345  19.021  67.210  1.00  0.00    -0.344 A  
HETATM    8  C   UNL     1     -10.472  18.795  66.397  1.00  0.00    -0.429 A  
HETATM    9  N   UNL     1     -10.310  17.753  65.580  1.00  0.00    -0.616 NA 
HETATM   10  N   UNL     1      -9.073  17.313  65.869  1.00  0.00    -0.529 NA 
HETATM   11  H   UNL     1     -10.969  17.378  64.897  1.00  0.00     0.000 HD 
ENDBRANCH   5   6
ENDBRANCH   2   5
TORSDOF 2
ENDMDL
MODEL       95
REMARK 921   NORMALIZED FREE ENERGY PREDICTED BY IDOCK:   -2.31 KCAL/MOL
REMARK 922        TOTAL FREE ENERGY PREDICTED BY IDOCK:   -2.86 KCAL/MOL
REMARK 923 INTER-LIGAND FREE ENERGY PREDICTED BY IDOCK:   -2.82 KCAL/MOL
REMARK 924 INTRA-LIGAND FREE ENERGY PREDICTED BY IDOCK:   -0.03 KCAL/MOL
REMARK 927      BINDING AFFINITY PREDICTED BY RF-SCORE:    0.00 PKD
ROOT
HETATM    1  N   UNL     1     -13.698  15.372  70.658  1.00  0.00    -0.841 NA 
HETATM    2  C   UNL     1     -12.260  15.608  70.454  1.00  0.00    -0.395 C  
HETATM    3  H2  UNL     1     -13.968  14.448  70.318  1.00  0.00     0.000 HD 
HETATM    4  H1  UNL     1     -13.985  15.503  71.627  1.00  0.00     0.000 HD 
ENDROOT
BRANCH   2   5
HETATM    5  C   UNL     1     -11.827  15.409  68.991  1.00  0.00    -0.357 C  
BRANCH   5   6
HETATM    6  C   UNL     1     -10.379  15.080  68.827  1.00  0.00    -0.240 A  
HETATM    7  C   UNL     1      -9.667  14.520  67.789  1.00  0.00    -0.216 A  
HETATM    8  C   UNL     1      -8.334  14.493  68.240  1.00  0.00    -0.152 A  
HETATM    9  N   UNL     1      -8.201  14.997  69.468  1.00  0.00    -0.396 NA 
HETATM   10  N   UNL     1      -9.453  15.353  69.801  1.00  0.00    -0.226 NA 
HETATM   11  H   UNL     1      -7.349  15.091  70.023  1.00  0.00     0.000 HD 
ENDBRANCH   5   6
ENDBRANCH   2   5
TORSDOF 2
ENDMDL
MODEL       96
REMARK 921   NORMALIZED FREE ENERGY PREDICTED BY IDOCK:   -2.28 KCAL/MOL
REMARK 922        TOTAL FREE ENERGY PREDICTED BY IDOCK:   -2.83 KCAL/MOL
REMARK 923 INTER-LIGAND FREE ENERGY PREDICTED BY IDOCK:   -2.56 KCAL/MOL
REMARK 924 INTRA-LIGAND FREE ENERGY PREDICTED BY IDOCK:   -0.27 KCAL/MOL
REMARK 927      BINDING AFFINITY PREDICTED BY RF-SCORE:    0.00 PKD
ROOT
HETATM    1  N   UNL     1      -9.547  13.466  68.397  1.00  0.00    -0.281 NA 
HETATM    2  C   UNL     1     -10.811  13.612  67.659  1.00  0.00    -0.256 C  
HETATM    3  H2  UNL     1      -9.008  12.675  68.044  1.00  0.00     0.000 HD 
HETATM    4  H1  UNL     1      -8.989  14.319  68.394  1.00  0.00     0.000 HD 
ENDROOT
BRANCH   2   5
HETATM    5  C   UNL     1     -11.654  12.325  67.663  1.00  0.00    -0.421 C  
BRANCH   5   6
HETATM    6  C   UNL     1     -11.531  11.524  68.918  1.00  0.00    -0.289 A  
HETATM    7  C   UNL     1     -12.380  11.339  69.987  1.00  0.00    -0.330 A  
HETATM    8  C   UNL     1     -11.697  10.453  70.841  1.00  0.00    -0.360 A  
HETATM    9  N   UNL     1     -10.506  10.095  70.357  1.00  0.00    -0.412 NA 
HETATM   10  N   UNL     1     -10.430  10.752  69.187  1.00  0.00    -0.209 NA 
HETATM   11  H   UNL     1      -9.817   9.470  70.776  1.00  0.00     0.000 HD 
ENDBRANCH   5   6
ENDBRANCH   2   5
TORSDOF 2
ENDMDL
MODEL       97
REMARK 921   NORMALIZED FREE ENERGY PREDICTED BY IDOCK:   -2.25 KCAL/MOL
REMARK 922        TOTAL FREE ENERGY PREDICTED BY IDOCK:   -2.79 KCAL/MOL
REMARK 923 INTER-LIGAND FREE ENERGY PREDICTED BY IDOCK:   -2.76 KCAL/MOL
REMARK 924 INTRA-LIGAND FREE ENERGY PREDICTED BY IDOCK:   -0.03 KCAL/MOL
REMARK 927      BINDING AFFINITY PREDICTED BY RF-SCORE:    0.00 PKD
ROOT
HETATM    1  N   UNL     1      -5.945  20.571  71.112  1.00  0.00    -0.598 NA 
HETATM    2  C   UNL     1      -5.836  19.788  69.871  1.00  0.00    -0.280 C  
HETATM    3  H2  UNL     1      -6.870  20.993  71.197  1.00  0.00     0.000 HD 
HETATM    4  H1  UNL     1      -5.713  20.027  71.942  1.00  0.00     0.000 HD 
ENDROOT
BRANCH   2   5
HETATM    5  C   UNL     1      -6.186  20.609  68.617  1.00  0.00    -0.341 C  
BRANCH   5   6
HETATM    6  C   UNL     1      -7.021  19.871  67.623  1.00  0.00    -0.247 A  
HETATM    7  C   UNL     1      -8.324  19.426  67.655  1.00  0.00    -0.334 A  
HETATM    8  C   UNL     1      -8.528  18.820  66.401  1.00  0.00    -0.284 A  
HETATM    9  N   UNL     1      -7.444  18.874  65.625  1.00  0.00    -0.489 NA 
HETATM   10  N   UNL     1      -6.544  19.522  66.386  1.00  0.00    -0.186 NA 
HETATM   11  H   UNL     1      -7.325  18.510  64.680  1.00  0.00     0.000 HD 
ENDBRANCH   5   6
ENDBRANCH   2   5
TORSDOF 2
ENDMDL
MODEL       98
REMARK 921   NORMALIZED FREE ENERGY PREDICTED BY IDOCK:   -2.24 KCAL/MOL
REMARK 922        TOTAL FREE ENERGY PREDICTED BY IDOCK:   -2.78 KCAL/MOL
REMARK 923 INTER-LIGAND FREE ENERGY PREDICTED BY IDOCK:   -2.53 KCAL/MOL
REMARK 924 INTRA-LIGAND FREE ENERGY PREDICTED BY IDOCK:   -0.24 KCAL/MOL
REMARK 927      BINDING AFFINITY PREDICTED BY RF-SCORE:    0.00 PKD
ROOT
HETATM    1  N   UNL     1      -6.984  15.572  67.032  1.00  0.00    -0.236 NA 
HETATM    2  C   UNL     1      -7.859  16.595  66.439  1.00  0.00    -0.312 C  
HETATM    3  H2  UNL     1      -7.287  14.634  66.768  1.00  0.00     0.000 HD 
HETATM    4  H1  UNL     1      -6.001  15.717  66.806  1.00  0.00     0.000 HD 
ENDROOT
BRANCH   2   5
HETATM    5  C   UNL     1      -9.344  16.377  66.781  1.00  0.00    -0.265 C  
BRANCH   5   6
HETATM    6  C   UNL     1      -9.971  15.232  66.056  1.00  0.00    -0.319 A  
HETATM    7  C   UNL     1     -10.899  15.175  65.039  1.00  0.00    -0.457 A  
HETATM    8  C   UNL     1     -11.063  13.801  64.779  1.00  0.00    -0.377 A  
HETATM    9  N   UNL     1     -10.300  13.038  65.563  1.00  0.00    -0.290 NA 
HETATM   10  N   UNL     1      -9.642  13.928  66.326  1.00  0.00    -0.278 NA 
HETATM   11  H   UNL     1     -10.232  12.020  65.581  1.00  0.00     0.000 HD 
ENDBRANCH   5   6
ENDBRANCH   2   5
TORSDOF 2
ENDMDL
MODEL       99
REMARK 921   NORMALIZED FREE ENERGY PREDICTED BY IDOCK:   -2.24 KCAL/MOL
REMARK 922        TOTAL FREE ENERGY PREDICTED BY IDOCK:   -2.77 KCAL/MOL
REMARK 923 INTER-LIGAND FREE ENERGY PREDICTED BY IDOCK:   -2.50 KCAL/MOL
REMARK 924 INTRA-LIGAND FREE ENERGY PREDICTED BY IDOCK:   -0.27 KCAL/MOL
REMARK 927      BINDING AFFINITY PREDICTED BY RF-SCORE:    0.00 PKD
ROOT
HETATM    1  N   UNL     1      -8.552  10.543  69.674  1.00  0.00    -0.386 NA 
HETATM    2  C   UNL     1      -9.094   9.960  68.437  1.00  0.00    -0.123 C  
HETATM    3  H2  UNL     1      -9.127  10.292  70.479  1.00  0.00     0.000 HD 
HETATM    4  H1  UNL     1      -7.575  10.295  69.831  1.00  0.00     0.000 HD 
ENDROOT
BRANCH   2   5
HETATM    5  C   UNL     1     -10.568  10.333  68.200  1.00  0.00    -0.258 C  
BRANCH   5   6
HETATM    6  C   UNL     1     -11.355  10.519  69.455  1.00  0.00    -0.278 A  
HETATM    7  C   UNL     1     -12.022  11.604  69.980  1.00  0.00    -0.429 A  
HETATM    8  C   UNL     1     -12.586  11.134  71.181  1.00  0.00    -0.409 A  
HETATM    9  N   UNL     1     -12.305   9.849  71.408  1.00  0.00    -0.374 NA 
HETATM   10  N   UNL     1     -11.563   9.496  70.345  1.00  0.00    -0.243 NA 
HETATM   11  H   UNL     1     -12.587   9.272  72.200  1.00  0.00     0.000 HD 
ENDBRANCH   5   6
ENDBRANCH   2   5
TORSDOF 2
ENDMDL
MODEL      100
REMARK 921   NORMALIZED FREE ENERGY PREDICTED BY IDOCK:   -2.23 KCAL/MOL
REMARK 922        TOTAL FREE ENERGY PREDICTED BY IDOCK:   -2.77 KCAL/MOL
REMARK 923 INTER-LIGAND FREE ENERGY PREDICTED BY IDOCK:   -2.72 KCAL/MOL
REMARK 924 INTRA-LIGAND FREE ENERGY PREDICTED BY IDOCK:   -0.05 KCAL/MOL
REMARK 927      BINDING AFFINITY PREDICTED BY RF-SCORE:    0.00 PKD
ROOT
HETATM    1  N   UNL     1      -9.177   6.701  70.256  1.00  0.00    -0.155 NA 
HETATM    2  C   UNL     1      -9.635   8.025  69.806  1.00  0.00    -0.171 C  
HETATM    3  H2  UNL     1      -9.799   6.323  70.971  1.00  0.00     0.000 HD 
HETATM    4  H1  UNL     1      -9.062   6.042  69.487  1.00  0.00     0.000 HD 
ENDROOT
BRANCH   2   5
HETATM    5  C   UNL     1      -9.810   9.019  70.968  1.00  0.00    -0.352 C  
BRANCH   5   6
HETATM    6  C   UNL     1     -11.231   9.236  71.371  1.00  0.00    -0.362 A  
HETATM    7  C   UNL     1     -12.110   8.478  72.113  1.00  0.00    -0.449 A  
HETATM    8  C   UNL     1     -13.294   9.239  72.157  1.00  0.00    -0.468 A  
HETATM    9  N   UNL     1     -13.183  10.393  71.497  1.00  0.00    -0.396 NA 
HETATM   10  N   UNL     1     -11.921  10.373  71.035  1.00  0.00    -0.367 NA 
HETATM   11  H   UNL     1     -13.888  11.120  71.373  1.00  0.00     0.000 HD 
ENDBRANCH   5   6
ENDBRANCH   2   5
TORSDOF 2
ENDMDL
MODEL      101
REMARK 921   NORMALIZED FREE ENERGY PREDICTED BY IDOCK:   -2.23 KCAL/MOL
REMARK 922        TOTAL FREE ENERGY PREDICTED BY IDOCK:   -2.77 KCAL/MOL
REMARK 923 INTER-LIGAND FREE ENERGY PREDICTED BY IDOCK:   -2.73 KCAL/MOL
REMARK 924 INTRA-LIGAND FREE ENERGY PREDICTED BY IDOCK:   -0.04 KCAL/MOL
REMARK 927      BINDING AFFINITY PREDICTED BY RF-SCORE:    0.00 PKD
ROOT
HETATM    1  N   UNL     1     -11.132  16.619  69.724  1.00  0.00    -0.391 NA 
HETATM    2  C   UNL     1     -10.986  16.119  68.349  1.00  0.00    -0.341 C  
HETATM    3  H2  UNL     1     -10.221  16.829  70.135  1.00  0.00     0.000 HD 
HETATM    4  H1  UNL     1     -11.756  17.422  69.788  1.00  0.00     0.000 HD 
ENDROOT
BRANCH   2   5
HETATM    5  C   UNL     1     -10.044  14.906  68.253  1.00  0.00    -0.221 C  
BRANCH   5   6
HETATM    6  C   UNL     1     -10.750  13.603  68.072  1.00  0.00    -0.247 A  
HETATM    7  C   UNL     1     -11.039  12.576  68.943  1.00  0.00    -0.309 A  
HETATM    8  C   UNL     1     -11.745  11.635  68.170  1.00  0.00    -0.295 A  
HETATM    9  N   UNL     1     -11.900  12.028  66.905  1.00  0.00    -0.616 NA 
HETATM   10  N   UNL     1     -11.294  13.227  66.870  1.00  0.00    -0.305 NA 
HETATM   11  H   UNL     1     -12.367  11.535  66.143  1.00  0.00     0.000 HD 
ENDBRANCH   5   6
ENDBRANCH   2   5
TORSDOF 2
ENDMDL
MODEL      102
REMARK 921   NORMALIZED FREE ENERGY PREDICTED BY IDOCK:   -2.22 KCAL/MOL
REMARK 922        TOTAL FREE ENERGY PREDICTED BY IDOCK:   -2.75 KCAL/MOL
REMARK 923 INTER-LIGAND FREE ENERGY PREDICTED BY IDOCK:   -2.72 KCAL/MOL
REMARK 924 INTRA-LIGAND FREE ENERGY PREDICTED BY IDOCK:   -0.04 KCAL/MOL
REMARK 927      BINDING AFFINITY PREDICTED BY RF-SCORE:    0.00 PKD
ROOT
HETATM    1  N   UNL     1     -11.947  10.846  68.437  1.00  0.00    -0.779 NA 
HETATM    2  C   UNL     1     -11.249  12.008  67.864  1.00  0.00    -0.264 C  
HETATM    3  H2  UNL     1     -12.855  10.709  67.993  1.00  0.00     0.000 HD 
HETATM    4  H1  UNL     1     -11.389   9.994  68.399  1.00  0.00     0.000 HD 
ENDROOT
BRANCH   2   5
HETATM    5  C   UNL     1     -12.091  13.295  67.922  1.00  0.00    -0.270 C  
BRANCH   5   6
HETATM    6  C   UNL     1     -11.293  14.530  68.182  1.00  0.00    -0.298 A  
HETATM    7  C   UNL     1     -11.639  15.773  68.664  1.00  0.00    -0.392 A  
HETATM    8  C   UNL     1     -10.431  16.495  68.699  1.00  0.00    -0.304 A  
HETATM    9  N   UNL     1      -9.393  15.772  68.276  1.00  0.00    -0.191 NA 
HETATM   10  N   UNL     1      -9.939  14.582  67.974  1.00  0.00    -0.219 NA 
HETATM   11  H   UNL     1      -8.416  16.056  68.200  1.00  0.00     0.000 HD 
ENDBRANCH   5   6
ENDBRANCH   2   5
TORSDOF 2
ENDMDL
MODEL      103
REMARK 921   NORMALIZED FREE ENERGY PREDICTED BY IDOCK:   -2.21 KCAL/MOL
REMARK 922        TOTAL FREE ENERGY PREDICTED BY IDOCK:   -2.75 KCAL/MOL
REMARK 923 INTER-LIGAND FREE ENERGY PREDICTED BY IDOCK:   -2.50 KCAL/MOL
REMARK 924 INTRA-LIGAND FREE ENERGY PREDICTED BY IDOCK:   -0.25 KCAL/MOL
REMARK 927      BINDING AFFINITY PREDICTED BY RF-SCORE:    0.00 PKD
ROOT
HETATM    1  N   UNL     1     -10.063   7.819  66.373  1.00  0.00    -0.481 NA 
HETATM    2  C   UNL     1      -9.369   9.048  65.958  1.00  0.00    -0.242 C  
HETATM    3  H2  UNL     1     -10.919   7.682  65.834  1.00  0.00     0.000 HD 
HETATM    4  H1  UNL     1      -9.466   6.994  66.326  1.00  0.00     0.000 HD 
ENDROOT
BRANCH   2   5
HETATM    5  C   UNL     1     -10.271  10.293  66.029  1.00  0.00    -0.298 C  
BRANCH   5   6
HETATM    6  C   UNL     1     -10.615  10.714  67.420  1.00  0.00    -0.256 A  
HETATM    7  C   UNL     1     -11.594  11.542  67.923  1.00  0.00    -0.352 A  
HETATM    8  C   UNL     1     -11.407  11.515  69.318  1.00  0.00    -0.288 A  
HETATM    9  N   UNL     1     -10.392  10.730  69.681  1.00  0.00    -0.424 NA 
HETATM   10  N   UNL     1      -9.930  10.250  68.513  1.00  0.00    -0.159 NA 
HETATM   11  H   UNL     1     -10.047  10.539  70.622  1.00  0.00     0.000 HD 
ENDBRANCH   5   6
ENDBRANCH   2   5
TORSDOF 2
ENDMDL
MODEL      104
REMARK 921   NORMALIZED FREE ENERGY PREDICTED BY IDOCK:   -2.15 KCAL/MOL
REMARK 922        TOTAL FREE ENERGY PREDICTED BY IDOCK:   -2.68 KCAL/MOL
REMARK 923 INTER-LIGAND FREE ENERGY PREDICTED BY IDOCK:   -2.63 KCAL/MOL
REMARK 924 INTRA-LIGAND FREE ENERGY PREDICTED BY IDOCK:   -0.05 KCAL/MOL
REMARK 927      BINDING AFFINITY PREDICTED BY RF-SCORE:    0.00 PKD
ROOT
HETATM    1  N   UNL     1      -7.553  10.806  62.582  1.00  0.00    -0.335 NA 
HETATM    2  C   UNL     1      -8.990  10.504  62.677  1.00  0.00    -0.274 C  
HETATM    3  H2  UNL     1      -6.999  10.103  63.071  1.00  0.00     0.000 HD 
HETATM    4  H1  UNL     1      -7.237  10.918  61.620  1.00  0.00     0.000 HD 
ENDROOT
BRANCH   2   5
HETATM    5  C   UNL     1      -9.468  10.336  64.130  1.00  0.00    -0.358 C  
BRANCH   5   6
HETATM    6  C   UNL     1     -10.275  11.484  64.639  1.00  0.00    -0.285 A  
HETATM    7  C   UNL     1     -10.616  12.697  64.082  1.00  0.00    -0.434 A  
HETATM    8  C   UNL     1     -11.413  13.329  65.056  1.00  0.00    -0.305 A  
HETATM    9  N   UNL     1     -11.574  12.580  66.148  1.00  0.00    -0.375 NA 
HETATM   10  N   UNL     1     -10.880  11.463  65.870  1.00  0.00    -0.261 NA 
HETATM   11  H   UNL     1     -12.099  12.803  66.994  1.00  0.00     0.000 HD 
ENDBRANCH   5   6
ENDBRANCH   2   5
TORSDOF 2
ENDMDL
MODEL      105
REMARK 921   NORMALIZED FREE ENERGY PREDICTED BY IDOCK:   -2.13 KCAL/MOL
REMARK 922        TOTAL FREE ENERGY PREDICTED BY IDOCK:   -2.66 KCAL/MOL
REMARK 923 INTER-LIGAND FREE ENERGY PREDICTED BY IDOCK:   -2.38 KCAL/MOL
REMARK 924 INTRA-LIGAND FREE ENERGY PREDICTED BY IDOCK:   -0.28 KCAL/MOL
REMARK 927      BINDING AFFINITY PREDICTED BY RF-SCORE:    0.00 PKD
ROOT
HETATM    1  N   UNL     1     -10.638  12.140  67.821  1.00  0.00    -0.200 NA 
HETATM    2  C   UNL     1     -11.827  12.919  68.199  1.00  0.00    -0.336 C  
HETATM    3  H2  UNL     1      -9.790  12.702  67.906  1.00  0.00     0.000 HD 
HETATM    4  H1  UNL     1     -10.554  11.270  68.345  1.00  0.00     0.000 HD 
ENDROOT
BRANCH   2   5
HETATM    5  C   UNL     1     -11.953  14.233  67.408  1.00  0.00    -0.426 C  
BRANCH   5   6
HETATM    6  C   UNL     1     -10.657  14.947  67.207  1.00  0.00    -0.272 A  
HETATM    7  C   UNL     1      -9.974  15.864  67.975  1.00  0.00    -0.220 A  
HETATM    8  C   UNL     1      -8.801  16.142  67.248  1.00  0.00    -0.186 A  
HETATM    9  N   UNL     1      -8.735  15.455  66.106  1.00  0.00    -0.442 NA 
HETATM   10  N   UNL     1      -9.868  14.733  66.105  1.00  0.00    -0.295 NA 
HETATM   11  H   UNL     1      -7.998  15.474  65.400  1.00  0.00     0.000 HD 
ENDBRANCH   5   6
ENDBRANCH   2   5
TORSDOF 2
ENDMDL
MODEL      106
REMARK 921   NORMALIZED FREE ENERGY PREDICTED BY IDOCK:   -2.13 KCAL/MOL
REMARK 922        TOTAL FREE ENERGY PREDICTED BY IDOCK:   -2.66 KCAL/MOL
REMARK 923 INTER-LIGAND FREE ENERGY PREDICTED BY IDOCK:   -2.38 KCAL/MOL
REMARK 924 INTRA-LIGAND FREE ENERGY PREDICTED BY IDOCK:   -0.28 KCAL/MOL
REMARK 927      BINDING AFFINITY PREDICTED BY RF-SCORE:    0.00 PKD
ROOT
HETATM    1  N   UNL     1     -12.145  10.494  68.474  1.00  0.00    -0.790 NA 
HETATM    2  C   UNL     1     -12.006  11.015  69.842  1.00  0.00    -0.351 C  
HETATM    3  H2  UNL     1     -12.448   9.520  68.483  1.00  0.00     0.000 HD 
HETATM    4  H1  UNL     1     -12.762  11.064  67.896  1.00  0.00     0.000 HD 
ENDROOT
BRANCH   2   5
HETATM    5  C   UNL     1     -11.074  10.156  70.714  1.00  0.00    -0.372 C  
BRANCH   5   6
HETATM    6  C   UNL     1     -10.267   9.164  69.943  1.00  0.00    -0.205 A  
HETATM    7  C   UNL     1     -10.333   7.792  69.843  1.00  0.00    -0.223 A  
HETATM    8  C   UNL     1      -9.310   7.447  68.938  1.00  0.00    -0.145 A  
HETATM    9  N   UNL     1      -8.644   8.513  68.492  1.00  0.00    -0.137 NA 
HETATM   10  N   UNL     1      -9.246   9.544  69.110  1.00  0.00    -0.156 NA 
HETATM   11  H   UNL     1      -7.862   8.540  67.836  1.00  0.00     0.000 HD 
ENDBRANCH   5   6
ENDBRANCH   2   5
TORSDOF 2
ENDMDL
MODEL      107
REMARK 921   NORMALIZED FREE ENERGY PREDICTED BY IDOCK:   -2.13 KCAL/MOL
REMARK 922        TOTAL FREE ENERGY PREDICTED BY IDOCK:   -2.65 KCAL/MOL
REMARK 923 INTER-LIGAND FREE ENERGY PREDICTED BY IDOCK:   -2.61 KCAL/MOL
REMARK 924 INTRA-LIGAND FREE ENERGY PREDICTED BY IDOCK:   -0.04 KCAL/MOL
REMARK 927      BINDING AFFINITY PREDICTED BY RF-SCORE:    0.00 PKD
ROOT
HETATM    1  N   UNL     1      -9.823   7.358  69.569  1.00  0.00    -0.164 NA 
HETATM    2  C   UNL     1      -9.663   8.820  69.576  1.00  0.00    -0.172 C  
HETATM    3  H2  UNL     1     -10.279   7.044  68.712  1.00  0.00     0.000 HD 
HETATM    4  H1  UNL     1      -8.943   6.865  69.717  1.00  0.00     0.000 HD 
ENDROOT
BRANCH   2   5
HETATM    5  C   UNL     1     -10.992   9.564  69.352  1.00  0.00    -0.192 C  
BRANCH   5   6
HETATM    6  C   UNL     1     -11.012  10.411  68.122  1.00  0.00    -0.281 A  
HETATM    7  C   UNL     1     -10.186  10.468  67.021  1.00  0.00    -0.275 A  
HETATM    8  C   UNL     1     -10.751  11.460  66.197  1.00  0.00    -0.267 A  
HETATM    9  N   UNL     1     -11.853  11.995  66.726  1.00  0.00    -0.614 NA 
HETATM   10  N   UNL     1     -11.996  11.338  67.890  1.00  0.00    -0.640 NA 
HETATM   11  H   UNL     1     -12.447  12.728  66.338  1.00  0.00     0.000 HD 
ENDBRANCH   5   6
ENDBRANCH   2   5
TORSDOF 2
ENDMDL
MODEL      108
REMARK 921   NORMALIZED FREE ENERGY PREDICTED BY IDOCK:   -2.12 KCAL/MOL
REMARK 922        TOTAL FREE ENERGY PREDICTED BY IDOCK:   -2.65 KCAL/MOL
REMARK 923 INTER-LIGAND FREE ENERGY PREDICTED BY IDOCK:   -2.62 KCAL/MOL
REMARK 924 INTRA-LIGAND FREE ENERGY PREDICTED BY IDOCK:   -0.03 KCAL/MOL
REMARK 927      BINDING AFFINITY PREDICTED BY RF-SCORE:    0.00 PKD
ROOT
HETATM    1  N   UNL     1     -13.032  13.925  65.263  1.00  0.00    -0.774 NA 
HETATM    2  C   UNL     1     -12.010  12.890  65.484  1.00  0.00    -0.436 C  
HETATM    3  H2  UNL     1     -12.787  14.790  65.747  1.00  0.00     0.000 HD 
HETATM    4  H1  UNL     1     -13.210  14.098  64.275  1.00  0.00     0.000 HD 
ENDROOT
BRANCH   2   5
HETATM    5  C   UNL     1     -11.739  12.630  66.976  1.00  0.00    -0.438 C  
BRANCH   5   6
HETATM    6  C   UNL     1     -10.599  11.700  67.232  1.00  0.00    -0.228 A  
HETATM    7  C   UNL     1     -10.126  10.602  66.548  1.00  0.00    -0.275 A  
HETATM    8  C   UNL     1      -9.008  10.170  67.287  1.00  0.00    -0.135 A  
HETATM    9  N   UNL     1      -8.781  10.933  68.359  1.00  0.00    -0.140 NA 
HETATM   10  N   UNL     1      -9.754  11.858  68.301  1.00  0.00    -0.197 NA 
HETATM   11  H   UNL     1      -8.043  10.836  69.056  1.00  0.00     0.000 HD 
ENDBRANCH   5   6
ENDBRANCH   2   5
TORSDOF 2
ENDMDL
MODEL      109
REMARK 921   NORMALIZED FREE ENERGY PREDICTED BY IDOCK:   -2.12 KCAL/MOL
REMARK 922        TOTAL FREE ENERGY PREDICTED BY IDOCK:   -2.65 KCAL/MOL
REMARK 923 INTER-LIGAND FREE ENERGY PREDICTED BY IDOCK:   -2.40 KCAL/MOL
REMARK 924 INTRA-LIGAND FREE ENERGY PREDICTED BY IDOCK:   -0.25 KCAL/MOL
REMARK 927      BINDING AFFINITY PREDICTED BY RF-SCORE:    0.00 PKD
ROOT
HETATM    1  N   UNL     1      -9.961  10.795  67.335  1.00  0.00    -0.180 NA 
HETATM    2  C   UNL     1     -10.332  11.050  65.934  1.00  0.00    -0.257 C  
HETATM    3  H2  UNL     1     -10.788  10.623  67.907  1.00  0.00     0.000 HD 
HETATM    4  H1  UNL     1      -9.285  10.038  67.432  1.00  0.00     0.000 HD 
ENDROOT
BRANCH   2   5
HETATM    5  C   UNL     1     -11.352  12.193  65.788  1.00  0.00    -0.402 C  
BRANCH   5   6
HETATM    6  C   UNL     1     -10.748  13.557  65.859  1.00  0.00    -0.277 A  
HETATM    7  C   UNL     1     -10.884  14.674  65.065  1.00  0.00    -0.431 A  
HETATM    8  C   UNL     1     -10.070  15.649  65.672  1.00  0.00    -0.365 A  
HETATM    9  N   UNL     1      -9.464  15.195  66.770  1.00  0.00    -0.229 NA 
HETATM   10  N   UNL     1      -9.895  13.926  66.867  1.00  0.00    -0.260 NA 
HETATM   11  H   UNL     1      -8.824  15.693  67.390  1.00  0.00     0.000 HD 
ENDBRANCH   5   6
ENDBRANCH   2   5
TORSDOF 2
ENDMDL
MODEL      110
REMARK 921   NORMALIZED FREE ENERGY PREDICTED BY IDOCK:   -2.11 KCAL/MOL
REMARK 922        TOTAL FREE ENERGY PREDICTED BY IDOCK:   -2.63 KCAL/MOL
REMARK 923 INTER-LIGAND FREE ENERGY PREDICTED BY IDOCK:   -2.39 KCAL/MOL
REMARK 924 INTRA-LIGAND FREE ENERGY PREDICTED BY IDOCK:   -0.24 KCAL/MOL
REMARK 927      BINDING AFFINITY PREDICTED BY RF-SCORE:    0.00 PKD
ROOT
HETATM    1  N   UNL     1      -7.852  10.259  65.810  1.00  0.00    -0.140 NA 
HETATM    2  C   UNL     1      -8.909  10.536  66.795  1.00  0.00    -0.131 C  
HETATM    3  H2  UNL     1      -7.087  10.927  65.897  1.00  0.00     0.000 HD 
HETATM    4  H1  UNL     1      -7.509   9.300  65.861  1.00  0.00     0.000 HD 
ENDROOT
BRANCH   2   5
HETATM    5  C   UNL     1      -9.428  11.983  66.718  1.00  0.00    -0.212 C  
BRANCH   5   6
HETATM    6  C   UNL     1     -10.216  12.280  65.484  1.00  0.00    -0.269 A  
HETATM    7  C   UNL     1     -10.996  13.354  65.118  1.00  0.00    -0.315 A  
HETATM    8  C   UNL     1     -11.451  13.045  63.822  1.00  0.00    -0.429 A  
HETATM    9  N   UNL     1     -10.996  11.867  63.390  1.00  0.00    -0.613 NA 
HETATM   10  N   UNL     1     -10.244  11.424  64.412  1.00  0.00    -0.283 NA 
HETATM   11  H   UNL     1     -11.177  11.410  62.496  1.00  0.00     0.000 HD 
ENDBRANCH   5   6
ENDBRANCH   2   5
TORSDOF 2
ENDMDL
MODEL      111
REMARK 921   NORMALIZED FREE ENERGY PREDICTED BY IDOCK:   -2.10 KCAL/MOL
REMARK 922        TOTAL FREE ENERGY PREDICTED BY IDOCK:   -2.62 KCAL/MOL
REMARK 923 INTER-LIGAND FREE ENERGY PREDICTED BY IDOCK:   -2.59 KCAL/MOL
REMARK 924 INTRA-LIGAND FREE ENERGY PREDICTED BY IDOCK:   -0.03 KCAL/MOL
REMARK 927      BINDING AFFINITY PREDICTED BY RF-SCORE:    0.00 PKD
ROOT
HETATM    1  N   UNL     1      -9.468  14.499  69.162  1.00  0.00    -0.396 NA 
HETATM    2  C   UNL     1     -10.768  14.525  68.476  1.00  0.00    -0.250 C  
HETATM    3  H2  UNL     1      -8.865  13.772  68.777  1.00  0.00     0.000 HD 
HETATM    4  H1  UNL     1      -8.999  15.404  69.153  1.00  0.00     0.000 HD 
ENDROOT
BRANCH   2   5
HETATM    5  C   UNL     1     -11.475  13.159  68.489  1.00  0.00    -0.338 C  
BRANCH   5   6
HETATM    6  C   UNL     1     -12.079  12.801  69.808  1.00  0.00    -0.237 A  
HETATM    7  C   UNL     1     -12.374  13.550  70.926  1.00  0.00    -0.437 A  
HETATM    8  C   UNL     1     -12.950  12.637  71.830  1.00  0.00    -0.313 A  
HETATM    9  N   UNL     1     -13.021  11.402  71.330  1.00  0.00    -0.412 NA 
HETATM   10  N   UNL     1     -12.493  11.527  70.101  1.00  0.00    -0.206 NA 
HETATM   11  H   UNL     1     -13.389  10.561  71.776  1.00  0.00     0.000 HD 
ENDBRANCH   5   6
ENDBRANCH   2   5
TORSDOF 2
ENDMDL
MODEL      112
REMARK 921   NORMALIZED FREE ENERGY PREDICTED BY IDOCK:   -2.09 KCAL/MOL
REMARK 922        TOTAL FREE ENERGY PREDICTED BY IDOCK:   -2.61 KCAL/MOL
REMARK 923 INTER-LIGAND FREE ENERGY PREDICTED BY IDOCK:   -2.38 KCAL/MOL
REMARK 924 INTRA-LIGAND FREE ENERGY PREDICTED BY IDOCK:   -0.23 KCAL/MOL
REMARK 927      BINDING AFFINITY PREDICTED BY RF-SCORE:    0.00 PKD
ROOT
HETATM    1  N   UNL     1     -12.031  14.987  68.219  1.00  0.00    -0.541 NA 
HETATM    2  C   UNL     1     -11.427  15.780  69.301  1.00  0.00    -0.365 C  
HETATM    3  H2  UNL     1     -11.345  14.777  67.494  1.00  0.00     0.000 HD 
HETATM    4  H1  UNL     1     -12.477  14.135  68.558  1.00  0.00     0.000 HD 
ENDROOT
BRANCH   2   5
HETATM    5  C   UNL     1     -10.753  17.066  68.790  1.00  0.00    -0.313 C  
BRANCH   5   6
HETATM    6  C   UNL     1      -9.497  16.826  68.018  1.00  0.00    -0.233 A  
HETATM    7  C   UNL     1      -8.300  17.504  67.961  1.00  0.00    -0.241 A  
HETATM    8  C   UNL     1      -7.508  16.763  67.064  1.00  0.00    -0.201 A  
HETATM    9  N   UNL     1      -8.145  15.693  66.586  1.00  0.00    -0.275 NA 
HETATM   10  N   UNL     1      -9.347  15.748  67.183  1.00  0.00    -0.210 NA 
HETATM   11  H   UNL     1      -7.801  14.997  65.923  1.00  0.00     0.000 HD 
ENDBRANCH   5   6
ENDBRANCH   2   5
TORSDOF 2
ENDMDL
MODEL      113
REMARK 921   NORMALIZED FREE ENERGY PREDICTED BY IDOCK:   -2.09 KCAL/MOL
REMARK 922        TOTAL FREE ENERGY PREDICTED BY IDOCK:   -2.61 KCAL/MOL
REMARK 923 INTER-LIGAND FREE ENERGY PREDICTED BY IDOCK:   -2.33 KCAL/MOL
REMARK 924 INTRA-LIGAND FREE ENERGY PREDICTED BY IDOCK:   -0.28 KCAL/MOL
REMARK 927      BINDING AFFINITY PREDICTED BY RF-SCORE:    0.00 PKD
ROOT
HETATM    1  N   UNL     1     -12.063   6.963  70.100  1.00  0.00    -0.641 NA 
HETATM    2  C   UNL     1     -11.060   8.015  70.325  1.00  0.00    -0.224 C  
HETATM    3  H2  UNL     1     -11.682   6.211  69.527  1.00  0.00     0.000 HD 
HETATM    4  H1  UNL     1     -12.454   6.600  70.969  1.00  0.00     0.000 HD 
ENDROOT
BRANCH   2   5
HETATM    5  C   UNL     1     -10.470   8.564  69.014  1.00  0.00    -0.216 C  
BRANCH   5   6
HETATM    6  C   UNL     1     -10.154   7.510  68.004  1.00  0.00    -0.183 A  
HETATM    7  C   UNL     1      -9.022   6.763  67.766  1.00  0.00    -0.116 A  
HETATM    8  C   UNL     1      -9.363   5.926  66.687  1.00  0.00    -0.145 A  
HETATM    9  N   UNL     1     -10.615   6.118  66.268  1.00  0.00    -0.484 NA 
HETATM   10  N   UNL     1     -11.077   7.079  67.086  1.00  0.00    -0.322 NA 
HETATM   11  H   UNL     1     -11.106   5.646  65.508  1.00  0.00     0.000 HD 
ENDBRANCH   5   6
ENDBRANCH   2   5
TORSDOF 2
ENDMDL
MODEL      114
REMARK 921   NORMALIZED FREE ENERGY PREDICTED BY IDOCK:   -2.08 KCAL/MOL
REMARK 922        TOTAL FREE ENERGY PREDICTED BY IDOCK:   -2.60 KCAL/MOL
REMARK 923 INTER-LIGAND FREE ENERGY PREDICTED BY IDOCK:   -2.56 KCAL/MOL
REMARK 924 INTRA-LIGAND FREE ENERGY PREDICTED BY IDOCK:   -0.03 KCAL/MOL
REMARK 927      BINDING AFFINITY PREDICTED BY RF-SCORE:    0.00 PKD
ROOT
HETATM    1  N   UNL     1     -13.064   8.607  72.964  1.00  0.00    -0.762 NA 
HETATM    2  C   UNL     1     -12.352   9.300  71.879  1.00  0.00    -0.382 C  
HETATM    3  H2  UNL     1     -12.677   8.858  73.874  1.00  0.00     0.000 HD 
HETATM    4  H1  UNL     1     -14.070   8.764  72.938  1.00  0.00     0.000 HD 
ENDROOT
BRANCH   2   5
HETATM    5  C   UNL     1     -10.832   9.062  71.918  1.00  0.00    -0.413 C  
BRANCH   5   6
HETATM    6  C   UNL     1     -10.184   9.067  70.572  1.00  0.00    -0.219 A  
HETATM    7  C   UNL     1      -9.141   9.798  70.048  1.00  0.00    -0.258 A  
HETATM    8  C   UNL     1      -8.992   9.322  68.732  1.00  0.00    -0.132 A  
HETATM    9  N   UNL     1      -9.868   8.361  68.436  1.00  0.00    -0.171 NA 
HETATM   10  N   UNL     1     -10.576   8.218  69.569  1.00  0.00    -0.227 NA 
HETATM   11  H   UNL     1      -9.975   7.853  67.557  1.00  0.00     0.000 HD 
ENDBRANCH   5   6
ENDBRANCH   2   5
TORSDOF 2
ENDMDL
MODEL      115
REMARK 921   NORMALIZED FREE ENERGY PREDICTED BY IDOCK:   -2.07 KCAL/MOL
REMARK 922        TOTAL FREE ENERGY PREDICTED BY IDOCK:   -2.58 KCAL/MOL
REMARK 923 INTER-LIGAND FREE ENERGY PREDICTED BY IDOCK:   -2.30 KCAL/MOL
REMARK 924 INTRA-LIGAND FREE ENERGY PREDICTED BY IDOCK:   -0.29 KCAL/MOL
REMARK 927      BINDING AFFINITY PREDICTED BY RF-SCORE:    0.00 PKD
ROOT
HETATM    1  N   UNL     1     -12.405  10.486  69.005  1.00  0.00    -0.762 NA 
HETATM    2  C   UNL     1     -11.489  11.446  68.370  1.00  0.00    -0.299 C  
HETATM    3  H2  UNL     1     -12.215  10.404  70.004  1.00  0.00     0.000 HD 
HETATM    4  H1  UNL     1     -13.386  10.706  68.836  1.00  0.00     0.000 HD 
ENDROOT
BRANCH   2   5
HETATM    5  C   UNL     1     -10.008  11.113  68.625  1.00  0.00    -0.210 C  
BRANCH   5   6
HETATM    6  C   UNL     1      -9.786   9.766  69.232  1.00  0.00    -0.196 A  
HETATM    7  C   UNL     1      -9.306   9.371  70.461  1.00  0.00    -0.319 A  
HETATM    8  C   UNL     1      -9.359   7.964  70.433  1.00  0.00    -0.159 A  
HETATM    9  N   UNL     1      -9.838   7.495  69.279  1.00  0.00    -0.167 NA 
HETATM   10  N   UNL     1     -10.096   8.606  68.569  1.00  0.00    -0.185 NA 
HETATM   11  H   UNL     1      -9.975   6.523  69.002  1.00  0.00     0.000 HD 
ENDBRANCH   5   6
ENDBRANCH   2   5
TORSDOF 2
ENDMDL
MODEL      116
REMARK 921   NORMALIZED FREE ENERGY PREDICTED BY IDOCK:   -2.05 KCAL/MOL
REMARK 922        TOTAL FREE ENERGY PREDICTED BY IDOCK:   -2.56 KCAL/MOL
REMARK 923 INTER-LIGAND FREE ENERGY PREDICTED BY IDOCK:   -2.27 KCAL/MOL
REMARK 924 INTRA-LIGAND FREE ENERGY PREDICTED BY IDOCK:   -0.29 KCAL/MOL
REMARK 927      BINDING AFFINITY PREDICTED BY RF-SCORE:    0.00 PKD
ROOT
HETATM    1  N   UNL     1      -7.905  12.786  68.952  1.00  0.00    -0.328 NA 
HETATM    2  C   UNL     1      -8.137  12.376  67.559  1.00  0.00    -0.173 C  
HETATM    3  H2  UNL     1      -8.283  12.098  69.604  1.00  0.00     0.000 HD 
HETATM    4  H1  UNL     1      -6.923  12.976  69.149  1.00  0.00     0.000 HD 
ENDROOT
BRANCH   2   5
HETATM    5  C   UNL     1      -9.619  12.090  67.261  1.00  0.00    -0.185 C  
BRANCH   5   6
HETATM    6  C   UNL     1     -10.440  11.819  68.479  1.00  0.00    -0.215 A  
HETATM    7  C   UNL     1     -11.560  12.430  68.997  1.00  0.00    -0.362 A  
HETATM    8  C   UNL     1     -11.871  11.693  70.156  1.00  0.00    -0.344 A  
HETATM    9  N   UNL     1     -11.019  10.686  70.362  1.00  0.00    -0.448 NA 
HETATM   10  N   UNL     1     -10.164  10.778  69.329  1.00  0.00    -0.215 NA 
HETATM   11  H   UNL     1     -11.018  10.007  71.124  1.00  0.00     0.000 HD 
ENDBRANCH   5   6
ENDBRANCH   2   5
TORSDOF 2
ENDMDL
MODEL      117
REMARK 921   NORMALIZED FREE ENERGY PREDICTED BY IDOCK:   -2.02 KCAL/MOL
REMARK 922        TOTAL FREE ENERGY PREDICTED BY IDOCK:   -2.53 KCAL/MOL
REMARK 923 INTER-LIGAND FREE ENERGY PREDICTED BY IDOCK:   -2.24 KCAL/MOL
REMARK 924 INTRA-LIGAND FREE ENERGY PREDICTED BY IDOCK:   -0.29 KCAL/MOL
REMARK 927      BINDING AFFINITY PREDICTED BY RF-SCORE:    0.00 PKD
ROOT
HETATM    1  N   UNL     1      -7.689  14.745  69.974  1.00  0.00    -0.353 NA 
HETATM    2  C   UNL     1      -7.884  15.171  68.580  1.00  0.00    -0.135 C  
HETATM    3  H2  UNL     1      -8.344  14.003  70.225  1.00  0.00     0.000 HD 
HETATM    4  H1  UNL     1      -6.729  14.465  70.170  1.00  0.00     0.000 HD 
ENDROOT
BRANCH   2   5
HETATM    5  C   UNL     1      -9.335  15.592  68.284  1.00  0.00    -0.192 C  
BRANCH   5   6
HETATM    6  C   UNL     1     -10.334  15.039  69.247  1.00  0.00    -0.246 A  
HETATM    7  C   UNL     1     -11.195  13.966  69.176  1.00  0.00    -0.311 A  
HETATM    8  C   UNL     1     -11.862  13.956  70.416  1.00  0.00    -0.265 A  
HETATM    9  N   UNL     1     -11.459  14.942  71.219  1.00  0.00    -0.503 NA 
HETATM   10  N   UNL     1     -10.528  15.582  70.491  1.00  0.00    -0.237 NA 
HETATM   11  H   UNL     1     -11.781  15.159  72.162  1.00  0.00     0.000 HD 
ENDBRANCH   5   6
ENDBRANCH   2   5
TORSDOF 2
ENDMDL
MODEL      118
REMARK 921   NORMALIZED FREE ENERGY PREDICTED BY IDOCK:   -2.02 KCAL/MOL
REMARK 922        TOTAL FREE ENERGY PREDICTED BY IDOCK:   -2.53 KCAL/MOL
REMARK 923 INTER-LIGAND FREE ENERGY PREDICTED BY IDOCK:   -2.32 KCAL/MOL
REMARK 924 INTRA-LIGAND FREE ENERGY PREDICTED BY IDOCK:   -0.21 KCAL/MOL
REMARK 927      BINDING AFFINITY PREDICTED BY RF-SCORE:    0.00 PKD
ROOT
HETATM    1  N   UNL     1      -6.331  14.514  67.460  1.00  0.00    -0.327 NA 
HETATM    2  C   UNL     1      -7.050  15.792  67.347  1.00  0.00    -0.203 C  
HETATM    3  H2  UNL     1      -6.304  14.028  66.563  1.00  0.00     0.000 HD 
HETATM    4  H1  UNL     1      -5.394  14.622  67.846  1.00  0.00     0.000 HD 
ENDROOT
BRANCH   2   5
HETATM    5  C   UNL     1      -8.466  15.628  66.765  1.00  0.00    -0.307 C  
BRANCH   5   6
HETATM    6  C   UNL     1      -9.531  15.469  67.799  1.00  0.00    -0.204 A  
HETATM    7  C   UNL     1     -10.829  15.924  67.871  1.00  0.00    -0.327 A  
HETATM    8  C   UNL     1     -11.322  15.420  69.089  1.00  0.00    -0.315 A  
HETATM    9  N   UNL     1     -10.413  14.696  69.746  1.00  0.00    -0.443 NA 
HETATM   10  N   UNL     1      -9.337  14.735  68.941  1.00  0.00    -0.200 NA 
HETATM   11  H   UNL     1     -10.511  14.225  70.645  1.00  0.00     0.000 HD 
ENDBRANCH   5   6
ENDBRANCH   2   5
TORSDOF 2
ENDMDL
MODEL      119
REMARK 921   NORMALIZED FREE ENERGY PREDICTED BY IDOCK:   -2.02 KCAL/MOL
REMARK 922        TOTAL FREE ENERGY PREDICTED BY IDOCK:   -2.53 KCAL/MOL
REMARK 923 INTER-LIGAND FREE ENERGY PREDICTED BY IDOCK:   -2.29 KCAL/MOL
REMARK 924 INTRA-LIGAND FREE ENERGY PREDICTED BY IDOCK:   -0.24 KCAL/MOL
REMARK 927      BINDING AFFINITY PREDICTED BY RF-SCORE:    0.00 PKD
ROOT
HETATM    1  N   UNL     1      -6.629  15.238  69.245  1.00  0.00    -0.130 NA 
HETATM    2  C   UNL     1      -6.241  16.594  69.663  1.00  0.00    -0.226 C  
HETATM    3  H2  UNL     1      -6.149  14.969  68.386  1.00  0.00     0.000 HD 
HETATM    4  H1  UNL     1      -6.485  14.544  69.978  1.00  0.00     0.000 HD 
ENDROOT
BRANCH   2   5
HETATM    5  C   UNL     1      -6.459  17.642  68.557  1.00  0.00    -0.196 C  
BRANCH   5   6
HETATM    6  C   UNL     1      -7.843  18.202  68.516  1.00  0.00    -0.297 A  
HETATM    7  C   UNL     1      -8.321  19.478  68.320  1.00  0.00    -0.375 A  
HETATM    8  C   UNL     1      -9.722  19.351  68.373  1.00  0.00    -0.408 A  
HETATM    9  N   UNL     1     -10.112  18.092  68.584  1.00  0.00    -0.387 NA 
HETATM   10  N   UNL     1      -8.955  17.412  68.661  1.00  0.00    -0.270 NA 
HETATM   11  H   UNL     1     -11.062  17.731  68.667  1.00  0.00     0.000 HD 
ENDBRANCH   5   6
ENDBRANCH   2   5
TORSDOF 2
ENDMDL
MODEL      120
REMARK 921   NORMALIZED FREE ENERGY PREDICTED BY IDOCK:   -2.01 KCAL/MOL
REMARK 922        TOTAL FREE ENERGY PREDICTED BY IDOCK:   -2.53 KCAL/MOL
REMARK 923 INTER-LIGAND FREE ENERGY PREDICTED BY IDOCK:   -2.27 KCAL/MOL
REMARK 924 INTRA-LIGAND FREE ENERGY PREDICTED BY IDOCK:   -0.26 KCAL/MOL
REMARK 927      BINDING AFFINITY PREDICTED BY RF-SCORE:    0.00 PKD
ROOT
HETATM    1  N   UNL     1      -9.625  13.364  65.787  1.00  0.00    -0.487 NA 
HETATM    2  C   UNL     1      -9.189  12.969  67.135  1.00  0.00    -0.226 C  
HETATM    3  H2  UNL     1      -8.839  13.704  65.233  1.00  0.00     0.000 HD 
HETATM    4  H1  UNL     1     -10.121  12.619  65.299  1.00  0.00     0.000 HD 
ENDROOT
BRANCH   2   5
HETATM    5  C   UNL     1      -8.441  14.094  67.871  1.00  0.00    -0.167 C  
BRANCH   5   6
HETATM    6  C   UNL     1      -9.311  15.241  68.271  1.00  0.00    -0.194 A  
HETATM    7  C   UNL     1      -9.028  16.478  68.806  1.00  0.00    -0.250 A  
HETATM    8  C   UNL     1     -10.279  17.110  68.935  1.00  0.00    -0.332 A  
HETATM    9  N   UNL     1     -11.284  16.341  68.513  1.00  0.00    -0.365 NA 
HETATM   10  N   UNL     1     -10.673  15.215  68.109  1.00  0.00    -0.248 NA 
HETATM   11  H   UNL     1     -12.281  16.557  68.501  1.00  0.00     0.000 HD 
ENDBRANCH   5   6
ENDBRANCH   2   5
TORSDOF 2
ENDMDL
MODEL      121
REMARK 921   NORMALIZED FREE ENERGY PREDICTED BY IDOCK:   -2.01 KCAL/MOL
REMARK 922        TOTAL FREE ENERGY PREDICTED BY IDOCK:   -2.51 KCAL/MOL
REMARK 923 INTER-LIGAND FREE ENERGY PREDICTED BY IDOCK:   -2.23 KCAL/MOL
REMARK 924 INTRA-LIGAND FREE ENERGY PREDICTED BY IDOCK:   -0.28 KCAL/MOL
REMARK 927      BINDING AFFINITY PREDICTED BY RF-SCORE:    0.00 PKD
ROOT
HETATM    1  N   UNL     1      -7.990  12.779  68.787  1.00  0.00    -0.326 NA 
HETATM    2  C   UNL     1      -7.789  12.396  67.381  1.00  0.00    -0.174 C  
HETATM    3  H2  UNL     1      -8.532  12.073  69.285  1.00  0.00     0.000 HD 
HETATM    4  H1  UNL     1      -7.115  12.977  69.271  1.00  0.00     0.000 HD 
ENDROOT
BRANCH   2   5
HETATM    5  C   UNL     1      -9.110  12.098  66.651  1.00  0.00    -0.206 C  
BRANCH   5   6
HETATM    6  C   UNL     1     -10.234  13.001  67.040  1.00  0.00    -0.245 A  
HETATM    7  C   UNL     1     -10.742  14.148  66.470  1.00  0.00    -0.289 A  
HETATM    8  C   UNL     1     -11.817  14.517  67.300  1.00  0.00    -0.392 A  
HETATM    9  N   UNL     1     -11.988  13.673  68.319  1.00  0.00    -0.363 NA 
HETATM   10  N   UNL     1     -11.020  12.758  68.137  1.00  0.00    -0.235 NA 
HETATM   11  H   UNL     1     -12.687  13.712  69.061  1.00  0.00     0.000 HD 
ENDBRANCH   5   6
ENDBRANCH   2   5
TORSDOF 2
ENDMDL
MODEL      122
REMARK 921   NORMALIZED FREE ENERGY PREDICTED BY IDOCK:   -1.99 KCAL/MOL
REMARK 922        TOTAL FREE ENERGY PREDICTED BY IDOCK:   -2.50 KCAL/MOL
REMARK 923 INTER-LIGAND FREE ENERGY PREDICTED BY IDOCK:   -2.26 KCAL/MOL
REMARK 924 INTRA-LIGAND FREE ENERGY PREDICTED BY IDOCK:   -0.24 KCAL/MOL
REMARK 927      BINDING AFFINITY PREDICTED BY RF-SCORE:    0.00 PKD
ROOT
HETATM    1  N   UNL     1     -12.018  10.961  67.938  1.00  0.00    -0.735 NA 
HETATM    2  C   UNL     1     -11.526  11.798  66.833  1.00  0.00    -0.293 C  
HETATM    3  H2  UNL     1     -11.363  10.966  68.721  1.00  0.00     0.000 HD 
HETATM    4  H1  UNL     1     -12.955  11.223  68.244  1.00  0.00     0.000 HD 
ENDROOT
BRANCH   2   5
HETATM    5  C   UNL     1     -10.112  11.402  66.372  1.00  0.00    -0.255 C  
BRANCH   5   6
HETATM    6  C   UNL     1      -9.049  11.659  67.390  1.00  0.00    -0.169 A  
HETATM    7  C   UNL     1      -7.911  12.435  67.366  1.00  0.00    -0.178 A  
HETATM    8  C   UNL     1      -7.339  12.274  68.642  1.00  0.00    -0.106 A  
HETATM    9  N   UNL     1      -8.054  11.462  69.423  1.00  0.00    -0.348 NA 
HETATM   10  N   UNL     1      -9.090  11.106  68.644  1.00  0.00    -0.174 NA 
HETATM   11  H   UNL     1      -7.861  11.179  70.384  1.00  0.00     0.000 HD 
ENDBRANCH   5   6
ENDBRANCH   2   5
TORSDOF 2
ENDMDL
MODEL      123
REMARK 921   NORMALIZED FREE ENERGY PREDICTED BY IDOCK:   -1.99 KCAL/MOL
REMARK 922        TOTAL FREE ENERGY PREDICTED BY IDOCK:   -2.50 KCAL/MOL
REMARK 923 INTER-LIGAND FREE ENERGY PREDICTED BY IDOCK:   -2.25 KCAL/MOL
REMARK 924 INTRA-LIGAND FREE ENERGY PREDICTED BY IDOCK:   -0.25 KCAL/MOL
REMARK 927      BINDING AFFINITY PREDICTED BY RF-SCORE:    0.00 PKD
ROOT
HETATM    1  N   UNL     1     -13.086  10.348  71.066  1.00  0.00    -0.388 NA 
HETATM    2  C   UNL     1     -12.511  11.694  71.203  1.00  0.00    -0.307 C  
HETATM    3  H2  UNL     1     -12.449   9.727  70.567  1.00  0.00     0.000 HD 
HETATM    4  H1  UNL     1     -13.363   9.945  71.961  1.00  0.00     0.000 HD 
ENDROOT
BRANCH   2   5
HETATM    5  C   UNL     1     -12.094  12.302  69.852  1.00  0.00    -0.319 C  
BRANCH   5   6
HETATM    6  C   UNL     1     -11.283  11.383  68.998  1.00  0.00    -0.256 A  
HETATM    7  C   UNL     1      -9.947  11.366  68.664  1.00  0.00    -0.209 A  
HETATM    8  C   UNL     1      -9.796  10.232  67.843  1.00  0.00    -0.157 A  
HETATM    9  N   UNL     1     -10.943   9.573  67.668  1.00  0.00    -0.471 NA 
HETATM   10  N   UNL     1     -11.829  10.286  68.383  1.00  0.00    -0.139 NA 
HETATM   11  H   UNL     1     -11.108   8.728  67.121  1.00  0.00     0.000 HD 
ENDBRANCH   5   6
ENDBRANCH   2   5
TORSDOF 2
ENDMDL
MODEL      124
REMARK 921   NORMALIZED FREE ENERGY PREDICTED BY IDOCK:   -1.98 KCAL/MOL
REMARK 922        TOTAL FREE ENERGY PREDICTED BY IDOCK:   -2.49 KCAL/MOL
REMARK 923 INTER-LIGAND FREE ENERGY PREDICTED BY IDOCK:   -2.19 KCAL/MOL
REMARK 924 INTRA-LIGAND FREE ENERGY PREDICTED BY IDOCK:   -0.29 KCAL/MOL
REMARK 927      BINDING AFFINITY PREDICTED BY RF-SCORE:    0.00 PKD
ROOT
HETATM    1  N   UNL     1      -9.391  11.531  62.912  1.00  0.00    -0.524 NA 
HETATM    2  C   UNL     1     -10.322  12.245  63.800  1.00  0.00    -0.435 C  
HETATM    3  H2  UNL     1      -9.760  10.614  62.658  1.00  0.00     0.000 HD 
HETATM    4  H1  UNL     1      -9.148  12.070  62.082  1.00  0.00     0.000 HD 
ENDROOT
BRANCH   2   5
HETATM    5  C   UNL     1     -10.690  11.432  65.053  1.00  0.00    -0.340 C  
BRANCH   5   6
HETATM    6  C   UNL     1      -9.614  10.501  65.510  1.00  0.00    -0.230 A  
HETATM    7  C   UNL     1      -9.578   9.134  65.670  1.00  0.00    -0.287 A  
HETATM    8  C   UNL     1      -8.269   8.857  66.108  1.00  0.00    -0.116 A  
HETATM    9  N   UNL     1      -7.524   9.959  66.217  1.00  0.00    -0.100 NA 
HETATM   10  N   UNL     1      -8.359  10.943  65.843  1.00  0.00    -0.163 NA 
HETATM   11  H   UNL     1      -6.551  10.037  66.514  1.00  0.00     0.000 HD 
ENDBRANCH   5   6
ENDBRANCH   2   5
TORSDOF 2
ENDMDL
MODEL      125
REMARK 921   NORMALIZED FREE ENERGY PREDICTED BY IDOCK:   -1.98 KCAL/MOL
REMARK 922        TOTAL FREE ENERGY PREDICTED BY IDOCK:   -2.48 KCAL/MOL
REMARK 923 INTER-LIGAND FREE ENERGY PREDICTED BY IDOCK:   -2.20 KCAL/MOL
REMARK 924 INTRA-LIGAND FREE ENERGY PREDICTED BY IDOCK:   -0.28 KCAL/MOL
REMARK 927      BINDING AFFINITY PREDICTED BY RF-SCORE:    0.00 PKD
ROOT
HETATM    1  N   UNL     1     -11.992  10.974  68.003  1.00  0.00    -0.761 NA 
HETATM    2  C   UNL     1     -11.452  11.825  66.932  1.00  0.00    -0.293 C  
HETATM    3  H2  UNL     1     -11.314  10.859  68.757  1.00  0.00     0.000 HD 
HETATM    4  H1  UNL     1     -12.884  11.313  68.363  1.00  0.00     0.000 HD 
ENDROOT
BRANCH   2   5
HETATM    5  C   UNL     1     -10.106  11.314  66.389  1.00  0.00    -0.260 C  
BRANCH   5   6
HETATM    6  C   UNL     1      -9.689   9.993  66.948  1.00  0.00    -0.189 A  
HETATM    7  C   UNL     1      -8.644   9.619  67.763  1.00  0.00    -0.125 A  
HETATM    8  C   UNL     1      -8.811   8.233  67.950  1.00  0.00    -0.138 A  
HETATM    9  N   UNL     1      -9.879   7.757  67.308  1.00  0.00    -0.172 NA 
HETATM   10  N   UNL     1     -10.400   8.844  66.712  1.00  0.00    -0.268 NA 
HETATM   11  H   UNL     1     -10.220   6.796  67.277  1.00  0.00     0.000 HD 
ENDBRANCH   5   6
ENDBRANCH   2   5
TORSDOF 2
ENDMDL
MODEL      126
REMARK 921   NORMALIZED FREE ENERGY PREDICTED BY IDOCK:   -1.97 KCAL/MOL
REMARK 922        TOTAL FREE ENERGY PREDICTED BY IDOCK:   -2.48 KCAL/MOL
REMARK 923 INTER-LIGAND FREE ENERGY PREDICTED BY IDOCK:   -2.22 KCAL/MOL
REMARK 924 INTRA-LIGAND FREE ENERGY PREDICTED BY IDOCK:   -0.26 KCAL/MOL
REMARK 927      BINDING AFFINITY PREDICTED BY RF-SCORE:    0.00 PKD
ROOT
HETATM    1  N   UNL     1     -10.336  19.201  65.954  1.00  0.00    -0.523 NA 
HETATM    2  C   UNL     1      -9.129  19.613  66.687  1.00  0.00    -0.363 C  
HETATM    3  H2  UNL     1     -10.670  18.294  66.280  1.00  0.00     0.000 HD 
HETATM    4  H1  UNL     1     -11.077  19.900  65.992  1.00  0.00     0.000 HD 
ENDROOT
BRANCH   2   5
HETATM    5  C   UNL     1      -8.010  18.558  66.629  1.00  0.00    -0.278 C  
BRANCH   5   6
HETATM    6  C   UNL     1      -8.366  17.261  67.278  1.00  0.00    -0.201 A  
HETATM    7  C   UNL     1      -7.837  15.994  67.169  1.00  0.00    -0.244 A  
HETATM    8  C   UNL     1      -8.598  15.208  68.054  1.00  0.00    -0.156 A  
HETATM    9  N   UNL     1      -9.539  15.915  68.683  1.00  0.00    -0.201 NA 
HETATM   10  N   UNL     1      -9.374  17.159  68.201  1.00  0.00    -0.257 NA 
HETATM   11  H   UNL     1     -10.221  15.589  69.369  1.00  0.00     0.000 HD 
ENDBRANCH   5   6
ENDBRANCH   2   5
TORSDOF 2
ENDMDL
MODEL      127
REMARK 921   NORMALIZED FREE ENERGY PREDICTED BY IDOCK:   -1.95 KCAL/MOL
REMARK 922        TOTAL FREE ENERGY PREDICTED BY IDOCK:   -2.45 KCAL/MOL
REMARK 923 INTER-LIGAND FREE ENERGY PREDICTED BY IDOCK:   -2.41 KCAL/MOL
REMARK 924 INTRA-LIGAND FREE ENERGY PREDICTED BY IDOCK:   -0.04 KCAL/MOL
REMARK 927      BINDING AFFINITY PREDICTED BY RF-SCORE:    0.00 PKD
ROOT
HETATM    1  N   UNL     1     -10.610  18.141  67.293  1.00  0.00    -0.390 NA 
HETATM    2  C   UNL     1      -9.179  18.478  67.225  1.00  0.00    -0.276 C  
HETATM    3  H2  UNL     1     -11.181  18.985  67.349  1.00  0.00     0.000 HD 
HETATM    4  H1  UNL     1     -10.912  17.546  66.523  1.00  0.00     0.000 HD 
ENDROOT
BRANCH   2   5
HETATM    5  C   UNL     1      -8.724  19.377  68.387  1.00  0.00    -0.397 C  
BRANCH   5   6
HETATM    6  C   UNL     1      -7.329  19.109  68.850  1.00  0.00    -0.344 A  
HETATM    7  C   UNL     1      -6.435  19.859  69.581  1.00  0.00    -0.388 A  
HETATM    8  C   UNL     1      -5.295  19.042  69.704  1.00  0.00    -0.201 A  
HETATM    9  N   UNL     1      -5.448  17.860  69.104  1.00  0.00    -0.186 NA 
HETATM   10  N   UNL     1      -6.692  17.922  68.598  1.00  0.00    -0.229 NA 
HETATM   11  H   UNL     1      -4.779  17.092  69.043  1.00  0.00     0.000 HD 
ENDBRANCH   5   6
ENDBRANCH   2   5
TORSDOF 2
ENDMDL
MODEL      128
REMARK 921   NORMALIZED FREE ENERGY PREDICTED BY IDOCK:   -1.93 KCAL/MOL
REMARK 922        TOTAL FREE ENERGY PREDICTED BY IDOCK:   -2.43 KCAL/MOL
REMARK 923 INTER-LIGAND FREE ENERGY PREDICTED BY IDOCK:   -2.15 KCAL/MOL
REMARK 924 INTRA-LIGAND FREE ENERGY PREDICTED BY IDOCK:   -0.28 KCAL/MOL
REMARK 927      BINDING AFFINITY PREDICTED BY RF-SCORE:    0.00 PKD
ROOT
HETATM    1  N   UNL     1      -9.641  16.868  67.499  1.00  0.00    -0.242 NA 
HETATM    2  C   UNL     1      -8.910  16.756  66.227  1.00  0.00    -0.299 C  
HETATM    3  H2  UNL     1      -9.516  17.792  67.912  1.00  0.00     0.000 HD 
HETATM    4  H1  UNL     1     -10.630  16.639  67.407  1.00  0.00     0.000 HD 
ENDROOT
BRANCH   2   5
HETATM    5  C   UNL     1      -7.417  17.102  66.366  1.00  0.00    -0.341 C  
BRANCH   5   6
HETATM    6  C   UNL     1      -7.150  18.307  67.207  1.00  0.00    -0.199 A  
HETATM    7  C   UNL     1      -7.031  19.644  66.900  1.00  0.00    -0.216 A  
HETATM    8  C   UNL     1      -6.800  20.278  68.136  1.00  0.00    -0.289 A  
HETATM    9  N   UNL     1      -6.777  19.417  69.154  1.00  0.00    -0.321 NA 
HETATM   10  N   UNL     1      -6.997  18.228  68.568  1.00  0.00    -0.245 NA 
HETATM   11  H   UNL     1      -6.626  19.614  70.144  1.00  0.00     0.000 HD 
ENDBRANCH   5   6
ENDBRANCH   2   5
TORSDOF 2
ENDMDL
MODEL      129
REMARK 921   NORMALIZED FREE ENERGY PREDICTED BY IDOCK:   -1.92 KCAL/MOL
REMARK 922        TOTAL FREE ENERGY PREDICTED BY IDOCK:   -2.42 KCAL/MOL
REMARK 923 INTER-LIGAND FREE ENERGY PREDICTED BY IDOCK:   -2.30 KCAL/MOL
REMARK 924 INTRA-LIGAND FREE ENERGY PREDICTED BY IDOCK:   -0.12 KCAL/MOL
REMARK 927      BINDING AFFINITY PREDICTED BY RF-SCORE:    0.00 PKD
ROOT
HETATM    1  N   UNL     1      -7.659   4.400  69.167  1.00  0.00    -0.055 NA 
HETATM    2  C   UNL     1      -8.927   3.682  69.364  1.00  0.00    -0.114 C  
HETATM    3  H2  UNL     1      -7.012   4.216  69.935  1.00  0.00     0.000 HD 
HETATM    4  H1  UNL     1      -7.226   4.195  68.267  1.00  0.00     0.000 HD 
ENDROOT
BRANCH   2   5
HETATM    5  C   UNL     1      -9.581   3.990  70.723  1.00  0.00    -0.263 C  
BRANCH   5   6
HETATM    6  C   UNL     1     -10.514   5.157  70.696  1.00  0.00    -0.199 A  
HETATM    7  C   UNL     1     -11.146   5.862  71.696  1.00  0.00    -0.319 A  
HETATM    8  C   UNL     1     -11.874   6.863  71.026  1.00  0.00    -0.364 A  
HETATM    9  N   UNL     1     -11.719   6.807  69.702  1.00  0.00    -0.642 NA 
HETATM   10  N   UNL     1     -10.884   5.768  69.526  1.00  0.00    -0.346 NA 
HETATM   11  H   UNL     1     -12.135   7.409  68.992  1.00  0.00     0.000 HD 
ENDBRANCH   5   6
ENDBRANCH   2   5
TORSDOF 2
ENDMDL
MODEL      130
REMARK 921   NORMALIZED FREE ENERGY PREDICTED BY IDOCK:   -1.92 KCAL/MOL
REMARK 922        TOTAL FREE ENERGY PREDICTED BY IDOCK:   -2.42 KCAL/MOL
REMARK 923 INTER-LIGAND FREE ENERGY PREDICTED BY IDOCK:   -2.37 KCAL/MOL
REMARK 924 INTRA-LIGAND FREE ENERGY PREDICTED BY IDOCK:   -0.05 KCAL/MOL
REMARK 927      BINDING AFFINITY PREDICTED BY RF-SCORE:    0.00 PKD
ROOT
HETATM    1  N   UNL     1      -8.578   5.560  69.355  1.00  0.00    -0.104 NA 
HETATM    2  C   UNL     1      -9.743   6.353  68.934  1.00  0.00    -0.126 C  
HETATM    3  H2  UNL     1      -8.785   4.562  69.325  1.00  0.00     0.000 HD 
HETATM    4  H1  UNL     1      -7.740   5.776  68.815  1.00  0.00     0.000 HD 
ENDROOT
BRANCH   2   5
HETATM    5  C   UNL     1     -11.008   6.028  69.748  1.00  0.00    -0.471 C  
BRANCH   5   6
HETATM    6  C   UNL     1     -11.426   7.118  70.680  1.00  0.00    -0.308 A  
HETATM    7  C   UNL     1     -12.304   7.145  71.741  1.00  0.00    -0.385 A  
HETATM    8  C   UNL     1     -12.243   8.465  72.226  1.00  0.00    -0.387 A  
HETATM    9  N   UNL     1     -11.392   9.224  71.532  1.00  0.00    -0.361 NA 
HETATM   10  N   UNL     1     -10.904   8.383  70.604  1.00  0.00    -0.227 NA 
HETATM   11  H   UNL     1     -11.165  10.209  71.674  1.00  0.00     0.000 HD 
ENDBRANCH   5   6
ENDBRANCH   2   5
TORSDOF 2
ENDMDL
MODEL      131
REMARK 921   NORMALIZED FREE ENERGY PREDICTED BY IDOCK:   -1.88 KCAL/MOL
REMARK 922        TOTAL FREE ENERGY PREDICTED BY IDOCK:   -2.38 KCAL/MOL
REMARK 923 INTER-LIGAND FREE ENERGY PREDICTED BY IDOCK:   -2.33 KCAL/MOL
REMARK 924 INTRA-LIGAND FREE ENERGY PREDICTED BY IDOCK:   -0.05 KCAL/MOL
REMARK 927      BINDING AFFINITY PREDICTED BY RF-SCORE:    0.00 PKD
ROOT
HETATM    1  N   UNL     1     -12.273   5.945  72.539  1.00  0.00    -0.495 NA 
HETATM    2  C   UNL     1     -10.960   5.618  73.116  1.00  0.00    -0.285 C  
HETATM    3  H2  UNL     1     -12.194   6.695  71.852  1.00  0.00     0.000 HD 
HETATM    4  H1  UNL     1     -12.741   5.132  72.140  1.00  0.00     0.000 HD 
ENDROOT
BRANCH   2   5
HETATM    5  C   UNL     1     -10.253   6.846  73.719  1.00  0.00    -0.396 C  
BRANCH   5   6
HETATM    6  C   UNL     1      -9.337   7.544  72.769  1.00  0.00    -0.167 A  
HETATM    7  C   UNL     1      -9.269   7.567  71.394  1.00  0.00    -0.150 A  
HETATM    8  C   UNL     1      -8.197   8.431  71.100  1.00  0.00    -0.131 A  
HETATM    9  N   UNL     1      -7.625   8.926  72.199  1.00  0.00    -0.346 NA 
HETATM   10  N   UNL     1      -8.337   8.379  73.199  1.00  0.00    -0.363 NA 
HETATM   11  H   UNL     1      -6.834   9.567  72.265  1.00  0.00     0.000 HD 
ENDBRANCH   5   6
ENDBRANCH   2   5
TORSDOF 2
ENDMDL
MODEL      132
REMARK 921   NORMALIZED FREE ENERGY PREDICTED BY IDOCK:   -1.88 KCAL/MOL
REMARK 922        TOTAL FREE ENERGY PREDICTED BY IDOCK:   -2.37 KCAL/MOL
REMARK 923 INTER-LIGAND FREE ENERGY PREDICTED BY IDOCK:   -2.32 KCAL/MOL
REMARK 924 INTRA-LIGAND FREE ENERGY PREDICTED BY IDOCK:   -0.06 KCAL/MOL
REMARK 927      BINDING AFFINITY PREDICTED BY RF-SCORE:    0.00 PKD
ROOT
HETATM    1  N   UNL     1     -12.120   7.203  70.247  1.00  0.00    -0.588 NA 
HETATM    2  C   UNL     1     -12.216   7.079  71.709  1.00  0.00    -0.351 C  
HETATM    3  H2  UNL     1     -12.211   6.292  69.796  1.00  0.00     0.000 HD 
HETATM    4  H1  UNL     1     -12.789   7.869  69.863  1.00  0.00     0.000 HD 
ENDROOT
BRANCH   2   5
HETATM    5  C   UNL     1     -11.206   6.074  72.289  1.00  0.00    -0.341 C  
BRANCH   5   6
HETATM    6  C   UNL     1      -9.916   6.691  72.721  1.00  0.00    -0.172 A  
HETATM    7  C   UNL     1      -8.615   6.241  72.685  1.00  0.00    -0.123 A  
HETATM    8  C   UNL     1      -7.853   7.297  73.219  1.00  0.00    -0.097 A  
HETATM    9  N   UNL     1      -8.605   8.342  73.568  1.00  0.00    -0.344 NA 
HETATM   10  N   UNL     1      -9.852   7.954  73.250  1.00  0.00    -0.301 NA 
HETATM   11  H   UNL     1      -8.305   9.227  73.978  1.00  0.00     0.000 HD 
ENDBRANCH   5   6
ENDBRANCH   2   5
TORSDOF 2
ENDMDL
MODEL      133
REMARK 921   NORMALIZED FREE ENERGY PREDICTED BY IDOCK:   -1.88 KCAL/MOL
REMARK 922        TOTAL FREE ENERGY PREDICTED BY IDOCK:   -2.37 KCAL/MOL
REMARK 923 INTER-LIGAND FREE ENERGY PREDICTED BY IDOCK:   -2.33 KCAL/MOL
REMARK 924 INTRA-LIGAND FREE ENERGY PREDICTED BY IDOCK:   -0.04 KCAL/MOL
REMARK 927      BINDING AFFINITY PREDICTED BY RF-SCORE:    0.00 PKD
ROOT
HETATM    1  N   UNL     1     -10.767  12.888  67.961  1.00  0.00    -0.222 NA 
HETATM    2  C   UNL     1     -11.617  12.193  68.940  1.00  0.00    -0.324 C  
HETATM    3  H2  UNL     1     -10.973  12.578  67.012  1.00  0.00     0.000 HD 
HETATM    4  H1  UNL     1     -10.830  13.903  68.036  1.00  0.00     0.000 HD 
ENDROOT
BRANCH   2   5
HETATM    5  C   UNL     1     -11.522  10.661  68.828  1.00  0.00    -0.330 C  
BRANCH   5   6
HETATM    6  C   UNL     1     -10.817  10.012  69.973  1.00  0.00    -0.302 A  
HETATM    7  C   UNL     1      -9.492   9.710  70.196  1.00  0.00    -0.298 A  
HETATM    8  C   UNL     1      -9.466   9.123  71.475  1.00  0.00    -0.169 A  
HETATM    9  N   UNL     1     -10.677   9.058  72.031  1.00  0.00    -0.332 NA 
HETATM   10  N   UNL     1     -11.480   9.609  71.104  1.00  0.00    -0.353 NA 
HETATM   11  H   UNL     1     -10.933   8.679  72.943  1.00  0.00     0.000 HD 
ENDBRANCH   5   6
ENDBRANCH   2   5
TORSDOF 2
ENDMDL
MODEL      134
REMARK 921   NORMALIZED FREE ENERGY PREDICTED BY IDOCK:   -1.87 KCAL/MOL
REMARK 922        TOTAL FREE ENERGY PREDICTED BY IDOCK:   -2.36 KCAL/MOL
REMARK 923 INTER-LIGAND FREE ENERGY PREDICTED BY IDOCK:   -2.30 KCAL/MOL
REMARK 924 INTRA-LIGAND FREE ENERGY PREDICTED BY IDOCK:   -0.06 KCAL/MOL
REMARK 927      BINDING AFFINITY PREDICTED BY RF-SCORE:    0.00 PKD
ROOT
HETATM    1  N   UNL     1      -6.955  14.259  67.347  1.00  0.00    -0.311 NA 
HETATM    2  C   UNL     1      -7.177  15.703  67.182  1.00  0.00    -0.195 C  
HETATM    3  H2  UNL     1      -7.676  13.720  66.866  1.00  0.00     0.000 HD 
HETATM    4  H1  UNL     1      -6.024  13.967  67.052  1.00  0.00     0.000 HD 
ENDROOT
BRANCH   2   5
HETATM    5  C   UNL     1      -8.583  16.143  67.627  1.00  0.00    -0.181 C  
BRANCH   5   6
HETATM    6  C   UNL     1      -9.515  16.430  66.495  1.00  0.00    -0.272 A  
HETATM    7  C   UNL     1     -10.228  17.555  66.144  1.00  0.00    -0.339 A  
HETATM    8  C   UNL     1     -10.904  17.199  64.961  1.00  0.00     0.073 A  
HETATM    9  N   UNL     1     -10.642  15.947  64.582  1.00  0.00    -0.742 NA 
HETATM   10  N   UNL     1      -9.792  15.502  65.524  1.00  0.00    -0.334 NA 
HETATM   11  H   UNL     1     -11.001  15.445  63.770  1.00  0.00     0.000 HD 
ENDBRANCH   5   6
ENDBRANCH   2   5
TORSDOF 2
ENDMDL
MODEL      135
REMARK 921   NORMALIZED FREE ENERGY PREDICTED BY IDOCK:   -1.87 KCAL/MOL
REMARK 922        TOTAL FREE ENERGY PREDICTED BY IDOCK:   -2.36 KCAL/MOL
REMARK 923 INTER-LIGAND FREE ENERGY PREDICTED BY IDOCK:   -2.33 KCAL/MOL
REMARK 924 INTRA-LIGAND FREE ENERGY PREDICTED BY IDOCK:   -0.03 KCAL/MOL
REMARK 927      BINDING AFFINITY PREDICTED BY RF-SCORE:    0.00 PKD
ROOT
HETATM    1  N   UNL     1      -8.876   8.528  67.628  1.00  0.00    -0.136 NA 
HETATM    2  C   UNL     1      -9.005   8.241  69.065  1.00  0.00    -0.147 C  
HETATM    3  H2  UNL     1      -8.102   9.169  67.451  1.00  0.00     0.000 HD 
HETATM    4  H1  UNL     1      -8.787   7.683  67.064  1.00  0.00     0.000 HD 
ENDROOT
BRANCH   2   5
HETATM    5  C   UNL     1      -9.140   9.517  69.916  1.00  0.00    -0.237 C  
BRANCH   5   6
HETATM    6  C   UNL     1     -10.434   9.619  70.653  1.00  0.00    -0.312 A  
HETATM    7  C   UNL     1     -11.499  10.485  70.541  1.00  0.00    -0.433 A  
HETATM    8  C   UNL     1     -12.425  10.046  71.506  1.00  0.00    -0.419 A  
HETATM    9  N   UNL     1     -11.990   8.980  72.181  1.00  0.00    -0.350 NA 
HETATM   10  N   UNL     1     -10.783   8.736  71.642  1.00  0.00    -0.299 NA 
HETATM   11  H   UNL     1     -12.462   8.471  72.929  1.00  0.00     0.000 HD 
ENDBRANCH   5   6
ENDBRANCH   2   5
TORSDOF 2
ENDMDL
MODEL      136
REMARK 921   NORMALIZED FREE ENERGY PREDICTED BY IDOCK:   -1.85 KCAL/MOL
REMARK 922        TOTAL FREE ENERGY PREDICTED BY IDOCK:   -2.35 KCAL/MOL
REMARK 923 INTER-LIGAND FREE ENERGY PREDICTED BY IDOCK:   -2.06 KCAL/MOL
REMARK 924 INTRA-LIGAND FREE ENERGY PREDICTED BY IDOCK:   -0.28 KCAL/MOL
REMARK 927      BINDING AFFINITY PREDICTED BY RF-SCORE:    0.00 PKD
ROOT
HETATM    1  N   UNL     1     -11.373   6.789  67.413  1.00  0.00    -0.739 NA 
HETATM    2  C   UNL     1     -10.205   5.934  67.669  1.00  0.00    -0.187 C  
HETATM    3  H2  UNL     1     -11.086   7.742  67.187  1.00  0.00     0.000 HD 
HETATM    4  H1  UNL     1     -11.987   6.411  66.692  1.00  0.00     0.000 HD 
ENDROOT
BRANCH   2   5
HETATM    5  C   UNL     1      -9.278   6.504  68.758  1.00  0.00    -0.131 C  
BRANCH   5   6
HETATM    6  C   UNL     1      -9.593   7.911  69.145  1.00  0.00    -0.153 A  
HETATM    7  C   UNL     1      -8.986   9.112  68.852  1.00  0.00    -0.139 A  
HETATM    8  C   UNL     1      -9.774  10.083  69.499  1.00  0.00    -0.233 A  
HETATM    9  N   UNL     1     -10.807   9.547  70.152  1.00  0.00    -0.242 NA 
HETATM   10  N   UNL     1     -10.680   8.230  69.918  1.00  0.00    -0.240 NA 
HETATM   11  H   UNL     1     -11.523  10.025  70.700  1.00  0.00     0.000 HD 
ENDBRANCH   5   6
ENDBRANCH   2   5
TORSDOF 2
ENDMDL
MODEL      137
REMARK 921   NORMALIZED FREE ENERGY PREDICTED BY IDOCK:   -1.83 KCAL/MOL
REMARK 922        TOTAL FREE ENERGY PREDICTED BY IDOCK:   -2.32 KCAL/MOL
REMARK 923 INTER-LIGAND FREE ENERGY PREDICTED BY IDOCK:   -2.30 KCAL/MOL
REMARK 924 INTRA-LIGAND FREE ENERGY PREDICTED BY IDOCK:   -0.02 KCAL/MOL
REMARK 927      BINDING AFFINITY PREDICTED BY RF-SCORE:    0.00 PKD
ROOT
HETATM    1  N   UNL     1     -12.956   7.993  72.554  1.00  0.00    -0.556 NA 
HETATM    2  C   UNL     1     -12.393   8.229  71.216  1.00  0.00    -0.263 C  
HETATM    3  H2  UNL     1     -12.336   8.353  73.280  1.00  0.00     0.000 HD 
HETATM    4  H1  UNL     1     -13.897   8.370  72.657  1.00  0.00     0.000 HD 
ENDROOT
BRANCH   2   5
HETATM    5  C   UNL     1     -10.971   7.660  71.060  1.00  0.00    -0.262 C  
BRANCH   5   6
HETATM    6  C   UNL     1     -10.691   7.090  69.709  1.00  0.00    -0.241 A  
HETATM    7  C   UNL     1     -10.765   5.808  69.210  1.00  0.00    -0.386 A  
HETATM    8  C   UNL     1     -10.395   5.925  67.857  1.00  0.00    -0.211 A  
HETATM    9  N   UNL     1     -10.110   7.183  67.514  1.00  0.00    -0.171 NA 
HETATM   10  N   UNL     1     -10.303   7.872  68.652  1.00  0.00    -0.206 NA 
HETATM   11  H   UNL     1      -9.815   7.538  66.604  1.00  0.00     0.000 HD 
ENDBRANCH   5   6
ENDBRANCH   2   5
TORSDOF 2
ENDMDL
MODEL      138
REMARK 921   NORMALIZED FREE ENERGY PREDICTED BY IDOCK:   -1.82 KCAL/MOL
REMARK 922        TOTAL FREE ENERGY PREDICTED BY IDOCK:   -2.30 KCAL/MOL
REMARK 923 INTER-LIGAND FREE ENERGY PREDICTED BY IDOCK:   -2.21 KCAL/MOL
REMARK 924 INTRA-LIGAND FREE ENERGY PREDICTED BY IDOCK:   -0.09 KCAL/MOL
REMARK 927      BINDING AFFINITY PREDICTED BY RF-SCORE:    0.00 PKD
ROOT
HETATM    1  N   UNL     1     -12.314  14.653  68.828  1.00  0.00    -0.588 NA 
HETATM    2  C   UNL     1     -11.377  15.622  68.239  1.00  0.00    -0.356 C  
HETATM    3  H2  UNL     1     -11.835  13.788  69.080  1.00  0.00     0.000 HD 
HETATM    4  H1  UNL     1     -12.825  15.033  69.624  1.00  0.00     0.000 HD 
ENDROOT
BRANCH   2   5
HETATM    5  C   UNL     1     -10.605  15.048  67.038  1.00  0.00    -0.293 C  
BRANCH   5   6
HETATM    6  C   UNL     1      -9.810  13.824  67.357  1.00  0.00    -0.238 A  
HETATM    7  C   UNL     1      -8.709  13.617  68.158  1.00  0.00    -0.177 A  
HETATM    8  C   UNL     1      -8.445  12.237  68.057  1.00  0.00    -0.171 A  
HETATM    9  N   UNL     1      -9.310  11.610  67.258  1.00  0.00    -0.167 NA 
HETATM   10  N   UNL     1     -10.132  12.592  66.849  1.00  0.00    -0.222 NA 
HETATM   11  H   UNL     1      -9.339  10.620  67.014  1.00  0.00     0.000 HD 
ENDBRANCH   5   6
ENDBRANCH   2   5
TORSDOF 2
ENDMDL
MODEL      139
REMARK 921   NORMALIZED FREE ENERGY PREDICTED BY IDOCK:   -1.81 KCAL/MOL
REMARK 922        TOTAL FREE ENERGY PREDICTED BY IDOCK:   -2.29 KCAL/MOL
REMARK 923 INTER-LIGAND FREE ENERGY PREDICTED BY IDOCK:   -2.23 KCAL/MOL
REMARK 924 INTRA-LIGAND FREE ENERGY PREDICTED BY IDOCK:   -0.06 KCAL/MOL
REMARK 927      BINDING AFFINITY PREDICTED BY RF-SCORE:    0.00 PKD
ROOT
HETATM    1  N   UNL     1      -8.913   7.660  66.792  1.00  0.00    -0.137 NA 
HETATM    2  C   UNL     1      -9.609   6.375  66.622  1.00  0.00    -0.157 C  
HETATM    3  H2  UNL     1      -8.784   7.879  67.780  1.00  0.00     0.000 HD 
HETATM    4  H1  UNL     1      -8.026   7.696  66.291  1.00  0.00     0.000 HD 
ENDROOT
BRANCH   2   5
HETATM    5  C   UNL     1     -10.948   6.320  67.379  1.00  0.00    -0.447 C  
BRANCH   5   6
HETATM    6  C   UNL     1     -10.810   6.013  68.834  1.00  0.00    -0.331 A  
HETATM    7  C   UNL     1     -11.366   6.581  69.959  1.00  0.00    -0.472 A  
HETATM    8  C   UNL     1     -10.858   5.826  71.033  1.00  0.00    -0.247 A  
HETATM    9  N   UNL     1     -10.044   4.849  70.629  1.00  0.00    -0.238 NA 
HETATM   10  N   UNL     1     -10.035   4.978  69.291  1.00  0.00    -0.200 NA 
HETATM   11  H   UNL     1      -9.547   4.165  71.201  1.00  0.00     0.000 HD 
ENDBRANCH   5   6
ENDBRANCH   2   5
TORSDOF 2
ENDMDL
MODEL      140
REMARK 921   NORMALIZED FREE ENERGY PREDICTED BY IDOCK:   -1.77 KCAL/MOL
REMARK 922        TOTAL FREE ENERGY PREDICTED BY IDOCK:   -2.25 KCAL/MOL
REMARK 923 INTER-LIGAND FREE ENERGY PREDICTED BY IDOCK:   -1.96 KCAL/MOL
REMARK 924 INTRA-LIGAND FREE ENERGY PREDICTED BY IDOCK:   -0.29 KCAL/MOL
REMARK 927      BINDING AFFINITY PREDICTED BY RF-SCORE:    0.00 PKD
ROOT
HETATM    1  N   UNL     1     -12.728   7.014  70.552  1.00  0.00    -0.559 NA 
HETATM    2  C   UNL     1     -11.899   7.767  71.505  1.00  0.00    -0.293 C  
HETATM    3  H2  UNL     1     -12.411   6.047  70.476  1.00  0.00     0.000 HD 
HETATM    4  H1  UNL     1     -13.722   7.056  70.775  1.00  0.00     0.000 HD 
ENDROOT
BRANCH   2   5
HETATM    5  C   UNL     1     -10.399   7.703  71.167  1.00  0.00    -0.212 C  
BRANCH   5   6
HETATM    6  C   UNL     1     -10.026   6.563  70.277  1.00  0.00    -0.174 A  
HETATM    7  C   UNL     1      -9.422   6.512  69.040  1.00  0.00    -0.130 A  
HETATM    8  C   UNL     1      -9.328   5.140  68.741  1.00  0.00    -0.125 A  
HETATM    9  N   UNL     1      -9.829   4.372  69.710  1.00  0.00    -0.221 NA 
HETATM   10  N   UNL     1     -10.241   5.257  70.634  1.00  0.00    -0.244 NA 
HETATM   11  H   UNL     1      -9.886   3.353  69.742  1.00  0.00     0.000 HD 
ENDBRANCH   5   6
ENDBRANCH   2   5
TORSDOF 2
ENDMDL
MODEL      141
REMARK 921   NORMALIZED FREE ENERGY PREDICTED BY IDOCK:   -1.75 KCAL/MOL
REMARK 922        TOTAL FREE ENERGY PREDICTED BY IDOCK:   -2.23 KCAL/MOL
REMARK 923 INTER-LIGAND FREE ENERGY PREDICTED BY IDOCK:   -2.18 KCAL/MOL
REMARK 924 INTRA-LIGAND FREE ENERGY PREDICTED BY IDOCK:   -0.05 KCAL/MOL
REMARK 927      BINDING AFFINITY PREDICTED BY RF-SCORE:    0.00 PKD
ROOT
HETATM    1  N   UNL     1      -6.979  17.281  69.369  1.00  0.00    -0.185 NA 
HETATM    2  C   UNL     1      -5.963  18.233  68.895  1.00  0.00    -0.212 C  
HETATM    3  H2  UNL     1      -7.747  17.204  68.703  1.00  0.00     0.000 HD 
HETATM    4  H1  UNL     1      -6.589  16.364  69.586  1.00  0.00     0.000 HD 
ENDROOT
BRANCH   2   5
HETATM    5  C   UNL     1      -6.551  19.617  68.568  1.00  0.00    -0.314 C  
BRANCH   5   6
HETATM    6  C   UNL     1      -6.557  19.945  67.111  1.00  0.00    -0.206 A  
HETATM    7  C   UNL     1      -6.438  19.162  65.984  1.00  0.00    -0.232 A  
HETATM    8  C   UNL     1      -6.544  20.062  64.907  1.00  0.00    -0.252 A  
HETATM    9  N   UNL     1      -6.720  21.322  65.311  1.00  0.00    -0.411 NA 
HETATM   10  N   UNL     1      -6.731  21.225  66.651  1.00  0.00    -0.365 NA 
HETATM   11  H   UNL     1      -6.822  22.160  64.738  1.00  0.00     0.000 HD 
ENDBRANCH   5   6
ENDBRANCH   2   5
TORSDOF 2
ENDMDL
MODEL      142
REMARK 921   NORMALIZED FREE ENERGY PREDICTED BY IDOCK:   -1.74 KCAL/MOL
REMARK 922        TOTAL FREE ENERGY PREDICTED BY IDOCK:   -2.22 KCAL/MOL
REMARK 923 INTER-LIGAND FREE ENERGY PREDICTED BY IDOCK:   -2.16 KCAL/MOL
REMARK 924 INTRA-LIGAND FREE ENERGY PREDICTED BY IDOCK:   -0.06 KCAL/MOL
REMARK 927      BINDING AFFINITY PREDICTED BY RF-SCORE:    0.00 PKD
ROOT
HETATM    1  N   UNL     1     -11.200   6.151  66.522  1.00  0.00    -0.744 NA 
HETATM    2  C   UNL     1     -10.064   6.980  66.953  1.00  0.00    -0.226 C  
HETATM    3  H2  UNL     1     -11.441   6.339  65.549  1.00  0.00     0.000 HD 
HETATM    4  H1  UNL     1     -11.042   5.156  66.674  1.00  0.00     0.000 HD 
ENDROOT
BRANCH   2   5
HETATM    5  C   UNL     1     -10.303   8.483  66.723  1.00  0.00    -0.346 C  
BRANCH   5   6
HETATM    6  C   UNL     1      -9.390   9.094  65.711  1.00  0.00    -0.245 A  
HETATM    7  C   UNL     1      -9.123  10.402  65.374  1.00  0.00    -0.221 A  
HETATM    8  C   UNL     1      -8.152  10.322  64.358  1.00  0.00    -0.149 A  
HETATM    9  N   UNL     1      -7.821   9.062  64.069  1.00  0.00    -0.125 NA 
HETATM   10  N   UNL     1      -8.580   8.335  64.906  1.00  0.00    -0.105 NA 
HETATM   11  H   UNL     1      -7.150   8.729  63.375  1.00  0.00     0.000 HD 
ENDBRANCH   5   6
ENDBRANCH   2   5
TORSDOF 2
ENDMDL
MODEL      143
REMARK 921   NORMALIZED FREE ENERGY PREDICTED BY IDOCK:   -1.74 KCAL/MOL
REMARK 922        TOTAL FREE ENERGY PREDICTED BY IDOCK:   -2.21 KCAL/MOL
REMARK 923 INTER-LIGAND FREE ENERGY PREDICTED BY IDOCK:   -1.92 KCAL/MOL
REMARK 924 INTRA-LIGAND FREE ENERGY PREDICTED BY IDOCK:   -0.29 KCAL/MOL
REMARK 927      BINDING AFFINITY PREDICTED BY RF-SCORE:    0.00 PKD
ROOT
HETATM    1  N   UNL     1     -10.488   9.257  71.411  1.00  0.00    -0.341 NA 
HETATM    2  C   UNL     1     -11.715   8.837  72.105  1.00  0.00    -0.363 C  
HETATM    3  H2  UNL     1     -10.176   8.540  70.755  1.00  0.00     0.000 HD 
HETATM    4  H1  UNL     1     -10.587  10.159  70.947  1.00  0.00     0.000 HD 
ENDROOT
BRANCH   2   5
HETATM    5  C   UNL     1     -11.566   7.475  72.806  1.00  0.00    -0.299 C  
BRANCH   5   6
HETATM    6  C   UNL     1     -10.575   6.565  72.157  1.00  0.00    -0.214 A  
HETATM    7  C   UNL     1     -10.714   5.547  71.239  1.00  0.00    -0.288 A  
HETATM    8  C   UNL     1      -9.402   5.090  71.008  1.00  0.00    -0.152 A  
HETATM    9  N   UNL     1      -8.495   5.763  71.717  1.00  0.00    -0.130 NA 
HETATM   10  N   UNL     1      -9.229   6.657  72.402  1.00  0.00    -0.136 NA 
HETATM   11  H   UNL     1      -7.483   5.631  71.736  1.00  0.00     0.000 HD 
ENDBRANCH   5   6
ENDBRANCH   2   5
TORSDOF 2
ENDMDL
MODEL      144
REMARK 921   NORMALIZED FREE ENERGY PREDICTED BY IDOCK:   -1.73 KCAL/MOL
REMARK 922        TOTAL FREE ENERGY PREDICTED BY IDOCK:   -2.21 KCAL/MOL
REMARK 923 INTER-LIGAND FREE ENERGY PREDICTED BY IDOCK:   -1.96 KCAL/MOL
REMARK 924 INTRA-LIGAND FREE ENERGY PREDICTED BY IDOCK:   -0.25 KCAL/MOL
REMARK 927      BINDING AFFINITY PREDICTED BY RF-SCORE:    0.00 PKD
ROOT
HETATM    1  N   UNL     1     -10.915  16.302  68.053  1.00  0.00    -0.340 NA 
HETATM    2  C   UNL     1     -11.083  15.257  67.032  1.00  0.00    -0.305 C  
HETATM    3  H2  UNL     1      -9.929  16.442  68.275  1.00  0.00     0.000 HD 
HETATM    4  H1  UNL     1     -11.360  17.182  67.793  1.00  0.00     0.000 HD 
ENDROOT
BRANCH   2   5
HETATM    5  C   UNL     1     -10.412  13.929  67.425  1.00  0.00    -0.263 C  
BRANCH   5   6
HETATM    6  C   UNL     1      -8.921  13.995  67.475  1.00  0.00    -0.195 A  
HETATM    7  C   UNL     1      -7.972  13.139  67.989  1.00  0.00    -0.156 A  
HETATM    8  C   UNL     1      -6.738  13.756  67.703  1.00  0.00    -0.176 A  
HETATM    9  N   UNL     1      -6.885  14.913  67.056  1.00  0.00    -0.311 NA 
HETATM   10  N   UNL     1      -8.217  15.034  66.923  1.00  0.00    -0.210 NA 
HETATM   11  H   UNL     1      -6.158  15.554  66.737  1.00  0.00     0.000 HD 
ENDBRANCH   5   6
ENDBRANCH   2   5
TORSDOF 2
ENDMDL
MODEL      145
REMARK 921   NORMALIZED FREE ENERGY PREDICTED BY IDOCK:   -1.65 KCAL/MOL
REMARK 922        TOTAL FREE ENERGY PREDICTED BY IDOCK:   -2.12 KCAL/MOL
REMARK 923 INTER-LIGAND FREE ENERGY PREDICTED BY IDOCK:   -1.86 KCAL/MOL
REMARK 924 INTRA-LIGAND FREE ENERGY PREDICTED BY IDOCK:   -0.25 KCAL/MOL
REMARK 927      BINDING AFFINITY PREDICTED BY RF-SCORE:    0.00 PKD
ROOT
HETATM    1  N   UNL     1     -11.530   6.344  69.420  1.00  0.00    -0.607 NA 
HETATM    2  C   UNL     1     -10.314   6.553  70.222  1.00  0.00    -0.201 C  
HETATM    3  H2  UNL     1     -11.572   7.002  68.642  1.00  0.00     0.000 HD 
HETATM    4  H1  UNL     1     -11.624   5.383  69.093  1.00  0.00     0.000 HD 
ENDROOT
BRANCH   2   5
HETATM    5  C   UNL     1     -10.171   8.004  70.716  1.00  0.00    -0.209 C  
BRANCH   5   6
HETATM    6  C   UNL     1      -9.995   9.003  69.621  1.00  0.00    -0.192 A  
HETATM    7  C   UNL     1      -8.894   9.694  69.164  1.00  0.00    -0.157 A  
HETATM    8  C   UNL     1      -9.375  10.469  68.091  1.00  0.00    -0.148 A  
HETATM    9  N   UNL     1     -10.678  10.286  67.874  1.00  0.00    -0.244 NA 
HETATM   10  N   UNL     1     -11.031   9.388  68.810  1.00  0.00    -0.107 NA 
HETATM   11  H   UNL     1     -11.268  10.724  67.166  1.00  0.00     0.000 HD 
ENDBRANCH   5   6
ENDBRANCH   2   5
TORSDOF 2
ENDMDL
MODEL      146
REMARK 921   NORMALIZED FREE ENERGY PREDICTED BY IDOCK:   -1.64 KCAL/MOL
REMARK 922        TOTAL FREE ENERGY PREDICTED BY IDOCK:   -2.11 KCAL/MOL
REMARK 923 INTER-LIGAND FREE ENERGY PREDICTED BY IDOCK:   -2.05 KCAL/MOL
REMARK 924 INTRA-LIGAND FREE ENERGY PREDICTED BY IDOCK:   -0.06 KCAL/MOL
REMARK 927      BINDING AFFINITY PREDICTED BY RF-SCORE:    0.00 PKD
ROOT
HETATM    1  N   UNL     1      -8.196   4.375  71.836  1.00  0.00    -0.100 NA 
HETATM    2  C   UNL     1      -9.026   5.367  72.537  1.00  0.00    -0.133 C  
HETATM    3  H2  UNL     1      -8.171   4.563  70.833  1.00  0.00     0.000 HD 
HETATM    4  H1  UNL     1      -7.255   4.308  72.219  1.00  0.00     0.000 HD 
ENDROOT
BRANCH   2   5
HETATM    5  C   UNL     1     -10.448   5.469  71.958  1.00  0.00    -0.277 C  
BRANCH   5   6
HETATM    6  C   UNL     1     -10.550   6.346  70.753  1.00  0.00    -0.238 A  
HETATM    7  C   UNL     1      -9.839   7.455  70.350  1.00  0.00    -0.183 A  
HETATM    8  C   UNL     1     -10.403   7.815  69.112  1.00  0.00    -0.215 A  
HETATM    9  N   UNL     1     -11.394   6.999  68.747  1.00  0.00    -0.499 NA 
HETATM   10  N   UNL     1     -11.461   6.113  69.755  1.00  0.00    -0.401 NA 
HETATM   11  H   UNL     1     -11.967   7.039  67.903  1.00  0.00     0.000 HD 
ENDBRANCH   5   6
ENDBRANCH   2   5
TORSDOF 2
ENDMDL
MODEL      147
REMARK 921   NORMALIZED FREE ENERGY PREDICTED BY IDOCK:   -1.64 KCAL/MOL
REMARK 922        TOTAL FREE ENERGY PREDICTED BY IDOCK:   -2.10 KCAL/MOL
REMARK 923 INTER-LIGAND FREE ENERGY PREDICTED BY IDOCK:   -2.05 KCAL/MOL
REMARK 924 INTRA-LIGAND FREE ENERGY PREDICTED BY IDOCK:   -0.05 KCAL/MOL
REMARK 927      BINDING AFFINITY PREDICTED BY RF-SCORE:    0.00 PKD
ROOT
HETATM    1  N   UNL     1      -9.049   7.592  72.153  1.00  0.00    -0.135 NA 
HETATM    2  C   UNL     1      -9.988   6.528  71.765  1.00  0.00    -0.176 C  
HETATM    3  H2  UNL     1      -8.816   8.183  71.354  1.00  0.00     0.000 HD 
HETATM    4  H1  UNL     1      -9.389   8.152  72.934  1.00  0.00     0.000 HD 
ENDROOT
BRANCH   2   5
HETATM    5  C   UNL     1      -9.474   5.683  70.586  1.00  0.00    -0.203 C  
BRANCH   5   6
HETATM    6  C   UNL     1      -9.883   6.202  69.246  1.00  0.00    -0.149 A  
HETATM    7  C   UNL     1      -9.176   6.807  68.231  1.00  0.00    -0.122 A  
HETATM    8  C   UNL     1     -10.127   7.040  67.218  1.00  0.00    -0.204 A  
HETATM    9  N   UNL     1     -11.345   6.615  67.556  1.00  0.00    -0.732 NA 
HETATM   10  N   UNL     1     -11.172   6.105  68.788  1.00  0.00    -0.332 NA 
HETATM   11  H   UNL     1     -12.206   6.666  67.010  1.00  0.00     0.000 HD 
ENDBRANCH   5   6
ENDBRANCH   2   5
TORSDOF 2
ENDMDL
MODEL      148
REMARK 921   NORMALIZED FREE ENERGY PREDICTED BY IDOCK:   -1.62 KCAL/MOL
REMARK 922        TOTAL FREE ENERGY PREDICTED BY IDOCK:   -2.09 KCAL/MOL
REMARK 923 INTER-LIGAND FREE ENERGY PREDICTED BY IDOCK:   -2.05 KCAL/MOL
REMARK 924 INTRA-LIGAND FREE ENERGY PREDICTED BY IDOCK:   -0.03 KCAL/MOL
REMARK 927      BINDING AFFINITY PREDICTED BY RF-SCORE:    0.00 PKD
ROOT
HETATM    1  N   UNL     1      -7.341   9.707  65.835  1.00  0.00    -0.097 NA 
HETATM    2  C   UNL     1      -7.659   8.625  66.779  1.00  0.00    -0.086 C  
HETATM    3  H2  UNL     1      -7.049  10.550  66.330  1.00  0.00     0.000 HD 
HETATM    4  H1  UNL     1      -6.646   9.432  65.140  1.00  0.00     0.000 HD 
ENDROOT
BRANCH   2   5
HETATM    5  C   UNL     1      -8.707   9.039  67.827  1.00  0.00    -0.125 C  
BRANCH   5   6
HETATM    6  C   UNL     1      -9.742   7.997  68.094  1.00  0.00    -0.160 A  
HETATM    7  C   UNL     1     -10.055   7.267  69.220  1.00  0.00    -0.183 A  
HETATM    8  C   UNL     1     -11.145   6.463  68.838  1.00  0.00    -0.348 A  
HETATM    9  N   UNL     1     -11.506   6.664  67.569  1.00  0.00    -0.715 NA 
HETATM   10  N   UNL     1     -10.645   7.602  67.140  1.00  0.00    -0.340 NA 
HETATM   11  H   UNL     1     -12.258   6.211  67.048  1.00  0.00     0.000 HD 
ENDBRANCH   5   6
ENDBRANCH   2   5
TORSDOF 2
ENDMDL
MODEL      149
REMARK 921   NORMALIZED FREE ENERGY PREDICTED BY IDOCK:   -1.62 KCAL/MOL
REMARK 922        TOTAL FREE ENERGY PREDICTED BY IDOCK:   -2.09 KCAL/MOL
REMARK 923 INTER-LIGAND FREE ENERGY PREDICTED BY IDOCK:   -1.84 KCAL/MOL
REMARK 924 INTRA-LIGAND FREE ENERGY PREDICTED BY IDOCK:   -0.24 KCAL/MOL
REMARK 927      BINDING AFFINITY PREDICTED BY RF-SCORE:    0.00 PKD
ROOT
HETATM    1  N   UNL     1      -7.576   6.706  69.102  1.00  0.00    -0.098 NA 
HETATM    2  C   UNL     1      -8.862   6.663  68.388  1.00  0.00    -0.121 C  
HETATM    3  H2  UNL     1      -7.518   5.959  69.795  1.00  0.00     0.000 HD 
HETATM    4  H1  UNL     1      -6.775   6.685  68.473  1.00  0.00     0.000 HD 
ENDROOT
BRANCH   2   5
HETATM    5  C   UNL     1     -10.071   6.695  69.339  1.00  0.00    -0.192 C  
BRANCH   5   6
HETATM    6  C   UNL     1     -10.413   8.061  69.839  1.00  0.00    -0.233 A  
HETATM    7  C   UNL     1     -11.453   8.533  70.608  1.00  0.00    -0.249 A  
HETATM    8  C   UNL     1     -11.198   9.910  70.752  1.00  0.00    -0.353 A  
HETATM    9  N   UNL     1     -10.082  10.290  70.128  1.00  0.00    -0.425 NA 
HETATM   10  N   UNL     1      -9.619   9.150  69.587  1.00  0.00    -0.169 NA 
HETATM   11  H   UNL     1      -9.675  11.224  70.075  1.00  0.00     0.000 HD 
ENDBRANCH   5   6
ENDBRANCH   2   5
TORSDOF 2
ENDMDL
MODEL      150
REMARK 921   NORMALIZED FREE ENERGY PREDICTED BY IDOCK:   -1.61 KCAL/MOL
REMARK 922        TOTAL FREE ENERGY PREDICTED BY IDOCK:   -2.08 KCAL/MOL
REMARK 923 INTER-LIGAND FREE ENERGY PREDICTED BY IDOCK:   -1.84 KCAL/MOL
REMARK 924 INTRA-LIGAND FREE ENERGY PREDICTED BY IDOCK:   -0.24 KCAL/MOL
REMARK 927      BINDING AFFINITY PREDICTED BY RF-SCORE:    0.00 PKD
ROOT
HETATM    1  N   UNL     1      -8.610   9.288  67.914  1.00  0.00    -0.121 NA 
HETATM    2  C   UNL     1      -8.297   7.880  67.623  1.00  0.00    -0.124 C  
HETATM    3  H2  UNL     1      -7.955   9.674  68.594  1.00  0.00     0.000 HD 
HETATM    4  H1  UNL     1      -8.648   9.864  67.074  1.00  0.00     0.000 HD 
ENDROOT
BRANCH   2   5
HETATM    5  C   UNL     1      -8.240   7.009  68.891  1.00  0.00    -0.122 C  
BRANCH   5   6
HETATM    6  C   UNL     1      -9.575   6.751  69.509  1.00  0.00    -0.147 A  
HETATM    7  C   UNL     1     -10.015   5.795  70.398  1.00  0.00    -0.257 A  
HETATM    8  C   UNL     1     -11.374   6.099  70.610  1.00  0.00    -0.298 A  
HETATM    9  N   UNL     1     -11.771   7.166  69.915  1.00  0.00    -0.558 NA 
HETATM   10  N   UNL     1     -10.662   7.548  69.260  1.00  0.00    -0.210 NA 
HETATM   11  H   UNL     1     -12.699   7.592  69.888  1.00  0.00     0.000 HD 
ENDBRANCH   5   6
ENDBRANCH   2   5
TORSDOF 2
ENDMDL
MODEL      151
REMARK 921   NORMALIZED FREE ENERGY PREDICTED BY IDOCK:   -1.57 KCAL/MOL
REMARK 922        TOTAL FREE ENERGY PREDICTED BY IDOCK:   -2.03 KCAL/MOL
REMARK 923 INTER-LIGAND FREE ENERGY PREDICTED BY IDOCK:   -1.98 KCAL/MOL
REMARK 924 INTRA-LIGAND FREE ENERGY PREDICTED BY IDOCK:   -0.05 KCAL/MOL
REMARK 927      BINDING AFFINITY PREDICTED BY RF-SCORE:    0.00 PKD
ROOT
HETATM    1  N   UNL     1      -8.812  10.886  64.171  1.00  0.00    -0.342 NA 
HETATM    2  C   UNL     1     -10.068  10.835  64.936  1.00  0.00    -0.322 C  
HETATM    3  H2  UNL     1      -8.615   9.986  63.731  1.00  0.00     0.000 HD 
HETATM    4  H1  UNL     1      -8.800  11.639  63.484  1.00  0.00     0.000 HD 
ENDROOT
BRANCH   2   5
HETATM    5  C   UNL     1     -10.086   9.698  65.973  1.00  0.00    -0.318 C  
BRANCH   5   6
HETATM    6  C   UNL     1      -9.495  10.071  67.292  1.00  0.00    -0.154 A  
HETATM    7  C   UNL     1      -8.194  10.232  67.713  1.00  0.00    -0.110 A  
HETATM    8  C   UNL     1      -8.296  10.612  69.065  1.00  0.00    -0.152 A  
HETATM    9  N   UNL     1      -9.562  10.692  69.477  1.00  0.00    -0.421 NA 
HETATM   10  N   UNL     1     -10.272  10.366  68.383  1.00  0.00    -0.159 NA 
HETATM   11  H   UNL     1      -9.910  10.941  70.404  1.00  0.00     0.000 HD 
ENDBRANCH   5   6
ENDBRANCH   2   5
TORSDOF 2
ENDMDL
MODEL      152
REMARK 921   NORMALIZED FREE ENERGY PREDICTED BY IDOCK:   -1.57 KCAL/MOL
REMARK 922        TOTAL FREE ENERGY PREDICTED BY IDOCK:   -2.03 KCAL/MOL
REMARK 923 INTER-LIGAND FREE ENERGY PREDICTED BY IDOCK:   -2.01 KCAL/MOL
REMARK 924 INTRA-LIGAND FREE ENERGY PREDICTED BY IDOCK:   -0.02 KCAL/MOL
REMARK 927      BINDING AFFINITY PREDICTED BY RF-SCORE:    0.00 PKD
ROOT
HETATM    1  N   UNL     1      -6.288   6.573  72.517  1.00  0.00    -0.057 NA 
HETATM    2  C   UNL     1      -7.633   6.919  73.001  1.00  0.00    -0.088 C  
HETATM    3  H2  UNL     1      -6.094   7.024  71.623  1.00  0.00     0.000 HD 
HETATM    4  H1  UNL     1      -5.559   6.783  73.198  1.00  0.00     0.000 HD 
ENDROOT
BRANCH   2   5
HETATM    5  C   UNL     1      -8.735   6.603  71.974  1.00  0.00    -0.127 C  
BRANCH   5   6
HETATM    6  C   UNL     1      -9.912   7.519  72.046  1.00  0.00    -0.175 A  
HETATM    7  C   UNL     1     -10.131   8.787  71.555  1.00  0.00    -0.371 A  
HETATM    8  C   UNL     1     -11.450   9.099  71.938  1.00  0.00    -0.353 A  
HETATM    9  N   UNL     1     -12.031   8.108  72.617  1.00  0.00    -0.558 NA 
HETATM   10  N   UNL     1     -11.081   7.158  72.664  1.00  0.00    -0.276 NA 
HETATM   11  H   UNL     1     -12.973   8.078  73.007  1.00  0.00     0.000 HD 
ENDBRANCH   5   6
ENDBRANCH   2   5
TORSDOF 2
ENDMDL
MODEL      153
REMARK 921   NORMALIZED FREE ENERGY PREDICTED BY IDOCK:   -1.57 KCAL/MOL
REMARK 922        TOTAL FREE ENERGY PREDICTED BY IDOCK:   -2.03 KCAL/MOL
REMARK 923 INTER-LIGAND FREE ENERGY PREDICTED BY IDOCK:   -1.81 KCAL/MOL
REMARK 924 INTRA-LIGAND FREE ENERGY PREDICTED BY IDOCK:   -0.22 KCAL/MOL
REMARK 927      BINDING AFFINITY PREDICTED BY RF-SCORE:    0.00 PKD
ROOT
HETATM    1  N   UNL     1      -7.227   6.590  67.283  1.00  0.00    -0.076 NA 
HETATM    2  C   UNL     1      -7.562   6.127  68.638  1.00  0.00    -0.092 C  
HETATM    3  H2  UNL     1      -8.071   6.758  66.735  1.00  0.00     0.000 HD 
HETATM    4  H1  UNL     1      -6.624   7.412  67.286  1.00  0.00     0.000 HD 
ENDROOT
BRANCH   2   5
HETATM    5  C   UNL     1      -8.473   4.887  68.634  1.00  0.00    -0.089 C  
BRANCH   5   6
HETATM    6  C   UNL     1      -9.361   4.791  67.437  1.00  0.00    -0.137 A  
HETATM    7  C   UNL     1      -9.363   3.946  66.349  1.00  0.00    -0.192 A  
HETATM    8  C   UNL     1     -10.469   4.352  65.579  1.00  0.00    -0.199 A  
HETATM    9  N   UNL     1     -11.127   5.374  66.131  1.00  0.00    -0.784 NA 
HETATM   10  N   UNL     1     -10.440   5.618  67.260  1.00  0.00    -0.242 NA 
HETATM   11  H   UNL     1     -11.955   5.855  65.779  1.00  0.00     0.000 HD 
ENDBRANCH   5   6
ENDBRANCH   2   5
TORSDOF 2
ENDMDL
MODEL      154
REMARK 921   NORMALIZED FREE ENERGY PREDICTED BY IDOCK:   -1.55 KCAL/MOL
REMARK 922        TOTAL FREE ENERGY PREDICTED BY IDOCK:   -2.01 KCAL/MOL
REMARK 923 INTER-LIGAND FREE ENERGY PREDICTED BY IDOCK:   -1.96 KCAL/MOL
REMARK 924 INTRA-LIGAND FREE ENERGY PREDICTED BY IDOCK:   -0.05 KCAL/MOL
REMARK 927      BINDING AFFINITY PREDICTED BY RF-SCORE:    0.00 PKD
ROOT
HETATM    1  N   UNL     1      -9.065   8.022  65.793  1.00  0.00    -0.362 NA 
HETATM    2  C   UNL     1      -7.741   7.856  65.173  1.00  0.00    -0.103 C  
HETATM    3  H2  UNL     1      -9.732   7.348  65.415  1.00  0.00     0.000 HD 
HETATM    4  H1  UNL     1      -9.032   7.973  66.810  1.00  0.00     0.000 HD 
ENDROOT
BRANCH   2   5
HETATM    5  C   UNL     1      -7.790   7.928  63.637  1.00  0.00    -0.138 C  
BRANCH   5   6
HETATM    6  C   UNL     1      -8.095   9.290  63.104  1.00  0.00    -0.158 A  
HETATM    7  C   UNL     1      -9.278   9.909  62.767  1.00  0.00    -0.292 A  
HETATM    8  C   UNL     1      -8.902  11.199  62.346  1.00  0.00    -0.273 A  
HETATM    9  N   UNL     1      -7.584  11.393  62.412  1.00  0.00    -0.503 NA 
HETATM   10  N   UNL     1      -7.116  10.223  62.880  1.00  0.00    -0.135 NA 
HETATM   11  H   UNL     1      -7.056  12.230  62.165  1.00  0.00     0.000 HD 
ENDBRANCH   5   6
ENDBRANCH   2   5
TORSDOF 2
ENDMDL
MODEL      155
REMARK 921   NORMALIZED FREE ENERGY PREDICTED BY IDOCK:   -1.54 KCAL/MOL
REMARK 922        TOTAL FREE ENERGY PREDICTED BY IDOCK:   -1.99 KCAL/MOL
REMARK 923 INTER-LIGAND FREE ENERGY PREDICTED BY IDOCK:   -1.92 KCAL/MOL
REMARK 924 INTRA-LIGAND FREE ENERGY PREDICTED BY IDOCK:   -0.07 KCAL/MOL
REMARK 927      BINDING AFFINITY PREDICTED BY RF-SCORE:    0.00 PKD
ROOT
HETATM    1  N   UNL     1      -9.962   8.716  71.963  1.00  0.00    -0.312 NA 
HETATM    2  C   UNL     1     -11.372   8.325  71.812  1.00  0.00    -0.288 C  
HETATM    3  H2  UNL     1      -9.467   8.647  71.074  1.00  0.00     0.000 HD 
HETATM    4  H1  UNL     1      -9.852   9.642  72.373  1.00  0.00     0.000 HD 
ENDROOT
BRANCH   2   5
HETATM    5  C   UNL     1     -11.539   6.926  71.193  1.00  0.00    -0.363 C  
BRANCH   5   6
HETATM    6  C   UNL     1     -11.109   5.812  72.089  1.00  0.00    -0.271 A  
HETATM    7  C   UNL     1     -10.012   4.978  72.072  1.00  0.00    -0.239 A  
HETATM    8  C   UNL     1     -10.169   4.152  73.200  1.00  0.00    -0.157 A  
HETATM    9  N   UNL     1     -11.276   4.435  73.889  1.00  0.00    -0.209 NA 
HETATM   10  N   UNL     1     -11.827   5.449  73.200  1.00  0.00    -0.079 NA 
HETATM   11  H   UNL     1     -11.623   3.987  74.738  1.00  0.00     0.000 HD 
ENDBRANCH   5   6
ENDBRANCH   2   5
TORSDOF 2
ENDMDL
MODEL      156
REMARK 921   NORMALIZED FREE ENERGY PREDICTED BY IDOCK:   -1.53 KCAL/MOL
REMARK 922        TOTAL FREE ENERGY PREDICTED BY IDOCK:   -1.98 KCAL/MOL
REMARK 923 INTER-LIGAND FREE ENERGY PREDICTED BY IDOCK:   -1.69 KCAL/MOL
REMARK 924 INTRA-LIGAND FREE ENERGY PREDICTED BY IDOCK:   -0.29 KCAL/MOL
REMARK 927      BINDING AFFINITY PREDICTED BY RF-SCORE:    0.00 PKD
ROOT
HETATM    1  N   UNL     1      -7.805  10.441  65.154  1.00  0.00    -0.202 NA 
HETATM    2  C   UNL     1      -9.121  10.812  64.614  1.00  0.00    -0.201 C  
HETATM    3  H2  UNL     1      -7.829   9.508  65.567  1.00  0.00     0.000 HD 
HETATM    4  H1  UNL     1      -7.060  10.515  64.462  1.00  0.00     0.000 HD 
ENDROOT
BRANCH   2   5
HETATM    5  C   UNL     1     -10.246  10.700  65.659  1.00  0.00    -0.319 C  
BRANCH   5   6
HETATM    6  C   UNL     1     -10.014   9.643  66.687  1.00  0.00    -0.236 A  
HETATM    7  C   UNL     1     -10.031   9.668  68.064  1.00  0.00    -0.190 A  
HETATM    8  C   UNL     1      -9.757   8.344  68.454  1.00  0.00    -0.156 A  
HETATM    9  N   UNL     1      -9.580   7.532  67.409  1.00  0.00    -0.143 NA 
HETATM   10  N   UNL     1      -9.747   8.341  66.349  1.00  0.00    -0.243 NA 
HETATM   11  H   UNL     1      -9.368   6.534  67.415  1.00  0.00     0.000 HD 
ENDBRANCH   5   6
ENDBRANCH   2   5
TORSDOF 2
ENDMDL
MODEL      157
REMARK 921   NORMALIZED FREE ENERGY PREDICTED BY IDOCK:   -1.52 KCAL/MOL
REMARK 922        TOTAL FREE ENERGY PREDICTED BY IDOCK:   -1.97 KCAL/MOL
REMARK 923 INTER-LIGAND FREE ENERGY PREDICTED BY IDOCK:   -1.94 KCAL/MOL
REMARK 924 INTRA-LIGAND FREE ENERGY PREDICTED BY IDOCK:   -0.04 KCAL/MOL
REMARK 927      BINDING AFFINITY PREDICTED BY RF-SCORE:    0.00 PKD
ROOT
HETATM    1  N   UNL     1      -7.228   3.992  66.362  1.00  0.00    -0.067 NA 
HETATM    2  C   UNL     1      -8.084   4.970  65.673  1.00  0.00    -0.113 C  
HETATM    3  H2  UNL     1      -7.448   3.041  66.066  1.00  0.00     0.000 HD 
HETATM    4  H1  UNL     1      -6.234   4.189  66.249  1.00  0.00     0.000 HD 
ENDROOT
BRANCH   2   5
HETATM    5  C   UNL     1      -9.584   4.672  65.844  1.00  0.00    -0.190 C  
BRANCH   5   6
HETATM    6  C   UNL     1     -10.165   5.198  67.116  1.00  0.00    -0.208 A  
HETATM    7  C   UNL     1     -10.002   4.829  68.433  1.00  0.00    -0.156 A  
HETATM    8  C   UNL     1     -10.804   5.727  69.161  1.00  0.00    -0.285 A  
HETATM    9  N   UNL     1     -11.429   6.605  68.375  1.00  0.00    -0.545 NA 
HETATM   10  N   UNL     1     -11.021   6.269  67.139  1.00  0.00    -0.372 NA 
HETATM   11  H   UNL     1     -12.066   7.354  68.647  1.00  0.00     0.000 HD 
ENDBRANCH   5   6
ENDBRANCH   2   5
TORSDOF 2
ENDMDL
MODEL      158
REMARK 921   NORMALIZED FREE ENERGY PREDICTED BY IDOCK:   -1.52 KCAL/MOL
REMARK 922        TOTAL FREE ENERGY PREDICTED BY IDOCK:   -1.97 KCAL/MOL
REMARK 923 INTER-LIGAND FREE ENERGY PREDICTED BY IDOCK:   -1.93 KCAL/MOL
REMARK 924 INTRA-LIGAND FREE ENERGY PREDICTED BY IDOCK:   -0.04 KCAL/MOL
REMARK 927      BINDING AFFINITY PREDICTED BY RF-SCORE:    0.00 PKD
ROOT
HETATM    1  N   UNL     1      -6.352  15.238  70.070  1.00  0.00    -0.160 NA 
HETATM    2  C   UNL     1      -7.245  14.739  69.013  1.00  0.00    -0.135 C  
HETATM    3  H2  UNL     1      -6.755  16.052  70.535  1.00  0.00     0.000 HD 
HETATM    4  H1  UNL     1      -6.100  14.518  70.745  1.00  0.00     0.000 HD 
ENDROOT
BRANCH   2   5
HETATM    5  C   UNL     1      -7.624  15.827  67.992  1.00  0.00    -0.134 C  
BRANCH   5   6
HETATM    6  C   UNL     1      -8.690  15.411  67.032  1.00  0.00    -0.229 A  
HETATM    7  C   UNL     1      -9.286  16.058  65.972  1.00  0.00    -0.380 A  
HETATM    8  C   UNL     1     -10.203  15.125  65.450  1.00  0.00    -0.372 A  
HETATM    9  N   UNL     1     -10.192  13.971  66.120  1.00  0.00    -0.293 NA 
HETATM   10  N   UNL     1      -9.263  14.166  67.070  1.00  0.00    -0.230 NA 
HETATM   11  H   UNL     1     -10.757  13.138  65.950  1.00  0.00     0.000 HD 
ENDBRANCH   5   6
ENDBRANCH   2   5
TORSDOF 2
ENDMDL
MODEL      159
REMARK 921   NORMALIZED FREE ENERGY PREDICTED BY IDOCK:   -1.49 KCAL/MOL
REMARK 922        TOTAL FREE ENERGY PREDICTED BY IDOCK:   -1.94 KCAL/MOL
REMARK 923 INTER-LIGAND FREE ENERGY PREDICTED BY IDOCK:   -1.90 KCAL/MOL
REMARK 924 INTRA-LIGAND FREE ENERGY PREDICTED BY IDOCK:   -0.04 KCAL/MOL
REMARK 927      BINDING AFFINITY PREDICTED BY RF-SCORE:    0.00 PKD
ROOT
HETATM    1  N   UNL     1     -10.985   7.583  67.321  1.00  0.00    -0.556 NA 
HETATM    2  C   UNL     1     -10.541   7.540  68.723  1.00  0.00    -0.156 C  
HETATM    3  H2  UNL     1     -10.340   8.129  66.750  1.00  0.00     0.000 HD 
HETATM    4  H1  UNL     1     -11.128   6.655  66.925  1.00  0.00     0.000 HD 
ENDROOT
BRANCH   2   5
HETATM    5  C   UNL     1     -10.325   8.941  69.321  1.00  0.00    -0.221 C  
BRANCH   5   6
HETATM    6  C   UNL     1      -8.941   9.175  69.833  1.00  0.00    -0.174 A  
HETATM    7  C   UNL     1      -7.748   9.430  69.194  1.00  0.00    -0.079 A  
HETATM    8  C   UNL     1      -6.808   9.578  70.232  1.00  0.00    -0.092 A  
HETATM    9  N   UNL     1      -7.356   9.432  71.440  1.00  0.00    -0.326 NA 
HETATM   10  N   UNL     1      -8.651   9.195  71.173  1.00  0.00    -0.298 NA 
HETATM   11  H   UNL     1      -6.899   9.487  72.351  1.00  0.00     0.000 HD 
ENDBRANCH   5   6
ENDBRANCH   2   5
TORSDOF 2
ENDMDL
MODEL      160
REMARK 921   NORMALIZED FREE ENERGY PREDICTED BY IDOCK:   -1.47 KCAL/MOL
REMARK 922        TOTAL FREE ENERGY PREDICTED BY IDOCK:   -1.91 KCAL/MOL
REMARK 923 INTER-LIGAND FREE ENERGY PREDICTED BY IDOCK:   -1.63 KCAL/MOL
REMARK 924 INTRA-LIGAND FREE ENERGY PREDICTED BY IDOCK:   -0.28 KCAL/MOL
REMARK 927      BINDING AFFINITY PREDICTED BY RF-SCORE:    0.00 PKD
ROOT
HETATM    1  N   UNL     1      -7.696  10.073  66.107  1.00  0.00    -0.104 NA 
HETATM    2  C   UNL     1      -7.987   9.183  67.241  1.00  0.00    -0.102 C  
HETATM    3  H2  UNL     1      -7.210  10.915  66.418  1.00  0.00     0.000 HD 
HETATM    4  H1  UNL     1      -7.179   9.606  65.363  1.00  0.00     0.000 HD 
ENDROOT
BRANCH   2   5
HETATM    5  C   UNL     1      -8.768   9.888  68.364  1.00  0.00    -0.120 C  
BRANCH   5   6
HETATM    6  C   UNL     1      -9.736  10.916  67.877  1.00  0.00    -0.165 A  
HETATM    7  C   UNL     1     -11.098  10.887  67.677  1.00  0.00    -0.376 A  
HETATM    8  C   UNL     1     -11.424  12.180  67.225  1.00  0.00    -0.345 A  
HETATM    9  N   UNL     1     -10.356  12.976  67.144  1.00  0.00    -0.242 NA 
HETATM   10  N   UNL     1      -9.345  12.189  67.550  1.00  0.00    -0.177 NA 
HETATM   11  H   UNL     1     -10.317  13.950  66.845  1.00  0.00     0.000 HD 
ENDBRANCH   5   6
ENDBRANCH   2   5
TORSDOF 2
ENDMDL
MODEL      161
REMARK 921   NORMALIZED FREE ENERGY PREDICTED BY IDOCK:   -1.45 KCAL/MOL
REMARK 922        TOTAL FREE ENERGY PREDICTED BY IDOCK:   -1.90 KCAL/MOL
REMARK 923 INTER-LIGAND FREE ENERGY PREDICTED BY IDOCK:   -1.84 KCAL/MOL
REMARK 924 INTRA-LIGAND FREE ENERGY PREDICTED BY IDOCK:   -0.06 KCAL/MOL
REMARK 927      BINDING AFFINITY PREDICTED BY RF-SCORE:    0.00 PKD
ROOT
HETATM    1  N   UNL     1      -6.583  12.039  66.912  1.00  0.00    -0.328 NA 
HETATM    2  C   UNL     1      -7.824  11.572  67.549  1.00  0.00    -0.133 C  
HETATM    3  H2  UNL     1      -6.627  11.927  65.899  1.00  0.00     0.000 HD 
HETATM    4  H1  UNL     1      -6.348  12.998  67.165  1.00  0.00     0.000 HD 
ENDROOT
BRANCH   2   5
HETATM    5  C   UNL     1      -8.178  10.123  67.168  1.00  0.00    -0.121 C  
BRANCH   5   6
HETATM    6  C   UNL     1      -8.546   9.948  65.731  1.00  0.00    -0.139 A  
HETATM    7  C   UNL     1      -7.830   9.513  64.637  1.00  0.00    -0.122 A  
HETATM    8  C   UNL     1      -8.746   9.552  63.568  1.00  0.00    -0.220 A  
HETATM    9  N   UNL     1      -9.953   9.974  63.947  1.00  0.00    -0.475 NA 
HETATM   10  N   UNL     1      -9.810  10.202  65.264  1.00  0.00    -0.302 NA 
HETATM   11  H   UNL     1     -10.788  10.096  63.373  1.00  0.00     0.000 HD 
ENDBRANCH   5   6
ENDBRANCH   2   5
TORSDOF 2
ENDMDL
MODEL      162
REMARK 921   NORMALIZED FREE ENERGY PREDICTED BY IDOCK:   -1.45 KCAL/MOL
REMARK 922        TOTAL FREE ENERGY PREDICTED BY IDOCK:   -1.89 KCAL/MOL
REMARK 923 INTER-LIGAND FREE ENERGY PREDICTED BY IDOCK:   -1.61 KCAL/MOL
REMARK 924 INTRA-LIGAND FREE ENERGY PREDICTED BY IDOCK:   -0.28 KCAL/MOL
REMARK 927      BINDING AFFINITY PREDICTED BY RF-SCORE:    0.00 PKD
ROOT
HETATM    1  N   UNL     1      -7.549  16.603  68.696  1.00  0.00    -0.202 NA 
HETATM    2  C   UNL     1      -7.892  16.930  67.303  1.00  0.00    -0.178 C  
HETATM    3  H2  UNL     1      -7.208  15.645  68.773  1.00  0.00     0.000 HD 
HETATM    4  H1  UNL     1      -6.886  17.262  69.102  1.00  0.00     0.000 HD 
ENDROOT
BRANCH   2   5
HETATM    5  C   UNL     1      -8.893  15.935  66.689  1.00  0.00    -0.316 C  
BRANCH   5   6
HETATM    6  C   UNL     1      -8.770  14.545  67.220  1.00  0.00    -0.210 A  
HETATM    7  C   UNL     1      -9.708  13.614  67.608  1.00  0.00    -0.228 A  
HETATM    8  C   UNL     1      -8.958  12.486  67.994  1.00  0.00    -0.192 A  
HETATM    9  N   UNL     1      -7.645  12.678  67.861  1.00  0.00    -0.118 NA 
HETATM   10  N   UNL     1      -7.555  13.931  67.384  1.00  0.00    -0.170 NA 
HETATM   11  H   UNL     1      -6.888  12.027  68.071  1.00  0.00     0.000 HD 
ENDBRANCH   5   6
ENDBRANCH   2   5
TORSDOF 2
ENDMDL
MODEL      163
REMARK 921   NORMALIZED FREE ENERGY PREDICTED BY IDOCK:   -1.44 KCAL/MOL
REMARK 922        TOTAL FREE ENERGY PREDICTED BY IDOCK:   -1.88 KCAL/MOL
REMARK 923 INTER-LIGAND FREE ENERGY PREDICTED BY IDOCK:   -1.63 KCAL/MOL
REMARK 924 INTRA-LIGAND FREE ENERGY PREDICTED BY IDOCK:   -0.25 KCAL/MOL
REMARK 927      BINDING AFFINITY PREDICTED BY RF-SCORE:    0.00 PKD
ROOT
HETATM    1  N   UNL     1      -9.071  11.316  65.584  1.00  0.00    -0.252 NA 
HETATM    2  C   UNL     1     -10.230  11.801  66.348  1.00  0.00    -0.215 C  
HETATM    3  H2  UNL     1      -8.211  11.765  65.900  1.00  0.00     0.000 HD 
HETATM    4  H1  UNL     1      -8.983  10.300  65.605  1.00  0.00     0.000 HD 
ENDROOT
BRANCH   2   5
HETATM    5  C   UNL     1     -10.364  13.334  66.316  1.00  0.00    -0.290 C  
BRANCH   5   6
HETATM    6  C   UNL     1      -9.280  14.053  67.050  1.00  0.00    -0.254 A  
HETATM    7  C   UNL     1      -9.013  15.391  67.232  1.00  0.00    -0.213 A  
HETATM    8  C   UNL     1      -7.860  15.423  68.039  1.00  0.00    -0.127 A  
HETATM    9  N   UNL     1      -7.424  14.201  68.353  1.00  0.00    -0.115 NA 
HETATM   10  N   UNL     1      -8.304  13.386  67.747  1.00  0.00    -0.164 NA 
HETATM   11  H   UNL     1      -6.614  13.946  68.919  1.00  0.00     0.000 HD 
ENDBRANCH   5   6
ENDBRANCH   2   5
TORSDOF 2
ENDMDL
MODEL      164
REMARK 921   NORMALIZED FREE ENERGY PREDICTED BY IDOCK:   -1.42 KCAL/MOL
REMARK 922        TOTAL FREE ENERGY PREDICTED BY IDOCK:   -1.86 KCAL/MOL
REMARK 923 INTER-LIGAND FREE ENERGY PREDICTED BY IDOCK:   -1.62 KCAL/MOL
REMARK 924 INTRA-LIGAND FREE ENERGY PREDICTED BY IDOCK:   -0.25 KCAL/MOL
REMARK 927      BINDING AFFINITY PREDICTED BY RF-SCORE:    0.00 PKD
ROOT
HETATM    1  N   UNL     1     -11.359   6.052  66.509  1.00  0.00    -0.694 NA 
HETATM    2  C   UNL     1     -10.129   5.335  66.880  1.00  0.00    -0.219 C  
HETATM    3  H2  UNL     1     -11.157   7.022  66.265  1.00  0.00     0.000 HD 
HETATM    4  H1  UNL     1     -11.876   5.587  65.763  1.00  0.00     0.000 HD 
ENDROOT
BRANCH   2   5
HETATM    5  C   UNL     1      -9.349   6.037  68.006  1.00  0.00    -0.114 C  
BRANCH   5   6
HETATM    6  C   UNL     1      -8.606   7.254  67.561  1.00  0.00    -0.122 A  
HETATM    7  C   UNL     1      -7.424   7.824  67.980  1.00  0.00    -0.108 A  
HETATM    8  C   UNL     1      -7.251   8.948  67.149  1.00  0.00    -0.083 A  
HETATM    9  N   UNL     1      -8.241   9.085  66.265  1.00  0.00    -0.113 NA 
HETATM   10  N   UNL     1      -9.048   8.043  66.530  1.00  0.00    -0.164 NA 
HETATM   11  H   UNL     1      -8.358   9.810  65.557  1.00  0.00     0.000 HD 
ENDBRANCH   5   6
ENDBRANCH   2   5
TORSDOF 2
ENDMDL
MODEL      165
REMARK 921   NORMALIZED FREE ENERGY PREDICTED BY IDOCK:   -1.41 KCAL/MOL
REMARK 922        TOTAL FREE ENERGY PREDICTED BY IDOCK:   -1.86 KCAL/MOL
REMARK 923 INTER-LIGAND FREE ENERGY PREDICTED BY IDOCK:   -1.63 KCAL/MOL
REMARK 924 INTRA-LIGAND FREE ENERGY PREDICTED BY IDOCK:   -0.23 KCAL/MOL
REMARK 927      BINDING AFFINITY PREDICTED BY RF-SCORE:    0.00 PKD
ROOT
HETATM    1  N   UNL     1     -11.148   5.661  66.220  1.00  0.00    -0.772 NA 
HETATM    2  C   UNL     1     -10.191   4.546  66.139  1.00  0.00    -0.254 C  
HETATM    3  H2  UNL     1     -11.587   5.832  65.315  1.00  0.00     0.000 HD 
HETATM    4  H1  UNL     1     -11.849   5.526  66.947  1.00  0.00     0.000 HD 
ENDROOT
BRANCH   2   5
HETATM    5  C   UNL     1      -9.132   4.751  65.041  1.00  0.00    -0.150 C  
BRANCH   5   6
HETATM    6  C   UNL     1      -8.222   5.910  65.285  1.00  0.00    -0.141 A  
HETATM    7  C   UNL     1      -7.088   6.350  64.640  1.00  0.00    -0.057 A  
HETATM    8  C   UNL     1      -6.703   7.510  65.339  1.00  0.00    -0.045 A  
HETATM    9  N   UNL     1      -7.526   7.793  66.350  1.00  0.00    -0.082 NA 
HETATM   10  N   UNL     1      -8.443   6.812  66.294  1.00  0.00    -0.125 NA 
HETATM   11  H   UNL     1      -7.472   8.570  67.009  1.00  0.00     0.000 HD 
ENDBRANCH   5   6
ENDBRANCH   2   5
TORSDOF 2
ENDMDL
MODEL      166
REMARK 921   NORMALIZED FREE ENERGY PREDICTED BY IDOCK:   -1.41 KCAL/MOL
REMARK 922        TOTAL FREE ENERGY PREDICTED BY IDOCK:   -1.85 KCAL/MOL
REMARK 923 INTER-LIGAND FREE ENERGY PREDICTED BY IDOCK:   -1.81 KCAL/MOL
REMARK 924 INTRA-LIGAND FREE ENERGY PREDICTED BY IDOCK:   -0.04 KCAL/MOL
REMARK 927      BINDING AFFINITY PREDICTED BY RF-SCORE:    0.00 PKD
ROOT
HETATM    1  N   UNL     1     -11.920   7.834  72.892  1.00  0.00    -0.609 NA 
HETATM    2  C   UNL     1     -10.971   8.524  72.006  1.00  0.00    -0.340 C  
HETATM    3  H2  UNL     1     -11.809   8.142  73.858  1.00  0.00     0.000 HD 
HETATM    4  H1  UNL     1     -12.888   7.933  72.586  1.00  0.00     0.000 HD 
ENDROOT
BRANCH   2   5
HETATM    5  C   UNL     1      -9.510   8.375  72.468  1.00  0.00    -0.360 C  
BRANCH   5   6
HETATM    6  C   UNL     1      -8.576   7.930  71.391  1.00  0.00    -0.123 A  
HETATM    7  C   UNL     1      -7.555   8.571  70.726  1.00  0.00    -0.074 A  
HETATM    8  C   UNL     1      -7.041   7.606  69.839  1.00  0.00    -0.063 A  
HETATM    9  N   UNL     1      -7.679   6.438  69.930  1.00  0.00    -0.106 NA 
HETATM   10  N   UNL     1      -8.602   6.656  70.883  1.00  0.00    -0.134 NA 
HETATM   11  H   UNL     1      -7.507   5.582  69.403  1.00  0.00     0.000 HD 
ENDBRANCH   5   6
ENDBRANCH   2   5
TORSDOF 2
ENDMDL
MODEL      167
REMARK 921   NORMALIZED FREE ENERGY PREDICTED BY IDOCK:   -1.39 KCAL/MOL
REMARK 922        TOTAL FREE ENERGY PREDICTED BY IDOCK:   -1.82 KCAL/MOL
REMARK 923 INTER-LIGAND FREE ENERGY PREDICTED BY IDOCK:   -1.54 KCAL/MOL
REMARK 924 INTRA-LIGAND FREE ENERGY PREDICTED BY IDOCK:   -0.28 KCAL/MOL
REMARK 927      BINDING AFFINITY PREDICTED BY RF-SCORE:    0.00 PKD
ROOT
HETATM    1  N   UNL     1      -9.715   5.623  65.816  1.00  0.00    -0.365 NA 
HETATM    2  C   UNL     1      -8.460   6.296  65.450  1.00  0.00    -0.129 C  
HETATM    3  H2  UNL     1     -10.522   6.207  65.593  1.00  0.00     0.000 HD 
HETATM    4  H1  UNL     1      -9.804   4.699  65.394  1.00  0.00     0.000 HD 
ENDROOT
BRANCH   2   5
HETATM    5  C   UNL     1      -8.325   7.691  66.087  1.00  0.00    -0.134 C  
BRANCH   5   6
HETATM    6  C   UNL     1      -9.103   7.857  67.351  1.00  0.00    -0.133 A  
HETATM    7  C   UNL     1     -10.176   8.654  67.681  1.00  0.00    -0.300 A  
HETATM    8  C   UNL     1     -10.464   8.335  69.022  1.00  0.00    -0.197 A  
HETATM    9  N   UNL     1      -9.643   7.404  69.511  1.00  0.00    -0.156 NA 
HETATM   10  N   UNL     1      -8.830   7.124  68.478  1.00  0.00    -0.126 NA 
HETATM   11  H   UNL     1      -9.635   6.999  70.448  1.00  0.00     0.000 HD 
ENDBRANCH   5   6
ENDBRANCH   2   5
TORSDOF 2
ENDMDL
MODEL      168
REMARK 921   NORMALIZED FREE ENERGY PREDICTED BY IDOCK:   -1.39 KCAL/MOL
REMARK 922        TOTAL FREE ENERGY PREDICTED BY IDOCK:   -1.82 KCAL/MOL
REMARK 923 INTER-LIGAND FREE ENERGY PREDICTED BY IDOCK:   -1.53 KCAL/MOL
REMARK 924 INTRA-LIGAND FREE ENERGY PREDICTED BY IDOCK:   -0.29 KCAL/MOL
REMARK 927      BINDING AFFINITY PREDICTED BY RF-SCORE:    0.00 PKD
ROOT
HETATM    1  N   UNL     1      -5.622  17.061  69.713  1.00  0.00    -0.190 NA 
HETATM    2  C   UNL     1      -5.832  15.728  70.297  1.00  0.00    -0.126 C  
HETATM    3  H2  UNL     1      -6.512  17.515  69.507  1.00  0.00     0.000 HD 
HETATM    4  H1  UNL     1      -5.034  17.657  70.294  1.00  0.00     0.000 HD 
ENDROOT
BRANCH   2   5
HETATM    5  C   UNL     1      -6.720  14.828  69.420  1.00  0.00    -0.149 C  
BRANCH   5   6
HETATM    6  C   UNL     1      -7.717  15.576  68.598  1.00  0.00    -0.144 A  
HETATM    7  C   UNL     1      -7.952  15.624  67.242  1.00  0.00    -0.227 A  
HETATM    8  C   UNL     1      -9.045  16.499  67.096  1.00  0.00    -0.213 A  
HETATM    9  N   UNL     1      -9.479  16.972  68.265  1.00  0.00    -0.257 NA 
HETATM   10  N   UNL     1      -8.663  16.394  69.162  1.00  0.00    -0.225 NA 
HETATM   11  H   UNL     1     -10.249  17.620  68.438  1.00  0.00     0.000 HD 
ENDBRANCH   5   6
ENDBRANCH   2   5
TORSDOF 2
ENDMDL
MODEL      169
REMARK 921   NORMALIZED FREE ENERGY PREDICTED BY IDOCK:   -1.35 KCAL/MOL
REMARK 922        TOTAL FREE ENERGY PREDICTED BY IDOCK:   -1.78 KCAL/MOL
REMARK 923 INTER-LIGAND FREE ENERGY PREDICTED BY IDOCK:   -1.71 KCAL/MOL
REMARK 924 INTRA-LIGAND FREE ENERGY PREDICTED BY IDOCK:   -0.06 KCAL/MOL
REMARK 927      BINDING AFFINITY PREDICTED BY RF-SCORE:    0.00 PKD
ROOT
HETATM    1  N   UNL     1      -8.810   8.748  72.577  1.00  0.00    -0.389 NA 
HETATM    2  C   UNL     1      -9.648   7.757  73.269  1.00  0.00    -0.283 C  
HETATM    3  H2  UNL     1      -8.679   8.494  71.597  1.00  0.00     0.000 HD 
HETATM    4  H1  UNL     1      -9.171   9.697  72.663  1.00  0.00     0.000 HD 
ENDROOT
BRANCH   2   5
HETATM    5  C   UNL     1      -9.105   6.323  73.139  1.00  0.00    -0.131 C  
BRANCH   5   6
HETATM    6  C   UNL     1      -9.435   5.666  71.839  1.00  0.00    -0.151 A  
HETATM    7  C   UNL     1     -10.597   5.599  71.102  1.00  0.00    -0.312 A  
HETATM    8  C   UNL     1     -10.257   4.851  69.959  1.00  0.00    -0.243 A  
HETATM    9  N   UNL     1      -8.978   4.471  69.961  1.00  0.00    -0.089 NA 
HETATM   10  N   UNL     1      -8.498   4.982  71.107  1.00  0.00    -0.118 NA 
HETATM   11  H   UNL     1      -8.482   3.922  69.258  1.00  0.00     0.000 HD 
ENDBRANCH   5   6
ENDBRANCH   2   5
TORSDOF 2
ENDMDL
MODEL      170
REMARK 921   NORMALIZED FREE ENERGY PREDICTED BY IDOCK:   -1.34 KCAL/MOL
REMARK 922        TOTAL FREE ENERGY PREDICTED BY IDOCK:   -1.77 KCAL/MOL
REMARK 923 INTER-LIGAND FREE ENERGY PREDICTED BY IDOCK:   -1.53 KCAL/MOL
REMARK 924 INTRA-LIGAND FREE ENERGY PREDICTED BY IDOCK:   -0.24 KCAL/MOL
REMARK 927      BINDING AFFINITY PREDICTED BY RF-SCORE:    0.00 PKD
ROOT
HETATM    1  N   UNL     1     -10.070   8.786  71.520  1.00  0.00    -0.272 NA 
HETATM    2  C   UNL     1     -10.493   7.854  72.576  1.00  0.00    -0.300 C  
HETATM    3  H2  UNL     1      -9.759   8.282  70.690  1.00  0.00     0.000 HD 
HETATM    4  H1  UNL     1     -10.791   9.468  71.284  1.00  0.00     0.000 HD 
ENDROOT
BRANCH   2   5
HETATM    5  C   UNL     1      -9.405   6.825  72.931  1.00  0.00    -0.151 C  
BRANCH   5   6
HETATM    6  C   UNL     1      -8.014   7.365  72.858  1.00  0.00    -0.100 A  
HETATM    7  C   UNL     1      -6.951   7.079  72.030  1.00  0.00    -0.065 A  
HETATM    8  C   UNL     1      -5.923   7.942  72.453  1.00  0.00    -0.042 A  
HETATM    9  N   UNL     1      -6.297   8.722  73.469  1.00  0.00    -0.273 NA 
HETATM   10  N   UNL     1      -7.572   8.359  73.693  1.00  0.00    -0.327 NA 
HETATM   11  H   UNL     1      -5.747   9.427  73.959  1.00  0.00     0.000 HD 
ENDBRANCH   5   6
ENDBRANCH   2   5
TORSDOF 2
ENDMDL
MODEL      171
REMARK 921   NORMALIZED FREE ENERGY PREDICTED BY IDOCK:   -1.33 KCAL/MOL
REMARK 922        TOTAL FREE ENERGY PREDICTED BY IDOCK:   -1.77 KCAL/MOL
REMARK 923 INTER-LIGAND FREE ENERGY PREDICTED BY IDOCK:   -1.56 KCAL/MOL
REMARK 924 INTRA-LIGAND FREE ENERGY PREDICTED BY IDOCK:   -0.20 KCAL/MOL
REMARK 927      BINDING AFFINITY PREDICTED BY RF-SCORE:    0.00 PKD
ROOT
HETATM    1  N   UNL     1     -11.131   7.842  69.182  1.00  0.00    -0.424 NA 
HETATM    2  C   UNL     1     -11.407   6.410  69.370  1.00  0.00    -0.377 C  
HETATM    3  H2  UNL     1     -10.199   7.987  68.794  1.00  0.00     0.000 HD 
HETATM    4  H1  UNL     1     -11.839   8.309  68.616  1.00  0.00     0.000 HD 
ENDROOT
BRANCH   2   5
HETATM    5  C   UNL     1     -10.338   5.705  70.224  1.00  0.00    -0.336 C  
BRANCH   5   6
HETATM    6  C   UNL     1      -9.057   5.449  69.501  1.00  0.00    -0.112 A  
HETATM    7  C   UNL     1      -7.786   5.155  69.942  1.00  0.00    -0.068 A  
HETATM    8  C   UNL     1      -7.022   5.005  68.769  1.00  0.00    -0.052 A  
HETATM    9  N   UNL     1      -7.746   5.186  67.663  1.00  0.00    -0.087 NA 
HETATM   10  N   UNL     1      -8.979   5.448  68.132  1.00  0.00    -0.108 NA 
HETATM   11  H   UNL     1      -7.438   5.137  66.692  1.00  0.00     0.000 HD 
ENDBRANCH   5   6
ENDBRANCH   2   5
TORSDOF 2
ENDMDL
MODEL      172
REMARK 921   NORMALIZED FREE ENERGY PREDICTED BY IDOCK:   -1.24 KCAL/MOL
REMARK 922        TOTAL FREE ENERGY PREDICTED BY IDOCK:   -1.66 KCAL/MOL
REMARK 923 INTER-LIGAND FREE ENERGY PREDICTED BY IDOCK:   -1.39 KCAL/MOL
REMARK 924 INTRA-LIGAND FREE ENERGY PREDICTED BY IDOCK:   -0.27 KCAL/MOL
REMARK 927      BINDING AFFINITY PREDICTED BY RF-SCORE:    0.00 PKD
ROOT
HETATM    1  N   UNL     1      -9.484   7.282  66.072  1.00  0.00    -0.403 NA 
HETATM    2  C   UNL     1      -8.022   7.441  66.100  1.00  0.00    -0.112 C  
HETATM    3  H2  UNL     1      -9.943   8.163  65.836  1.00  0.00     0.000 HD 
HETATM    4  H1  UNL     1      -9.787   6.534  65.449  1.00  0.00     0.000 HD 
ENDROOT
BRANCH   2   5
HETATM    5  C   UNL     1      -7.565   8.570  67.040  1.00  0.00    -0.092 C  
BRANCH   5   6
HETATM    6  C   UNL     1      -8.635   9.562  67.361  1.00  0.00    -0.125 A  
HETATM    7  C   UNL     1      -9.039  10.723  66.740  1.00  0.00    -0.167 A  
HETATM    8  C   UNL     1     -10.114  11.193  67.519  1.00  0.00    -0.183 A  
HETATM    9  N   UNL     1     -10.380  10.395  68.554  1.00  0.00    -0.167 NA 
HETATM   10  N   UNL     1      -9.474   9.409  68.434  1.00  0.00    -0.141 NA 
HETATM   11  H   UNL     1     -11.101  10.506  69.268  1.00  0.00     0.000 HD 
ENDBRANCH   5   6
ENDBRANCH   2   5
TORSDOF 2
ENDMDL
MODEL      173
REMARK 921   NORMALIZED FREE ENERGY PREDICTED BY IDOCK:   -1.22 KCAL/MOL
REMARK 922        TOTAL FREE ENERGY PREDICTED BY IDOCK:   -1.64 KCAL/MOL
REMARK 923 INTER-LIGAND FREE ENERGY PREDICTED BY IDOCK:   -1.61 KCAL/MOL
REMARK 924 INTRA-LIGAND FREE ENERGY PREDICTED BY IDOCK:   -0.03 KCAL/MOL
REMARK 927      BINDING AFFINITY PREDICTED BY RF-SCORE:    0.00 PKD
ROOT
HETATM    1  N   UNL     1      -8.153   2.632  62.448  1.00  0.00    -0.070 NA 
HETATM    2  C   UNL     1      -9.368   3.256  62.996  1.00  0.00    -0.095 C  
HETATM    3  H2  UNL     1      -8.156   1.625  62.608  1.00  0.00     0.000 HD 
HETATM    4  H1  UNL     1      -8.012   2.846  61.462  1.00  0.00     0.000 HD 
ENDROOT
BRANCH   2   5
HETATM    5  C   UNL     1      -9.581   2.933  64.486  1.00  0.00    -0.142 C  
BRANCH   5   6
HETATM    6  C   UNL     1      -9.808   4.137  65.340  1.00  0.00    -0.208 A  
HETATM    7  C   UNL     1      -8.946   4.959  66.032  1.00  0.00    -0.129 A  
HETATM    8  C   UNL     1      -9.773   5.932  66.625  1.00  0.00    -0.157 A  
HETATM    9  N   UNL     1     -11.062   5.750  66.334  1.00  0.00    -0.767 NA 
HETATM   10  N   UNL     1     -11.059   4.660  65.548  1.00  0.00    -0.038 NA 
HETATM   11  H   UNL     1     -11.862   6.307  66.637  1.00  0.00     0.000 HD 
ENDBRANCH   5   6
ENDBRANCH   2   5
TORSDOF 2
ENDMDL
MODEL      174
REMARK 921   NORMALIZED FREE ENERGY PREDICTED BY IDOCK:   -1.20 KCAL/MOL
REMARK 922        TOTAL FREE ENERGY PREDICTED BY IDOCK:   -1.62 KCAL/MOL
REMARK 923 INTER-LIGAND FREE ENERGY PREDICTED BY IDOCK:   -1.33 KCAL/MOL
REMARK 924 INTRA-LIGAND FREE ENERGY PREDICTED BY IDOCK:   -0.29 KCAL/MOL
REMARK 927      BINDING AFFINITY PREDICTED BY RF-SCORE:    0.00 PKD
ROOT
HETATM    1  N   UNL     1      -9.270   7.617  72.170  1.00  0.00    -0.135 NA 
HETATM    2  C   UNL     1     -10.427   6.709  72.191  1.00  0.00    -0.204 C  
HETATM    3  H2  UNL     1      -9.311   8.242  71.365  1.00  0.00     0.000 HD 
HETATM    4  H1  UNL     1      -9.168   8.145  73.037  1.00  0.00     0.000 HD 
ENDROOT
BRANCH   2   5
HETATM    5  C   UNL     1     -10.582   5.913  70.883  1.00  0.00    -0.319 C  
BRANCH   5   6
HETATM    6  C   UNL     1      -9.671   6.364  69.789  1.00  0.00    -0.154 A  
HETATM    7  C   UNL     1      -8.587   5.770  69.182  1.00  0.00    -0.110 A  
HETATM    8  C   UNL     1      -8.170   6.694  68.205  1.00  0.00    -0.114 A  
HETATM    9  N   UNL     1      -8.929   7.791  68.184  1.00  0.00    -0.128 NA 
HETATM   10  N   UNL     1      -9.837   7.565  69.149  1.00  0.00    -0.167 NA 
HETATM   11  H   UNL     1      -8.841   8.608  67.579  1.00  0.00     0.000 HD 
ENDBRANCH   5   6
ENDBRANCH   2   5
TORSDOF 2
ENDMDL
MODEL      175
REMARK 921   NORMALIZED FREE ENERGY PREDICTED BY IDOCK:   -1.20 KCAL/MOL
REMARK 922        TOTAL FREE ENERGY PREDICTED BY IDOCK:   -1.61 KCAL/MOL
REMARK 923 INTER-LIGAND FREE ENERGY PREDICTED BY IDOCK:   -1.56 KCAL/MOL
REMARK 924 INTRA-LIGAND FREE ENERGY PREDICTED BY IDOCK:   -0.06 KCAL/MOL
REMARK 927      BINDING AFFINITY PREDICTED BY RF-SCORE:    0.00 PKD
ROOT
HETATM    1  N   UNL     1     -11.767   7.180  69.816  1.00  0.00    -0.548 NA 
HETATM    2  C   UNL     1     -10.591   7.759  69.147  1.00  0.00    -0.183 C  
HETATM    3  H2  UNL     1     -11.533   6.863  70.757  1.00  0.00     0.000 HD 
HETATM    4  H1  UNL     1     -12.563   7.817  69.831  1.00  0.00     0.000 HD 
ENDROOT
BRANCH   2   5
HETATM    5  C   UNL     1      -9.388   6.799  69.123  1.00  0.00    -0.135 C  
BRANCH   5   6
HETATM    6  C   UNL     1      -9.236   6.050  67.840  1.00  0.00    -0.111 A  
HETATM    7  C   UNL     1     -10.034   5.955  66.722  1.00  0.00    -0.212 A  
HETATM    8  C   UNL     1      -9.327   5.111  65.845  1.00  0.00    -0.159 A  
HETATM    9  N   UNL     1      -8.166   4.700  66.358  1.00  0.00    -0.107 NA 
HETATM   10  N   UNL     1      -8.130   5.287  67.567  1.00  0.00    -0.100 NA 
HETATM   11  H   UNL     1      -7.471   4.085  65.934  1.00  0.00     0.000 HD 
ENDBRANCH   5   6
ENDBRANCH   2   5
TORSDOF 2
ENDMDL
MODEL      176
REMARK 921   NORMALIZED FREE ENERGY PREDICTED BY IDOCK:   -1.20 KCAL/MOL
REMARK 922        TOTAL FREE ENERGY PREDICTED BY IDOCK:   -1.61 KCAL/MOL
REMARK 923 INTER-LIGAND FREE ENERGY PREDICTED BY IDOCK:   -1.32 KCAL/MOL
REMARK 924 INTRA-LIGAND FREE ENERGY PREDICTED BY IDOCK:   -0.29 KCAL/MOL
REMARK 927      BINDING AFFINITY PREDICTED BY RF-SCORE:    0.00 PKD
ROOT
HETATM    1  N   UNL     1     -11.070  11.643  67.453  1.00  0.00    -0.263 NA 
HETATM    2  C   UNL     1     -11.131  10.275  67.992  1.00  0.00    -0.274 C  
HETATM    3  H2  UNL     1     -10.393  11.706  66.692  1.00  0.00     0.000 HD 
HETATM    4  H1  UNL     1     -11.982  11.991  67.160  1.00  0.00     0.000 HD 
ENDROOT
BRANCH   2   5
HETATM    5  C   UNL     1      -9.754   9.749  68.434  1.00  0.00    -0.162 C  
BRANCH   5   6
HETATM    6  C   UNL     1      -8.620  10.239  67.594  1.00  0.00    -0.118 A  
HETATM    7  C   UNL     1      -8.025   9.740  66.457  1.00  0.00    -0.112 A  
HETATM    8  C   UNL     1      -7.022  10.674  66.135  1.00  0.00    -0.135 A  
HETATM    9  N   UNL     1      -6.979  11.693  66.996  1.00  0.00    -0.143 NA 
HETATM   10  N   UNL     1      -7.962  11.410  67.868  1.00  0.00    -0.115 NA 
HETATM   11  H   UNL     1      -6.350  12.496  66.992  1.00  0.00     0.000 HD 
ENDBRANCH   5   6
ENDBRANCH   2   5
TORSDOF 2
ENDMDL
MODEL      177
REMARK 921   NORMALIZED FREE ENERGY PREDICTED BY IDOCK:   -1.18 KCAL/MOL
REMARK 922        TOTAL FREE ENERGY PREDICTED BY IDOCK:   -1.60 KCAL/MOL
REMARK 923 INTER-LIGAND FREE ENERGY PREDICTED BY IDOCK:   -1.57 KCAL/MOL
REMARK 924 INTRA-LIGAND FREE ENERGY PREDICTED BY IDOCK:   -0.02 KCAL/MOL
REMARK 927      BINDING AFFINITY PREDICTED BY RF-SCORE:    0.00 PKD
ROOT
HETATM    1  N   UNL     1      -6.198   7.657  67.480  1.00  0.00    -0.048 NA 
HETATM    2  C   UNL     1      -6.728   8.851  66.804  1.00  0.00    -0.072 C  
HETATM    3  H2  UNL     1      -6.899   6.917  67.518  1.00  0.00     0.000 HD 
HETATM    4  H1  UNL     1      -5.332   7.320  67.061  1.00  0.00     0.000 HD 
ENDROOT
BRANCH   2   5
HETATM    5  C   UNL     1      -8.036   9.361  67.436  1.00  0.00    -0.106 C  
BRANCH   5   6
HETATM    6  C   UNL     1      -8.805  10.299  66.565  1.00  0.00    -0.137 A  
HETATM    7  C   UNL     1      -9.914  10.125  65.767  1.00  0.00    -0.339 A  
HETATM    8  C   UNL     1     -10.168  11.397  65.220  1.00  0.00    -0.270 A  
HETATM    9  N   UNL     1      -9.293  12.314  65.636  1.00  0.00    -0.436 NA 
HETATM   10  N   UNL     1      -8.480  11.627  66.456  1.00  0.00    -0.166 NA 
HETATM   11  H   UNL     1      -9.251  13.304  65.390  1.00  0.00     0.000 HD 
ENDBRANCH   5   6
ENDBRANCH   2   5
TORSDOF 2
ENDMDL
MODEL      178
REMARK 921   NORMALIZED FREE ENERGY PREDICTED BY IDOCK:   -1.16 KCAL/MOL
REMARK 922        TOTAL FREE ENERGY PREDICTED BY IDOCK:   -1.57 KCAL/MOL
REMARK 923 INTER-LIGAND FREE ENERGY PREDICTED BY IDOCK:   -1.38 KCAL/MOL
REMARK 924 INTRA-LIGAND FREE ENERGY PREDICTED BY IDOCK:   -0.19 KCAL/MOL
REMARK 927      BINDING AFFINITY PREDICTED BY RF-SCORE:    0.00 PKD
ROOT
HETATM    1  N   UNL     1      -8.660  10.596  67.645  1.00  0.00    -0.118 NA 
HETATM    2  C   UNL     1      -9.838  10.216  66.850  1.00  0.00    -0.195 C  
HETATM    3  H2  UNL     1      -8.292   9.795  68.158  1.00  0.00     0.000 HD 
HETATM    4  H1  UNL     1      -7.932  11.037  67.084  1.00  0.00     0.000 HD 
ENDROOT
BRANCH   2   5
HETATM    5  C   UNL     1     -10.937   9.550  67.697  1.00  0.00    -0.150 C  
BRANCH   5   6
HETATM    6  C   UNL     1     -10.415   8.724  68.826  1.00  0.00    -0.191 A  
HETATM    7  C   UNL     1     -10.436   8.901  70.192  1.00  0.00    -0.236 A  
HETATM    8  C   UNL     1      -9.799   7.759  70.713  1.00  0.00    -0.180 A  
HETATM    9  N   UNL     1      -9.402   6.916  69.758  1.00  0.00    -0.147 NA 
HETATM   10  N   UNL     1      -9.792   7.519  68.622  1.00  0.00    -0.162 NA 
HETATM   11  H   UNL     1      -8.918   6.024  69.865  1.00  0.00     0.000 HD 
ENDBRANCH   5   6
ENDBRANCH   2   5
TORSDOF 2
ENDMDL
MODEL      179
REMARK 921   NORMALIZED FREE ENERGY PREDICTED BY IDOCK:   -1.13 KCAL/MOL
REMARK 922        TOTAL FREE ENERGY PREDICTED BY IDOCK:   -1.54 KCAL/MOL
REMARK 923 INTER-LIGAND FREE ENERGY PREDICTED BY IDOCK:   -1.51 KCAL/MOL
REMARK 924 INTRA-LIGAND FREE ENERGY PREDICTED BY IDOCK:   -0.03 KCAL/MOL
REMARK 927      BINDING AFFINITY PREDICTED BY RF-SCORE:    0.00 PKD
ROOT
HETATM    1  N   UNL     1      -6.245   6.824  64.568  1.00  0.00    -0.035 NA 
HETATM    2  C   UNL     1      -7.246   7.041  65.624  1.00  0.00    -0.073 C  
HETATM    3  H2  UNL     1      -5.567   7.586  64.544  1.00  0.00     0.000 HD 
HETATM    4  H1  UNL     1      -5.778   5.921  64.648  1.00  0.00     0.000 HD 
ENDROOT
BRANCH   2   5
HETATM    5  C   UNL     1      -7.951   8.403  65.504  1.00  0.00    -0.115 C  
BRANCH   5   6
HETATM    6  C   UNL     1      -9.045   8.610  66.500  1.00  0.00    -0.165 A  
HETATM    7  C   UNL     1      -9.311   9.629  67.387  1.00  0.00    -0.155 A  
HETATM    8  C   UNL     1     -10.501   9.244  68.032  1.00  0.00    -0.223 A  
HETATM    9  N   UNL     1     -10.963   8.072  67.592  1.00  0.00    -0.506 NA 
HETATM   10  N   UNL     1     -10.067   7.709  66.658  1.00  0.00    -0.237 NA 
HETATM   11  H   UNL     1     -11.799   7.570  67.893  1.00  0.00     0.000 HD 
ENDBRANCH   5   6
ENDBRANCH   2   5
TORSDOF 2
ENDMDL
MODEL      180
REMARK 921   NORMALIZED FREE ENERGY PREDICTED BY IDOCK:   -1.12 KCAL/MOL
REMARK 922        TOTAL FREE ENERGY PREDICTED BY IDOCK:   -1.53 KCAL/MOL
REMARK 923 INTER-LIGAND FREE ENERGY PREDICTED BY IDOCK:   -1.24 KCAL/MOL
REMARK 924 INTRA-LIGAND FREE ENERGY PREDICTED BY IDOCK:   -0.29 KCAL/MOL
REMARK 927      BINDING AFFINITY PREDICTED BY RF-SCORE:    0.00 PKD
ROOT
HETATM    1  N   UNL     1      -7.178   6.303  65.145  1.00  0.00    -0.067 NA 
HETATM    2  C   UNL     1      -7.486   7.485  65.965  1.00  0.00    -0.083 C  
HETATM    3  H2  UNL     1      -8.007   5.978  64.647  1.00  0.00     0.000 HD 
HETATM    4  H1  UNL     1      -6.403   6.460  64.502  1.00  0.00     0.000 HD 
ENDROOT
BRANCH   2   5
HETATM    5  C   UNL     1      -8.656   7.247  66.936  1.00  0.00    -0.124 C  
BRANCH   5   6
HETATM    6  C   UNL     1      -9.023   5.809  67.102  1.00  0.00    -0.113 A  
HETATM    7  C   UNL     1      -8.799   4.906  68.118  1.00  0.00    -0.113 A  
HETATM    8  C   UNL     1      -9.413   3.716  67.684  1.00  0.00    -0.185 A  
HETATM    9  N   UNL     1      -9.988   3.846  66.488  1.00  0.00    -0.392 NA 
HETATM   10  N   UNL     1      -9.744   5.125  66.157  1.00  0.00    -0.167 NA 
HETATM   11  H   UNL     1     -10.494   3.141  65.951  1.00  0.00     0.000 HD 
ENDBRANCH   5   6
ENDBRANCH   2   5
TORSDOF 2
ENDMDL
MODEL      181
REMARK 921   NORMALIZED FREE ENERGY PREDICTED BY IDOCK:   -1.11 KCAL/MOL
REMARK 922        TOTAL FREE ENERGY PREDICTED BY IDOCK:   -1.52 KCAL/MOL
REMARK 923 INTER-LIGAND FREE ENERGY PREDICTED BY IDOCK:   -1.45 KCAL/MOL
REMARK 924 INTRA-LIGAND FREE ENERGY PREDICTED BY IDOCK:   -0.07 KCAL/MOL
REMARK 927      BINDING AFFINITY PREDICTED BY RF-SCORE:    0.00 PKD
ROOT
HETATM    1  N   UNL     1      -7.863  10.945  68.576  1.00  0.00    -0.118 NA 
HETATM    2  C   UNL     1      -7.445   9.536  68.520  1.00  0.00    -0.080 C  
HETATM    3  H2  UNL     1      -7.221  11.494  69.148  1.00  0.00     0.000 HD 
HETATM    4  H1  UNL     1      -7.975  11.360  67.652  1.00  0.00     0.000 HD 
ENDROOT
BRANCH   2   5
HETATM    5  C   UNL     1      -7.276   8.910  69.916  1.00  0.00    -0.052 C  
BRANCH   5   6
HETATM    6  C   UNL     1      -8.564   8.664  70.630  1.00  0.00    -0.163 A  
HETATM    7  C   UNL     1      -9.739   8.061  70.240  1.00  0.00    -0.175 A  
HETATM    8  C   UNL     1     -10.570   8.122  71.376  1.00  0.00    -0.220 A  
HETATM    9  N   UNL     1      -9.973   8.714  72.412  1.00  0.00    -0.288 NA 
HETATM   10  N   UNL     1      -8.755   9.029  71.938  1.00  0.00    -0.349 NA 
HETATM   11  H   UNL     1     -10.352   8.887  73.343  1.00  0.00     0.000 HD 
ENDBRANCH   5   6
ENDBRANCH   2   5
TORSDOF 2
ENDMDL
MODEL      182
REMARK 921   NORMALIZED FREE ENERGY PREDICTED BY IDOCK:   -1.10 KCAL/MOL
REMARK 922        TOTAL FREE ENERGY PREDICTED BY IDOCK:   -1.51 KCAL/MOL
REMARK 923 INTER-LIGAND FREE ENERGY PREDICTED BY IDOCK:   -1.31 KCAL/MOL
REMARK 924 INTRA-LIGAND FREE ENERGY PREDICTED BY IDOCK:   -0.20 KCAL/MOL
REMARK 927      BINDING AFFINITY PREDICTED BY RF-SCORE:    0.00 PKD
ROOT
HETATM    1  N   UNL     1      -7.920   8.321  69.026  1.00  0.00    -0.110 NA 
HETATM    2  C   UNL     1      -7.868   6.965  68.458  1.00  0.00    -0.118 C  
HETATM    3  H2  UNL     1      -8.082   8.290  70.033  1.00  0.00     0.000 HD 
HETATM    4  H1  UNL     1      -7.091   8.872  68.805  1.00  0.00     0.000 HD 
ENDROOT
BRANCH   2   5
HETATM    5  C   UNL     1      -9.119   6.133  68.791  1.00  0.00    -0.126 C  
BRANCH   5   6
HETATM    6  C   UNL     1      -9.629   6.334  70.180  1.00  0.00    -0.162 A  
HETATM    7  C   UNL     1     -10.800   6.869  70.670  1.00  0.00    -0.280 A  
HETATM    8  C   UNL     1     -10.691   6.756  72.069  1.00  0.00    -0.218 A  
HETATM    9  N   UNL     1      -9.543   6.190  72.446  1.00  0.00    -0.152 NA 
HETATM   10  N   UNL     1      -8.918   5.937  71.284  1.00  0.00    -0.140 NA 
HETATM   11  H   UNL     1      -9.217   5.996  73.394  1.00  0.00     0.000 HD 
ENDBRANCH   5   6
ENDBRANCH   2   5
TORSDOF 2
ENDMDL
MODEL      183
REMARK 921   NORMALIZED FREE ENERGY PREDICTED BY IDOCK:   -1.08 KCAL/MOL
REMARK 922        TOTAL FREE ENERGY PREDICTED BY IDOCK:   -1.48 KCAL/MOL
REMARK 923 INTER-LIGAND FREE ENERGY PREDICTED BY IDOCK:   -1.46 KCAL/MOL
REMARK 924 INTRA-LIGAND FREE ENERGY PREDICTED BY IDOCK:   -0.03 KCAL/MOL
REMARK 927      BINDING AFFINITY PREDICTED BY RF-SCORE:    0.00 PKD
ROOT
HETATM    1  N   UNL     1     -11.995   6.729  70.016  1.00  0.00    -0.656 NA 
HETATM    2  C   UNL     1     -10.742   7.472  69.807  1.00  0.00    -0.242 C  
HETATM    3  H2  UNL     1     -12.021   6.312  70.947  1.00  0.00     0.000 HD 
HETATM    4  H1  UNL     1     -12.823   7.299  69.847  1.00  0.00     0.000 HD 
ENDROOT
BRANCH   2   5
HETATM    5  C   UNL     1      -9.492   6.612  70.062  1.00  0.00    -0.161 C  
BRANCH   5   6
HETATM    6  C   UNL     1      -8.244   7.161  69.452  1.00  0.00    -0.132 A  
HETATM    7  C   UNL     1      -8.019   8.205  68.582  1.00  0.00    -0.115 A  
HETATM    8  C   UNL     1      -6.623   8.230  68.402  1.00  0.00    -0.060 A  
HETATM    9  N   UNL     1      -6.002   7.280  69.103  1.00  0.00    -0.025 NA 
HETATM   10  N   UNL     1      -7.005   6.648  69.737  1.00  0.00    -0.064 NA 
HETATM   11  H   UNL     1      -5.002   7.080  69.148  1.00  0.00     0.000 HD 
ENDBRANCH   5   6
ENDBRANCH   2   5
TORSDOF 2
ENDMDL
MODEL      184
REMARK 921   NORMALIZED FREE ENERGY PREDICTED BY IDOCK:   -1.08 KCAL/MOL
REMARK 922        TOTAL FREE ENERGY PREDICTED BY IDOCK:   -1.48 KCAL/MOL
REMARK 923 INTER-LIGAND FREE ENERGY PREDICTED BY IDOCK:   -1.44 KCAL/MOL
REMARK 924 INTRA-LIGAND FREE ENERGY PREDICTED BY IDOCK:   -0.04 KCAL/MOL
REMARK 927      BINDING AFFINITY PREDICTED BY RF-SCORE:    0.00 PKD
ROOT
HETATM    1  N   UNL     1      -9.874   3.515  71.024  1.00  0.00    -0.146 NA 
HETATM    2  C   UNL     1      -9.005   4.638  71.407  1.00  0.00    -0.128 C  
HETATM    3  H2  UNL     1     -10.805   3.617  71.430  1.00  0.00     0.000 HD 
HETATM    4  H1  UNL     1      -9.928   3.386  70.014  1.00  0.00     0.000 HD 
ENDROOT
BRANCH   2   5
HETATM    5  C   UNL     1      -8.924   4.833  72.932  1.00  0.00    -0.124 C  
BRANCH   5   6
HETATM    6  C   UNL     1      -8.610   6.233  73.347  1.00  0.00    -0.122 A  
HETATM    7  C   UNL     1      -8.071   6.758  74.501  1.00  0.00    -0.149 A  
HETATM    8  C   UNL     1      -8.006   8.146  74.269  1.00  0.00    -0.254 A  
HETATM    9  N   UNL     1      -8.464   8.482  73.062  1.00  0.00    -0.395 NA 
HETATM   10  N   UNL     1      -8.818   7.305  72.519  1.00  0.00    -0.122 NA 
HETATM   11  H   UNL     1      -8.529   9.413  72.649  1.00  0.00     0.000 HD 
ENDBRANCH   5   6
ENDBRANCH   2   5
TORSDOF 2
ENDMDL
MODEL      185
REMARK 921   NORMALIZED FREE ENERGY PREDICTED BY IDOCK:   -1.01 KCAL/MOL
REMARK 922        TOTAL FREE ENERGY PREDICTED BY IDOCK:   -1.40 KCAL/MOL
REMARK 923 INTER-LIGAND FREE ENERGY PREDICTED BY IDOCK:   -1.19 KCAL/MOL
REMARK 924 INTRA-LIGAND FREE ENERGY PREDICTED BY IDOCK:   -0.21 KCAL/MOL
REMARK 927      BINDING AFFINITY PREDICTED BY RF-SCORE:    0.00 PKD
ROOT
HETATM    1  N   UNL     1      -7.782   5.760  65.821  1.00  0.00    -0.093 NA 
HETATM    2  C   UNL     1      -8.814   5.615  66.859  1.00  0.00    -0.113 C  
HETATM    3  H2  UNL     1      -8.200   5.778  64.890  1.00  0.00     0.000 HD 
HETATM    4  H1  UNL     1      -7.185   6.573  65.970  1.00  0.00     0.000 HD 
ENDROOT
BRANCH   2   5
HETATM    5  C   UNL     1      -9.715   4.388  66.635  1.00  0.00    -0.233 C  
BRANCH   5   6
HETATM    6  C   UNL     1      -9.743   3.907  65.221  1.00  0.00    -0.187 A  
HETATM    7  C   UNL     1     -10.714   3.951  64.245  1.00  0.00    -0.218 A  
HETATM    8  C   UNL     1     -10.121   3.351  63.118  1.00  0.00    -0.158 A  
HETATM    9  N   UNL     1      -8.868   2.956  63.351  1.00  0.00    -0.092 NA 
HETATM   10  N   UNL     1      -8.658   3.310  64.631  1.00  0.00    -0.097 NA 
HETATM   11  H   UNL     1      -8.222   2.496  62.710  1.00  0.00     0.000 HD 
ENDBRANCH   5   6
ENDBRANCH   2   5
TORSDOF 2
ENDMDL
MODEL      186
REMARK 921   NORMALIZED FREE ENERGY PREDICTED BY IDOCK:   -0.99 KCAL/MOL
REMARK 922        TOTAL FREE ENERGY PREDICTED BY IDOCK:   -1.38 KCAL/MOL
REMARK 923 INTER-LIGAND FREE ENERGY PREDICTED BY IDOCK:   -1.14 KCAL/MOL
REMARK 924 INTRA-LIGAND FREE ENERGY PREDICTED BY IDOCK:   -0.24 KCAL/MOL
REMARK 927      BINDING AFFINITY PREDICTED BY RF-SCORE:    0.00 PKD
ROOT
HETATM    1  N   UNL     1      -6.076   7.012  68.429  1.00  0.00    -0.032 NA 
HETATM    2  C   UNL     1      -7.349   6.536  67.867  1.00  0.00    -0.093 C  
HETATM    3  H2  UNL     1      -6.100   7.002  69.449  1.00  0.00     0.000 HD 
HETATM    4  H1  UNL     1      -5.272   6.493  68.077  1.00  0.00     0.000 HD 
ENDROOT
BRANCH   2   5
HETATM    5  C   UNL     1      -8.563   7.319  68.397  1.00  0.00    -0.124 C  
BRANCH   5   6
HETATM    6  C   UNL     1      -8.266   8.745  68.730  1.00  0.00    -0.116 A  
HETATM    7  C   UNL     1      -8.168   9.877  67.952  1.00  0.00    -0.113 A  
HETATM    8  C   UNL     1      -7.887  10.915  68.860  1.00  0.00    -0.142 A  
HETATM    9  N   UNL     1      -7.813  10.483  70.121  1.00  0.00    -0.410 NA 
HETATM   10  N   UNL     1      -8.053   9.165  70.018  1.00  0.00    -0.113 NA 
HETATM   11  H   UNL     1      -7.621  11.026  70.963  1.00  0.00     0.000 HD 
ENDBRANCH   5   6
ENDBRANCH   2   5
TORSDOF 2
ENDMDL
MODEL      187
REMARK 921   NORMALIZED FREE ENERGY PREDICTED BY IDOCK:   -0.99 KCAL/MOL
REMARK 922        TOTAL FREE ENERGY PREDICTED BY IDOCK:   -1.38 KCAL/MOL
REMARK 923 INTER-LIGAND FREE ENERGY PREDICTED BY IDOCK:   -1.32 KCAL/MOL
REMARK 924 INTRA-LIGAND FREE ENERGY PREDICTED BY IDOCK:   -0.06 KCAL/MOL
REMARK 927      BINDING AFFINITY PREDICTED BY RF-SCORE:    0.00 PKD
ROOT
HETATM    1  N   UNL     1      -7.277  10.942  65.517  1.00  0.00    -0.362 NA 
HETATM    2  C   UNL     1      -7.151   9.572  66.037  1.00  0.00    -0.092 C  
HETATM    3  H2  UNL     1      -7.929  11.489  66.080  1.00  0.00     0.000 HD 
HETATM    4  H1  UNL     1      -6.378  11.417  65.437  1.00  0.00     0.000 HD 
ENDROOT
BRANCH   2   5
HETATM    5  C   UNL     1      -8.508   8.856  66.158  1.00  0.00    -0.133 C  
BRANCH   5   6
HETATM    6  C   UNL     1      -8.946   8.623  67.567  1.00  0.00    -0.134 A  
HETATM    7  C   UNL     1      -9.431   7.508  68.215  1.00  0.00    -0.146 A  
HETATM    8  C   UNL     1      -9.641   7.926  69.543  1.00  0.00    -0.160 A  
HETATM    9  N   UNL     1      -9.314   9.206  69.732  1.00  0.00    -0.172 NA 
HETATM   10  N   UNL     1      -8.890   9.606  68.522  1.00  0.00    -0.123 NA 
HETATM   11  H   UNL     1      -9.373   9.751  70.593  1.00  0.00     0.000 HD 
ENDBRANCH   5   6
ENDBRANCH   2   5
TORSDOF 2
ENDMDL
MODEL      188
REMARK 921   NORMALIZED FREE ENERGY PREDICTED BY IDOCK:   -0.98 KCAL/MOL
REMARK 922        TOTAL FREE ENERGY PREDICTED BY IDOCK:   -1.37 KCAL/MOL
REMARK 923 INTER-LIGAND FREE ENERGY PREDICTED BY IDOCK:   -1.34 KCAL/MOL
REMARK 924 INTRA-LIGAND FREE ENERGY PREDICTED BY IDOCK:   -0.03 KCAL/MOL
REMARK 927      BINDING AFFINITY PREDICTED BY RF-SCORE:    0.00 PKD
ROOT
HETATM    1  N   UNL     1      -9.482   2.762  69.716  1.00  0.00    -0.125 NA 
HETATM    2  C   UNL     1      -9.704   4.164  70.102  1.00  0.00    -0.208 C  
HETATM    3  H2  UNL     1     -10.360   2.243  69.702  1.00  0.00     0.000 HD 
HETATM    4  H1  UNL     1      -8.990   2.672  68.828  1.00  0.00     0.000 HD 
ENDROOT
BRANCH   2   5
HETATM    5  C   UNL     1     -10.447   4.300  71.443  1.00  0.00     0.086 C  
BRANCH   5   6
HETATM    6  C   UNL     1     -10.203   5.598  72.141  1.00  0.00    -0.202 A  
HETATM    7  C   UNL     1     -11.041   6.463  72.809  1.00  0.00    -0.281 A  
HETATM    8  C   UNL     1     -10.203   7.499  73.263  1.00  0.00    -0.343 A  
HETATM    9  N   UNL     1      -8.929   7.312  72.917  1.00  0.00    -0.130 NA 
HETATM   10  N   UNL     1      -8.952   6.149  72.242  1.00  0.00    -0.138 NA 
HETATM   11  H   UNL     1      -8.126   7.910  73.116  1.00  0.00     0.000 HD 
ENDBRANCH   5   6
ENDBRANCH   2   5
TORSDOF 2
ENDMDL
MODEL      189
REMARK 921   NORMALIZED FREE ENERGY PREDICTED BY IDOCK:   -0.95 KCAL/MOL
REMARK 922        TOTAL FREE ENERGY PREDICTED BY IDOCK:   -1.33 KCAL/MOL
REMARK 923 INTER-LIGAND FREE ENERGY PREDICTED BY IDOCK:   -1.27 KCAL/MOL
REMARK 924 INTRA-LIGAND FREE ENERGY PREDICTED BY IDOCK:   -0.06 KCAL/MOL
REMARK 927      BINDING AFFINITY PREDICTED BY RF-SCORE:    0.00 PKD
ROOT
HETATM    1  N   UNL     1      -8.450   8.788  68.682  1.00  0.00    -0.128 NA 
HETATM    2  C   UNL     1      -7.429   8.655  67.630  1.00  0.00    -0.090 C  
HETATM    3  H2  UNL     1      -8.879   7.886  68.891  1.00  0.00     0.000 HD 
HETATM    4  H1  UNL     1      -8.088   9.226  69.528  1.00  0.00     0.000 HD 
ENDROOT
BRANCH   2   5
HETATM    5  C   UNL     1      -7.975   7.993  66.353  1.00  0.00    -0.102 C  
BRANCH   5   6
HETATM    6  C   UNL     1      -8.186   8.944  65.221  1.00  0.00    -0.137 A  
HETATM    7  C   UNL     1      -8.514   8.751  63.897  1.00  0.00    -0.110 A  
HETATM    8  C   UNL     1      -8.587  10.047  63.351  1.00  0.00    -0.204 A  
HETATM    9  N   UNL     1      -8.330  10.995  64.254  1.00  0.00    -0.357 NA 
HETATM   10  N   UNL     1      -8.096  10.303  65.382  1.00  0.00    -0.144 NA 
HETATM   11  H   UNL     1      -8.315  12.007  64.120  1.00  0.00     0.000 HD 
ENDBRANCH   5   6
ENDBRANCH   2   5
TORSDOF 2
ENDMDL
MODEL      190
REMARK 921   NORMALIZED FREE ENERGY PREDICTED BY IDOCK:   -0.90 KCAL/MOL
REMARK 922        TOTAL FREE ENERGY PREDICTED BY IDOCK:   -1.28 KCAL/MOL
REMARK 923 INTER-LIGAND FREE ENERGY PREDICTED BY IDOCK:   -1.34 KCAL/MOL
REMARK 924 INTRA-LIGAND FREE ENERGY PREDICTED BY IDOCK:    0.06 KCAL/MOL
REMARK 927      BINDING AFFINITY PREDICTED BY RF-SCORE:    0.00 PKD
ROOT
HETATM    1  N   UNL     1      -9.314  14.450  68.715  1.00  0.00    -0.300 NA 
HETATM    2  C   UNL     1      -8.018  13.776  68.545  1.00  0.00    -0.131 C  
HETATM    3  H2  UNL     1     -10.086  13.803  68.554  1.00  0.00     0.000 HD 
HETATM    4  H1  UNL     1      -9.404  14.907  69.622  1.00  0.00     0.000 HD 
ENDROOT
BRANCH   2   5
HETATM    5  C   UNL     1      -7.883  13.085  67.176  1.00  0.00    -0.073 C  
BRANCH   5   6
HETATM    6  C   UNL     1      -8.578  11.766  67.092  1.00  0.00    -0.168 A  
HETATM    7  C   UNL     1      -9.715  11.277  67.696  1.00  0.00    -0.183 A  
HETATM    8  C   UNL     1      -9.860   9.972  67.190  1.00  0.00    -0.185 A  
HETATM    9  N   UNL     1      -8.895   9.650  66.326  1.00  0.00    -0.147 NA 
HETATM   10  N   UNL     1      -8.133  10.756  66.278  1.00  0.00    -0.155 NA 
HETATM   11  H   UNL     1      -8.766   8.773  65.822  1.00  0.00     0.000 HD 
ENDBRANCH   5   6
ENDBRANCH   2   5
TORSDOF 2
ENDMDL
MODEL      191
REMARK 921   NORMALIZED FREE ENERGY PREDICTED BY IDOCK:   -0.84 KCAL/MOL
REMARK 922        TOTAL FREE ENERGY PREDICTED BY IDOCK:   -1.22 KCAL/MOL
REMARK 923 INTER-LIGAND FREE ENERGY PREDICTED BY IDOCK:   -1.19 KCAL/MOL
REMARK 924 INTRA-LIGAND FREE ENERGY PREDICTED BY IDOCK:   -0.03 KCAL/MOL
REMARK 927      BINDING AFFINITY PREDICTED BY RF-SCORE:    0.00 PKD
ROOT
HETATM    1  N   UNL     1     -10.762   6.038  66.373  1.00  0.00    -0.556 NA 
HETATM    2  C   UNL     1      -9.827   4.904  66.316  1.00  0.00    -0.209 C  
HETATM    3  H2  UNL     1     -11.078   6.299  65.439  1.00  0.00     0.000 HD 
HETATM    4  H1  UNL     1     -11.554   5.864  66.991  1.00  0.00     0.000 HD 
ENDROOT
BRANCH   2   5
HETATM    5  C   UNL     1      -8.631   5.166  65.383  1.00  0.00    -0.146 C  
BRANCH   5   6
HETATM    6  C   UNL     1      -7.882   3.933  64.998  1.00  0.00    -0.086 A  
HETATM    7  C   UNL     1      -8.091   2.599  65.266  1.00  0.00    -0.083 A  
HETATM    8  C   UNL     1      -7.047   1.929  64.601  1.00  0.00    -0.048 A  
HETATM    9  N   UNL     1      -6.234   2.767  63.956  1.00  0.00    -0.018 NA 
HETATM   10  N   UNL     1      -6.763   3.977  64.205  1.00  0.00    -0.043 NA 
HETATM   11  H   UNL     1      -5.406   2.542  63.403  1.00  0.00     0.000 HD 
ENDBRANCH   5   6
ENDBRANCH   2   5
TORSDOF 2
ENDMDL
MODEL      192
REMARK 921   NORMALIZED FREE ENERGY PREDICTED BY IDOCK:   -0.76 KCAL/MOL
REMARK 922        TOTAL FREE ENERGY PREDICTED BY IDOCK:   -1.12 KCAL/MOL
REMARK 923 INTER-LIGAND FREE ENERGY PREDICTED BY IDOCK:   -1.06 KCAL/MOL
REMARK 924 INTRA-LIGAND FREE ENERGY PREDICTED BY IDOCK:   -0.06 KCAL/MOL
REMARK 927      BINDING AFFINITY PREDICTED BY RF-SCORE:    0.00 PKD
ROOT
HETATM    1  N   UNL     1      -9.774   6.619  65.892  1.00  0.00    -0.375 NA 
HETATM    2  C   UNL     1      -8.349   6.270  65.784  1.00  0.00    -0.145 C  
HETATM    3  H2  UNL     1     -10.237   6.551  64.985  1.00  0.00     0.000 HD 
HETATM    4  H1  UNL     1     -10.263   6.065  66.594  1.00  0.00     0.000 HD 
ENDROOT
BRANCH   2   5
HETATM    5  C   UNL     1      -7.611   7.106  64.724  1.00  0.00    -0.105 C  
BRANCH   5   6
HETATM    6  C   UNL     1      -7.109   8.418  65.229  1.00  0.00    -0.075 A  
HETATM    7  C   UNL     1      -7.362   9.717  64.846  1.00  0.00    -0.129 A  
HETATM    8  C   UNL     1      -6.599  10.508  65.727  1.00  0.00    -0.123 A  
HETATM    9  N   UNL     1      -5.914   9.774  66.607  1.00  0.00    -0.058 NA 
HETATM   10  N   UNL     1      -6.244   8.511  66.289  1.00  0.00    -0.052 NA 
HETATM   11  H   UNL     1      -5.289  10.097  67.346  1.00  0.00     0.000 HD 
ENDBRANCH   5   6
ENDBRANCH   2   5
TORSDOF 2
ENDMDL
MODEL      193
REMARK 921   NORMALIZED FREE ENERGY PREDICTED BY IDOCK:   -0.76 KCAL/MOL
REMARK 922        TOTAL FREE ENERGY PREDICTED BY IDOCK:   -1.12 KCAL/MOL
REMARK 923 INTER-LIGAND FREE ENERGY PREDICTED BY IDOCK:   -0.83 KCAL/MOL
REMARK 924 INTRA-LIGAND FREE ENERGY PREDICTED BY IDOCK:   -0.29 KCAL/MOL
REMARK 927      BINDING AFFINITY PREDICTED BY RF-SCORE:    0.00 PKD
ROOT
HETATM    1  N   UNL     1      -8.964   7.892  66.057  1.00  0.00    -0.232 NA 
HETATM    2  C   UNL     1      -7.875   7.019  66.523  1.00  0.00    -0.106 C  
HETATM    3  H2  UNL     1      -9.486   7.452  65.299  1.00  0.00     0.000 HD 
HETATM    4  H1  UNL     1      -9.587   8.181  66.811  1.00  0.00     0.000 HD 
ENDROOT
BRANCH   2   5
HETATM    5  C   UNL     1      -6.935   6.583  65.386  1.00  0.00    -0.052 C  
BRANCH   5   6
HETATM    6  C   UNL     1      -6.803   7.588  64.290  1.00  0.00    -0.052 A  
HETATM    7  C   UNL     1      -5.889   8.592  64.057  1.00  0.00    -0.066 A  
HETATM    8  C   UNL     1      -6.296   9.176  62.842  1.00  0.00    -0.094 A  
HETATM    9  N   UNL     1      -7.383   8.592  62.336  1.00  0.00    -0.101 NA 
HETATM   10  N   UNL     1      -7.669   7.628  63.227  1.00  0.00    -0.126 NA 
HETATM   11  H   UNL     1      -7.880   8.823  61.475  1.00  0.00     0.000 HD 
ENDBRANCH   5   6
ENDBRANCH   2   5
TORSDOF 2
ENDMDL
MODEL      194
REMARK 921   NORMALIZED FREE ENERGY PREDICTED BY IDOCK:   -0.75 KCAL/MOL
REMARK 922        TOTAL FREE ENERGY PREDICTED BY IDOCK:   -1.12 KCAL/MOL
REMARK 923 INTER-LIGAND FREE ENERGY PREDICTED BY IDOCK:   -1.72 KCAL/MOL
REMARK 924 INTRA-LIGAND FREE ENERGY PREDICTED BY IDOCK:    0.60 KCAL/MOL
REMARK 927      BINDING AFFINITY PREDICTED BY RF-SCORE:    0.00 PKD
ROOT
HETATM    1  N   UNL     1     -11.131   7.842  69.182  1.00  0.00    -0.424 NA 
HETATM    2  C   UNL     1     -11.407   6.410  69.370  1.00  0.00    -0.377 C  
HETATM    3  H2  UNL     1     -10.199   7.987  68.794  1.00  0.00     0.000 HD 
HETATM    4  H1  UNL     1     -11.839   8.309  68.616  1.00  0.00     0.000 HD 
ENDROOT
BRANCH   2   5
HETATM    5  C   UNL     1     -10.338   5.705  70.224  1.00  0.00    -0.336 C  
BRANCH   5   6
HETATM    6  C   UNL     1      -9.183   6.578  70.590  1.00  0.00    -0.162 A  
HETATM    7  C   UNL     1      -8.210   6.471  71.559  1.00  0.00    -0.116 A  
HETATM    8  C   UNL     1      -7.394   7.603  71.378  1.00  0.00    -0.074 A  
HETATM    9  N   UNL     1      -7.808   8.374  70.371  1.00  0.00    -0.086 NA 
HETATM   10  N   UNL     1      -8.891   7.729  69.904  1.00  0.00    -0.142 NA 
HETATM   11  H   UNL     1      -7.400   9.247  70.035  1.00  0.00     0.000 HD 
ENDBRANCH   5   6
ENDBRANCH   2   5
TORSDOF 2
ENDMDL
MODEL      195
REMARK 921   NORMALIZED FREE ENERGY PREDICTED BY IDOCK:   -0.71 KCAL/MOL
REMARK 922        TOTAL FREE ENERGY PREDICTED BY IDOCK:   -1.07 KCAL/MOL
REMARK 923 INTER-LIGAND FREE ENERGY PREDICTED BY IDOCK:   -0.78 KCAL/MOL
REMARK 924 INTRA-LIGAND FREE ENERGY PREDICTED BY IDOCK:   -0.29 KCAL/MOL
REMARK 927      BINDING AFFINITY PREDICTED BY RF-SCORE:    0.00 PKD
ROOT
HETATM    1  N   UNL     1      -6.618   6.837  67.421  1.00  0.00    -0.052 NA 
HETATM    2  C   UNL     1      -6.429   6.401  68.813  1.00  0.00    -0.046 C  
HETATM    3  H2  UNL     1      -7.586   6.706  67.126  1.00  0.00     0.000 HD 
HETATM    4  H1  UNL     1      -6.315   7.797  67.264  1.00  0.00     0.000 HD 
ENDROOT
BRANCH   2   5
HETATM    5  C   UNL     1      -6.886   4.951  69.050  1.00  0.00    -0.051 C  
BRANCH   5   6
HETATM    6  C   UNL     1      -7.850   4.445  68.027  1.00  0.00    -0.080 A  
HETATM    7  C   UNL     1      -9.226   4.400  67.992  1.00  0.00    -0.174 A  
HETATM    8  C   UNL     1      -9.536   3.826  66.744  1.00  0.00    -0.194 A  
HETATM    9  N   UNL     1      -8.446   3.529  66.035  1.00  0.00    -0.109 NA 
HETATM   10  N   UNL     1      -7.435   3.919  66.830  1.00  0.00    -0.072 NA 
HETATM   11  H   UNL     1      -8.392   3.106  65.108  1.00  0.00     0.000 HD 
ENDBRANCH   5   6
ENDBRANCH   2   5
TORSDOF 2
ENDMDL
MODEL      196
REMARK 921   NORMALIZED FREE ENERGY PREDICTED BY IDOCK:   -0.53 KCAL/MOL
REMARK 922        TOTAL FREE ENERGY PREDICTED BY IDOCK:   -0.86 KCAL/MOL
REMARK 923 INTER-LIGAND FREE ENERGY PREDICTED BY IDOCK:   -0.84 KCAL/MOL
REMARK 924 INTRA-LIGAND FREE ENERGY PREDICTED BY IDOCK:   -0.02 KCAL/MOL
REMARK 927      BINDING AFFINITY PREDICTED BY RF-SCORE:    0.00 PKD
ROOT
HETATM    1  N   UNL     1      -7.141   5.981  65.426  1.00  0.00    -0.063 NA 
HETATM    2  C   UNL     1      -6.946   6.478  66.796  1.00  0.00    -0.067 C  
HETATM    3  H2  UNL     1      -8.129   5.812  65.236  1.00  0.00     0.000 HD 
HETATM    4  H1  UNL     1      -6.734   6.596  64.722  1.00  0.00     0.000 HD 
ENDROOT
BRANCH   2   5
HETATM    5  C   UNL     1      -7.561   5.550  67.858  1.00  0.00    -0.085 C  
BRANCH   5   6
HETATM    6  C   UNL     1      -8.241   6.274  68.974  1.00  0.00    -0.114 A  
HETATM    7  C   UNL     1      -9.558   6.610  69.194  1.00  0.00    -0.136 A  
HETATM    8  C   UNL     1      -9.560   7.267  70.439  1.00  0.00    -0.165 A  
HETATM    9  N   UNL     1      -8.341   7.343  70.976  1.00  0.00    -0.113 NA 
HETATM   10  N   UNL     1      -7.558   6.728  70.073  1.00  0.00    -0.097 NA 
HETATM   11  H   UNL     1      -8.067   7.768  71.863  1.00  0.00     0.000 HD 
ENDBRANCH   5   6
ENDBRANCH   2   5
TORSDOF 2
ENDMDL
