MODEL        1
REMARK 921   NORMALIZED FREE ENERGY PREDICTED BY IDOCK:   -5.79 KCAL/MOL
REMARK 922        TOTAL FREE ENERGY PREDICTED BY IDOCK:  -10.83 KCAL/MOL
REMARK 923 INTER-LIGAND FREE ENERGY PREDICTED BY IDOCK:   -9.51 KCAL/MOL
REMARK 924 INTRA-LIGAND FREE ENERGY PREDICTED BY IDOCK:   -1.32 KCAL/MOL
REMARK 927      BINDING AFFINITY PREDICTED BY RF-SCORE:    0.00 PKD
ROOT
HETATM    1  C   UNL     1     -10.507   6.205  71.444  1.00  0.00    -0.273 C  
HETATM    2  C   UNL     1     -11.019   7.003  70.243  1.00  0.00    -0.271 C  
HETATM    3  C   UNL     1     -11.064   6.097  69.010  1.00  0.00    -0.437 C  
ENDROOT
BRANCH   2   4
HETATM    4  N   UNL     1     -12.343   7.539  70.570  1.00  0.00    -0.527 NA 
HETATM    5  H   UNL     1     -13.065   6.832  70.428  1.00  0.00     0.000 HD 
BRANCH   4   6
HETATM    6  C   UNL     1     -12.423   8.101  71.927  1.00  0.00    -0.332 C  
BRANCH   6   7
HETATM    7  C   UNL     1     -13.640   9.035  72.044  1.00  0.00    -0.445 C  
HETATM    8  O   UNL     1     -14.255   8.869  73.333  1.00  0.00    -1.241 OA 
HETATM    9  H   UNL     1     -15.006   9.446  73.405  1.00  0.00     0.000 HD 
BRANCH   7  10
HETATM   10  C   UNL     1     -13.237  10.505  71.857  1.00  0.00    -0.420 C  
BRANCH  10  11
HETATM   11  O   UNL     1     -12.006  10.561  71.123  1.00  0.00    -0.352 OA 
BRANCH  11  12
HETATM   12  C   UNL     1     -11.967  11.503  70.130  1.00  0.00    -0.369 A  
HETATM   13  C   UNL     1     -12.095  12.873  70.332  1.00  0.00    -0.385 A  
HETATM   14  C   UNL     1     -12.042  13.751  69.248  1.00  0.00    -0.374 A  
HETATM   15  C   UNL     1     -11.834  13.275  67.945  1.00  0.00    -0.388 A  
HETATM   16  C   UNL     1     -11.688  11.897  67.752  1.00  0.00    -0.362 A  
HETATM   17  C   UNL     1     -11.747  11.017  68.840  1.00  0.00    -0.400 A  
BRANCH  15  18
HETATM   18  C   UNL     1     -11.779  14.234  66.781  1.00  0.00    -0.424 C  
BRANCH  18  19
HETATM   19  C   UNL     1     -12.785  13.880  65.685  1.00  0.00    -0.495 C  
BRANCH  19  20
HETATM   20  O   UNL     1     -12.140  13.896  64.410  1.00  0.00    -0.419 OA 
BRANCH  20  21
HETATM   21  C   UNL     1     -12.249  12.620  63.778  1.00  0.00    -0.514 C  
BRANCH  21  22
HETATM   22  C   UNL     1     -10.880  12.097  63.490  1.00  0.00    -0.518 C  
HETATM   23  C   UNL     1      -9.791  12.265  64.521  1.00  0.00    -0.125 C  
HETATM   24  C   UNL     1     -10.336  10.897  64.224  1.00  0.00    -0.436 C  
ENDBRANCH  21  22
ENDBRANCH  20  21
ENDBRANCH  19  20
ENDBRANCH  18  19
ENDBRANCH  15  18
ENDBRANCH  11  12
ENDBRANCH  10  11
ENDBRANCH   7  10
ENDBRANCH   6   7
ENDBRANCH   4   6
ENDBRANCH   2   4
TORSDOF 11
ENDMDL
MODEL        2
REMARK 921   NORMALIZED FREE ENERGY PREDICTED BY IDOCK:   -5.77 KCAL/MOL
REMARK 922        TOTAL FREE ENERGY PREDICTED BY IDOCK:  -10.80 KCAL/MOL
REMARK 923 INTER-LIGAND FREE ENERGY PREDICTED BY IDOCK:   -9.45 KCAL/MOL
REMARK 924 INTRA-LIGAND FREE ENERGY PREDICTED BY IDOCK:   -1.34 KCAL/MOL
REMARK 927      BINDING AFFINITY PREDICTED BY RF-SCORE:    0.00 PKD
ROOT
HETATM    1  C   UNL     1     -12.897  13.951  65.553  1.00  0.00    -0.471 C  
HETATM    2  C   UNL     1     -12.166  14.597  64.373  1.00  0.00    -0.452 C  
HETATM    3  C   UNL     1     -11.022  15.468  64.896  1.00  0.00    -0.452 C  
ENDROOT
BRANCH   2   4
HETATM    4  N   UNL     1     -11.679  13.534  63.490  1.00  0.00    -0.692 NA 
HETATM    5  H   UNL     1     -10.662  13.564  63.415  1.00  0.00     0.000 HD 
BRANCH   4   6
HETATM    6  C   UNL     1     -12.134  12.193  63.887  1.00  0.00    -0.488 C  
BRANCH   6   7
HETATM    7  C   UNL     1     -10.945  11.218  63.927  1.00  0.00    -0.305 C  
HETATM    8  O   UNL     1     -10.431  11.028  62.597  1.00  0.00    -0.748 OA 
HETATM    9  H   UNL     1      -9.697  10.425  62.623  1.00  0.00     0.000 HD 
BRANCH   7  10
HETATM   10  C   UNL     1      -9.823  11.740  64.836  1.00  0.00    -0.223 C  
BRANCH  10  11
HETATM   11  O   UNL     1      -9.850  11.015  66.074  1.00  0.00    -0.211 OA 
BRANCH  11  12
HETATM   12  C   UNL     1     -10.374  11.703  67.135  1.00  0.00    -0.217 A  
HETATM   13  C   UNL     1      -9.934  12.950  67.568  1.00  0.00    -0.215 A  
HETATM   14  C   UNL     1     -10.538  13.567  68.664  1.00  0.00    -0.259 A  
HETATM   15  C   UNL     1     -11.612  12.960  69.331  1.00  0.00    -0.363 A  
HETATM   16  C   UNL     1     -12.062  11.715  68.879  1.00  0.00    -0.253 A  
HETATM   17  C   UNL     1     -11.451  11.094  67.783  1.00  0.00    -0.349 A  
BRANCH  15  18
HETATM   18  C   UNL     1     -12.257  13.639  70.515  1.00  0.00    -0.438 C  
BRANCH  18  19
HETATM   19  C   UNL     1     -12.901  12.641  71.479  1.00  0.00    -0.268 C  
BRANCH  19  20
HETATM   20  O   UNL     1     -13.685  13.340  72.449  1.00  0.00    -0.577 OA 
BRANCH  20  21
HETATM   21  C   UNL     1     -14.004  14.652  71.984  1.00  0.00    -0.485 C  
BRANCH  21  22
HETATM   22  C   UNL     1     -13.567  15.652  73.005  1.00  0.00    -0.619 C  
HETATM   23  C   UNL     1     -12.517  15.266  74.017  1.00  0.00    -0.757 C  
HETATM   24  C   UNL     1     -12.193  16.271  72.948  1.00  0.00    -0.610 C  
ENDBRANCH  21  22
ENDBRANCH  20  21
ENDBRANCH  19  20
ENDBRANCH  18  19
ENDBRANCH  15  18
ENDBRANCH  11  12
ENDBRANCH  10  11
ENDBRANCH   7  10
ENDBRANCH   6   7
ENDBRANCH   4   6
ENDBRANCH   2   4
TORSDOF 11
ENDMDL
MODEL        3
REMARK 921   NORMALIZED FREE ENERGY PREDICTED BY IDOCK:   -5.74 KCAL/MOL
REMARK 922        TOTAL FREE ENERGY PREDICTED BY IDOCK:  -10.76 KCAL/MOL
REMARK 923 INTER-LIGAND FREE ENERGY PREDICTED BY IDOCK:   -9.26 KCAL/MOL
REMARK 924 INTRA-LIGAND FREE ENERGY PREDICTED BY IDOCK:   -1.49 KCAL/MOL
REMARK 927      BINDING AFFINITY PREDICTED BY RF-SCORE:    0.00 PKD
ROOT
HETATM    1  C   UNL     1     -11.009   6.373  68.873  1.00  0.00    -0.412 C  
HETATM    2  C   UNL     1     -11.392   6.225  70.347  1.00  0.00    -0.372 C  
HETATM    3  C   UNL     1     -10.227   6.684  71.226  1.00  0.00    -0.222 C  
ENDROOT
BRANCH   2   4
HETATM    4  N   UNL     1     -12.602   7.013  70.594  1.00  0.00    -0.593 NA 
HETATM    5  H   UNL     1     -13.436   6.491  70.325  1.00  0.00     0.000 HD 
BRANCH   4   6
HETATM    6  C   UNL     1     -12.711   7.494  71.980  1.00  0.00    -0.216 C  
BRANCH   6   7
HETATM    7  C   UNL     1     -13.593   8.754  72.038  1.00  0.00    -0.427 C  
HETATM    8  O   UNL     1     -14.174   8.876  73.347  1.00  0.00    -1.241 OA 
HETATM    9  H   UNL     1     -14.719   9.654  73.382  1.00  0.00     0.000 HD 
BRANCH   7  10
HETATM   10  C   UNL     1     -12.784  10.018  71.719  1.00  0.00    -0.428 C  
BRANCH  10  11
HETATM   11  O   UNL     1     -11.783   9.699  70.742  1.00  0.00    -0.281 OA 
BRANCH  11  12
HETATM   12  C   UNL     1     -11.622  10.633  69.754  1.00  0.00    -0.309 A  
HETATM   13  C   UNL     1     -11.268  10.344  68.440  1.00  0.00    -0.318 A  
HETATM   14  C   UNL     1     -11.129  11.374  67.507  1.00  0.00    -0.339 A  
HETATM   15  C   UNL     1     -11.367  12.709  67.867  1.00  0.00    -0.337 A  
HETATM   16  C   UNL     1     -11.741  12.989  69.185  1.00  0.00    -0.378 A  
HETATM   17  C   UNL     1     -11.874  11.957  70.121  1.00  0.00    -0.390 A  
BRANCH  15  18
HETATM   18  C   UNL     1     -11.212  13.812  66.849  1.00  0.00    -0.326 C  
BRANCH  18  19
HETATM   19  C   UNL     1     -12.534  14.522  66.554  1.00  0.00    -0.006 C  
BRANCH  19  20
HETATM   20  O   UNL     1     -13.038  14.104  65.283  1.00  0.00    -0.763 OA 
BRANCH  20  21
HETATM   21  C   UNL     1     -12.028  14.225  64.281  1.00  0.00    -0.425 C  
BRANCH  21  22
HETATM   22  C   UNL     1     -12.095  13.039  63.374  1.00  0.00    -0.591 C  
HETATM   23  C   UNL     1     -11.254  11.825  63.680  1.00  0.00    -0.519 C  
HETATM   24  C   UNL     1     -12.749  11.756  63.820  1.00  0.00    -0.369 C  
ENDBRANCH  21  22
ENDBRANCH  20  21
ENDBRANCH  19  20
ENDBRANCH  18  19
ENDBRANCH  15  18
ENDBRANCH  11  12
ENDBRANCH  10  11
ENDBRANCH   7  10
ENDBRANCH   6   7
ENDBRANCH   4   6
ENDBRANCH   2   4
TORSDOF 11
ENDMDL
MODEL        4
REMARK 921   NORMALIZED FREE ENERGY PREDICTED BY IDOCK:   -5.59 KCAL/MOL
REMARK 922        TOTAL FREE ENERGY PREDICTED BY IDOCK:  -10.51 KCAL/MOL
REMARK 923 INTER-LIGAND FREE ENERGY PREDICTED BY IDOCK:   -9.59 KCAL/MOL
REMARK 924 INTRA-LIGAND FREE ENERGY PREDICTED BY IDOCK:   -0.93 KCAL/MOL
REMARK 927      BINDING AFFINITY PREDICTED BY RF-SCORE:    0.00 PKD
ROOT
HETATM    1  C   UNL     1     -10.208  10.856  63.956  1.00  0.00    -0.422 C  
HETATM    2  C   UNL     1     -10.779  12.166  63.407  1.00  0.00    -0.409 C  
HETATM    3  C   UNL     1     -12.303  12.157  63.544  1.00  0.00    -0.682 C  
ENDROOT
BRANCH   2   4
HETATM    4  N   UNL     1     -10.175  13.280  64.142  1.00  0.00    -0.724 NA 
HETATM    5  H   UNL     1      -9.436  13.718  63.592  1.00  0.00     0.000 HD 
BRANCH   4   6
HETATM    6  C   UNL     1     -11.155  14.281  64.590  1.00  0.00    -0.363 C  
BRANCH   6   7
HETATM    7  C   UNL     1     -10.446  15.415  65.352  1.00  0.00    -0.402 C  
HETATM    8  O   UNL     1     -10.822  16.683  64.788  1.00  0.00    -0.732 OA 
HETATM    9  H   UNL     1     -10.384  17.383  65.259  1.00  0.00     0.000 HD 
BRANCH   7  10
HETATM   10  C   UNL     1     -10.804  15.395  66.844  1.00  0.00    -0.313 C  
BRANCH  10  11
HETATM   11  O   UNL     1     -12.016  14.649  67.024  1.00  0.00    -0.382 OA 
BRANCH  11  12
HETATM   12  C   UNL     1     -11.968  13.695  68.005  1.00  0.00    -0.350 A  
HETATM   13  C   UNL     1     -12.158  13.941  69.361  1.00  0.00    -0.384 A  
HETATM   14  C   UNL     1     -12.088  12.895  70.281  1.00  0.00    -0.377 A  
HETATM   15  C   UNL     1     -11.850  11.578  69.859  1.00  0.00    -0.430 A  
HETATM   16  C   UNL     1     -11.679  11.336  68.492  1.00  0.00    -0.378 A  
HETATM   17  C   UNL     1     -11.743  12.387  67.570  1.00  0.00    -0.425 A  
BRANCH  15  18
HETATM   18  C   UNL     1     -11.776  10.455  70.865  1.00  0.00    -0.455 C  
BRANCH  18  19
HETATM   19  C   UNL     1     -12.950  10.473  71.845  1.00  0.00    -0.447 C  
BRANCH  19  20
HETATM   20  O   UNL     1     -13.049   9.209  72.507  1.00  0.00    -0.429 OA 
BRANCH  20  21
HETATM   21  C   UNL     1     -13.665   8.244  71.653  1.00  0.00    -0.361 C  
BRANCH  21  22
HETATM   22  C   UNL     1     -12.886   6.970  71.712  1.00  0.00    -0.365 C  
HETATM   23  C   UNL     1     -11.823   6.704  70.675  1.00  0.00    -0.443 C  
HETATM   24  C   UNL     1     -11.429   6.968  72.102  1.00  0.00    -0.312 C  
ENDBRANCH  21  22
ENDBRANCH  20  21
ENDBRANCH  19  20
ENDBRANCH  18  19
ENDBRANCH  15  18
ENDBRANCH  11  12
ENDBRANCH  10  11
ENDBRANCH   7  10
ENDBRANCH   6   7
ENDBRANCH   4   6
ENDBRANCH   2   4
TORSDOF 11
ENDMDL
MODEL        5
REMARK 921   NORMALIZED FREE ENERGY PREDICTED BY IDOCK:   -5.55 KCAL/MOL
REMARK 922        TOTAL FREE ENERGY PREDICTED BY IDOCK:  -10.44 KCAL/MOL
REMARK 923 INTER-LIGAND FREE ENERGY PREDICTED BY IDOCK:   -9.43 KCAL/MOL
REMARK 924 INTRA-LIGAND FREE ENERGY PREDICTED BY IDOCK:   -1.02 KCAL/MOL
REMARK 927      BINDING AFFINITY PREDICTED BY RF-SCORE:    0.00 PKD
ROOT
HETATM    1  C   UNL     1     -10.653   5.302  72.206  1.00  0.00    -0.280 C  
HETATM    2  C   UNL     1     -11.266   6.591  71.655  1.00  0.00    -0.270 C  
HETATM    3  C   UNL     1     -11.468   6.455  70.144  1.00  0.00    -0.484 C  
ENDROOT
BRANCH   2   4
HETATM    4  N   UNL     1     -12.530   6.840  72.351  1.00  0.00    -0.519 NA 
HETATM    5  H   UNL     1     -12.386   7.452  73.155  1.00  0.00     0.000 HD 
BRANCH   4   6
HETATM    6  C   UNL     1     -13.584   7.371  71.473  1.00  0.00    -0.370 C  
BRANCH   6   7
HETATM    7  C   UNL     1     -13.997   8.781  71.930  1.00  0.00    -0.436 C  
HETATM    8  O   UNL     1     -13.881   8.878  73.360  1.00  0.00    -1.192 OA 
HETATM    9  H   UNL     1     -14.136   9.748  73.642  1.00  0.00     0.000 HD 
BRANCH   7  10
HETATM   10  C   UNL     1     -13.125   9.860  71.274  1.00  0.00    -0.400 C  
BRANCH  10  11
HETATM   11  O   UNL     1     -13.229  11.072  72.037  1.00  0.00    -0.499 OA 
BRANCH  11  12
HETATM   12  C   UNL     1     -12.907  12.214  71.354  1.00  0.00    -0.276 A  
HETATM   13  C   UNL     1     -13.280  13.498  71.736  1.00  0.00    -0.490 A  
HETATM   14  C   UNL     1     -12.899  14.598  70.967  1.00  0.00    -0.414 A  
HETATM   15  C   UNL     1     -12.114  14.436  69.815  1.00  0.00    -0.386 A  
HETATM   16  C   UNL     1     -11.726  13.142  69.448  1.00  0.00    -0.386 A  
HETATM   17  C   UNL     1     -12.115  12.039  70.217  1.00  0.00    -0.395 A  
BRANCH  15  18
HETATM   18  C   UNL     1     -11.708  15.634  68.992  1.00  0.00    -0.408 C  
BRANCH  18  19
HETATM   19  C   UNL     1     -10.660  15.287  67.935  1.00  0.00    -0.260 C  
BRANCH  19  20
HETATM   20  O   UNL     1     -11.282  15.173  66.653  1.00  0.00    -0.328 OA 
BRANCH  20  21
HETATM   21  C   UNL     1     -10.398  14.549  65.721  1.00  0.00    -0.331 C  
BRANCH  21  22
HETATM   22  C   UNL     1     -11.126  13.450  65.017  1.00  0.00    -0.332 C  
HETATM   23  C   UNL     1     -11.557  12.232  65.794  1.00  0.00    -0.443 C  
HETATM   24  C   UNL     1     -12.589  13.195  65.278  1.00  0.00    -0.531 C  
ENDBRANCH  21  22
ENDBRANCH  20  21
ENDBRANCH  19  20
ENDBRANCH  18  19
ENDBRANCH  15  18
ENDBRANCH  11  12
ENDBRANCH  10  11
ENDBRANCH   7  10
ENDBRANCH   6   7
ENDBRANCH   4   6
ENDBRANCH   2   4
TORSDOF 11
ENDMDL
MODEL        6
REMARK 921   NORMALIZED FREE ENERGY PREDICTED BY IDOCK:   -5.55 KCAL/MOL
REMARK 922        TOTAL FREE ENERGY PREDICTED BY IDOCK:  -10.44 KCAL/MOL
REMARK 923 INTER-LIGAND FREE ENERGY PREDICTED BY IDOCK:   -9.01 KCAL/MOL
REMARK 924 INTRA-LIGAND FREE ENERGY PREDICTED BY IDOCK:   -1.43 KCAL/MOL
REMARK 927      BINDING AFFINITY PREDICTED BY RF-SCORE:    0.00 PKD
ROOT
HETATM    1  C   UNL     1     -10.736   5.474  71.089  1.00  0.00    -0.280 C  
HETATM    2  C   UNL     1     -11.160   6.655  70.211  1.00  0.00    -0.326 C  
HETATM    3  C   UNL     1     -11.126   6.235  68.740  1.00  0.00    -0.424 C  
ENDROOT
BRANCH   2   4
HETATM    4  N   UNL     1     -12.499   7.083  70.623  1.00  0.00    -0.604 NA 
HETATM    5  H   UNL     1     -13.137   6.288  70.663  1.00  0.00     0.000 HD 
BRANCH   4   6
HETATM    6  C   UNL     1     -12.508   7.824  71.893  1.00  0.00    -0.314 C  
BRANCH   6   7
HETATM    7  C   UNL     1     -13.495   9.002  71.814  1.00  0.00    -0.411 C  
HETATM    8  O   UNL     1     -14.291   9.047  73.011  1.00  0.00    -1.108 OA 
HETATM    9  H   UNL     1     -14.900   9.775  72.961  1.00  0.00     0.000 HD 
BRANCH   7  10
HETATM   10  C   UNL     1     -12.759  10.338  71.641  1.00  0.00    -0.456 C  
BRANCH  10  11
HETATM   11  O   UNL     1     -11.485  10.093  71.029  1.00  0.00    -0.354 OA 
BRANCH  11  12
HETATM   12  C   UNL     1     -11.356  10.570  69.752  1.00  0.00    -0.300 A  
HETATM   13  C   UNL     1     -10.753   9.881  68.705  1.00  0.00    -0.247 A  
HETATM   14  C   UNL     1     -10.673  10.458  67.437  1.00  0.00    -0.338 A  
HETATM   15  C   UNL     1     -11.218  11.727  67.188  1.00  0.00    -0.375 A  
HETATM   16  C   UNL     1     -11.840  12.406  68.241  1.00  0.00    -0.364 A  
HETATM   17  C   UNL     1     -11.914  11.828  69.514  1.00  0.00    -0.364 A  
BRANCH  15  18
HETATM   18  C   UNL     1     -11.124  12.341  65.812  1.00  0.00    -0.362 C  
BRANCH  18  19
HETATM   19  C   UNL     1     -12.471  12.869  65.317  1.00  0.00    -0.493 C  
BRANCH  19  20
HETATM   20  O   UNL     1     -12.461  14.299  65.316  1.00  0.00    -0.441 OA 
BRANCH  20  21
HETATM   21  C   UNL     1     -11.294  14.791  64.656  1.00  0.00    -0.366 C  
BRANCH  21  22
HETATM   22  C   UNL     1     -10.697  15.890  65.473  1.00  0.00    -0.386 C  
HETATM   23  C   UNL     1     -10.625  15.742  66.972  1.00  0.00    -0.316 C  
HETATM   24  C   UNL     1      -9.364  15.715  66.155  1.00  0.00    -0.382 C  
ENDBRANCH  21  22
ENDBRANCH  20  21
ENDBRANCH  19  20
ENDBRANCH  18  19
ENDBRANCH  15  18
ENDBRANCH  11  12
ENDBRANCH  10  11
ENDBRANCH   7  10
ENDBRANCH   6   7
ENDBRANCH   4   6
ENDBRANCH   2   4
TORSDOF 11
ENDMDL
MODEL        7
REMARK 921   NORMALIZED FREE ENERGY PREDICTED BY IDOCK:   -5.53 KCAL/MOL
REMARK 922        TOTAL FREE ENERGY PREDICTED BY IDOCK:  -10.41 KCAL/MOL
REMARK 923 INTER-LIGAND FREE ENERGY PREDICTED BY IDOCK:   -9.00 KCAL/MOL
REMARK 924 INTRA-LIGAND FREE ENERGY PREDICTED BY IDOCK:   -1.40 KCAL/MOL
REMARK 927      BINDING AFFINITY PREDICTED BY RF-SCORE:    0.00 PKD
ROOT
HETATM    1  C   UNL     1     -13.145   9.434  71.655  1.00  0.00    -0.471 C  
HETATM    2  C   UNL     1     -11.687   8.992  71.505  1.00  0.00    -0.345 C  
HETATM    3  C   UNL     1     -11.359   7.945  72.572  1.00  0.00    -0.449 C  
ENDROOT
BRANCH   2   4
HETATM    4  N   UNL     1     -11.498   8.466  70.152  1.00  0.00    -0.460 NA 
HETATM    5  H   UNL     1     -12.152   8.898  69.500  1.00  0.00     0.000 HD 
BRANCH   4   6
HETATM    6  C   UNL     1     -10.115   8.594  69.666  1.00  0.00    -0.201 C  
BRANCH   6   7
HETATM    7  C   UNL     1     -10.070   8.414  68.138  1.00  0.00    -0.200 C  
HETATM    8  O   UNL     1     -11.061   7.452  67.736  1.00  0.00    -0.497 OA 
HETATM    9  H   UNL     1     -11.033   7.342  66.792  1.00  0.00     0.000 HD 
BRANCH   7  10
HETATM   10  C   UNL     1     -10.325   9.741  67.411  1.00  0.00    -0.240 C  
BRANCH  10  11
HETATM   11  O   UNL     1     -11.627  10.228  67.768  1.00  0.00    -0.331 OA 
BRANCH  11  12
HETATM   12  C   UNL     1     -11.670  11.543  68.143  1.00  0.00    -0.287 A  
HETATM   13  C   UNL     1     -11.716  11.992  69.459  1.00  0.00    -0.408 A  
HETATM   14  C   UNL     1     -11.757  13.359  69.734  1.00  0.00    -0.355 A  
HETATM   15  C   UNL     1     -11.728  14.304  68.698  1.00  0.00    -0.380 A  
HETATM   16  C   UNL     1     -11.662  13.846  67.378  1.00  0.00    -0.422 A  
HETATM   17  C   UNL     1     -11.626  12.474  67.103  1.00  0.00    -0.437 A  
BRANCH  15  18
HETATM   18  C   UNL     1     -11.773  15.781  69.009  1.00  0.00    -0.405 C  
BRANCH  18  19
HETATM   19  C   UNL     1     -11.065  16.121  70.321  1.00  0.00    -0.369 C  
BRANCH  19  20
HETATM   20  O   UNL     1     -12.032  16.336  71.353  1.00  0.00    -0.429 OA 
BRANCH  20  21
HETATM   21  C   UNL     1     -11.800  15.450  72.448  1.00  0.00    -0.459 C  
BRANCH  21  22
HETATM   22  C   UNL     1     -13.113  14.973  72.979  1.00  0.00    -0.604 C  
HETATM   23  C   UNL     1     -14.381  15.329  72.244  1.00  0.00    -0.586 C  
HETATM   24  C   UNL     1     -13.899  13.906  72.261  1.00  0.00    -0.669 C  
ENDBRANCH  21  22
ENDBRANCH  20  21
ENDBRANCH  19  20
ENDBRANCH  18  19
ENDBRANCH  15  18
ENDBRANCH  11  12
ENDBRANCH  10  11
ENDBRANCH   7  10
ENDBRANCH   6   7
ENDBRANCH   4   6
ENDBRANCH   2   4
TORSDOF 11
ENDMDL
MODEL        8
REMARK 921   NORMALIZED FREE ENERGY PREDICTED BY IDOCK:   -5.51 KCAL/MOL
REMARK 922        TOTAL FREE ENERGY PREDICTED BY IDOCK:  -10.37 KCAL/MOL
REMARK 923 INTER-LIGAND FREE ENERGY PREDICTED BY IDOCK:   -9.21 KCAL/MOL
REMARK 924 INTRA-LIGAND FREE ENERGY PREDICTED BY IDOCK:   -1.16 KCAL/MOL
REMARK 927      BINDING AFFINITY PREDICTED BY RF-SCORE:    0.00 PKD
ROOT
HETATM    1  C   UNL     1     -10.473  17.339  67.454  1.00  0.00    -0.338 C  
HETATM    2  C   UNL     1      -9.741  16.858  66.198  1.00  0.00    -0.272 C  
HETATM    3  C   UNL     1      -8.921  15.610  66.532  1.00  0.00    -0.343 C  
ENDROOT
BRANCH   2   4
HETATM    4  N   UNL     1     -10.735  16.592  65.155  1.00  0.00    -0.643 NA 
HETATM    5  H   UNL     1     -10.602  17.217  64.361  1.00  0.00     0.000 HD 
BRANCH   4   6
HETATM    6  C   UNL     1     -10.756  15.188  64.717  1.00  0.00    -0.319 C  
BRANCH   6   7
HETATM    7  C   UNL     1     -12.208  14.710  64.533  1.00  0.00    -0.456 C  
HETATM    8  O   UNL     1     -12.349  14.079  63.249  1.00  0.00    -1.133 OA 
HETATM    9  H   UNL     1     -13.246  13.784  63.136  1.00  0.00     0.000 HD 
BRANCH   7  10
HETATM   10  C   UNL     1     -12.615  13.722  65.634  1.00  0.00    -0.509 C  
BRANCH  10  11
HETATM   11  O   UNL     1     -12.062  14.161  66.884  1.00  0.00    -0.430 OA 
BRANCH  11  12
HETATM   12  C   UNL     1     -11.974  13.194  67.849  1.00  0.00    -0.303 A  
HETATM   13  C   UNL     1     -11.726  11.848  67.602  1.00  0.00    -0.346 A  
HETATM   14  C   UNL     1     -11.655  10.940  68.660  1.00  0.00    -0.373 A  
HETATM   15  C   UNL     1     -11.808  11.369  69.987  1.00  0.00    -0.440 A  
HETATM   16  C   UNL     1     -12.038  12.727  70.229  1.00  0.00    -0.373 A  
HETATM   17  C   UNL     1     -12.115  13.635  69.166  1.00  0.00    -0.361 A  
BRANCH  15  18
HETATM   18  C   UNL     1     -11.730  10.377  71.123  1.00  0.00    -0.387 C  
BRANCH  18  19
HETATM   19  C   UNL     1     -13.105  10.045  71.702  1.00  0.00    -0.445 C  
BRANCH  19  20
HETATM   20  O   UNL     1     -13.040   8.822  72.439  1.00  0.00    -0.395 OA 
BRANCH  20  21
HETATM   21  C   UNL     1     -13.628   7.756  71.693  1.00  0.00    -0.357 C  
BRANCH  21  22
HETATM   22  C   UNL     1     -12.630   6.653  71.546  1.00  0.00    -0.287 C  
HETATM   23  C   UNL     1     -11.764   6.599  70.312  1.00  0.00    -0.432 C  
HETATM   24  C   UNL     1     -11.151   6.926  71.645  1.00  0.00    -0.271 C  
ENDBRANCH  21  22
ENDBRANCH  20  21
ENDBRANCH  19  20
ENDBRANCH  18  19
ENDBRANCH  15  18
ENDBRANCH  11  12
ENDBRANCH  10  11
ENDBRANCH   7  10
ENDBRANCH   6   7
ENDBRANCH   4   6
ENDBRANCH   2   4
TORSDOF 11
ENDMDL
MODEL        9
REMARK 921   NORMALIZED FREE ENERGY PREDICTED BY IDOCK:   -5.49 KCAL/MOL
REMARK 922        TOTAL FREE ENERGY PREDICTED BY IDOCK:  -10.35 KCAL/MOL
REMARK 923 INTER-LIGAND FREE ENERGY PREDICTED BY IDOCK:   -9.60 KCAL/MOL
REMARK 924 INTRA-LIGAND FREE ENERGY PREDICTED BY IDOCK:   -0.76 KCAL/MOL
REMARK 927      BINDING AFFINITY PREDICTED BY RF-SCORE:    0.00 PKD
ROOT
HETATM    1  C   UNL     1     -10.930   6.406  68.756  1.00  0.00    -0.404 C  
HETATM    2  C   UNL     1     -11.402   6.265  70.205  1.00  0.00    -0.406 C  
HETATM    3  C   UNL     1     -10.216   6.468  71.150  1.00  0.00    -0.219 C  
ENDROOT
BRANCH   2   4
HETATM    4  N   UNL     1     -12.463   7.246  70.446  1.00  0.00    -0.530 NA 
HETATM    5  H   UNL     1     -13.365   6.888  70.134  1.00  0.00     0.000 HD 
BRANCH   4   6
HETATM    6  C   UNL     1     -12.534   7.694  71.845  1.00  0.00    -0.308 C  
BRANCH   6   7
HETATM    7  C   UNL     1     -13.585   8.809  71.993  1.00  0.00    -0.427 C  
HETATM    8  O   UNL     1     -14.187   8.735  73.297  1.00  0.00    -1.164 OA 
HETATM    9  H   UNL     1     -14.835   9.423  73.388  1.00  0.00     0.000 HD 
BRANCH   7  10
HETATM   10  C   UNL     1     -12.959  10.197  71.799  1.00  0.00    -0.462 C  
BRANCH  10  11
HETATM   11  O   UNL     1     -12.095  10.164  70.654  1.00  0.00    -0.286 OA 
BRANCH  11  12
HETATM   12  C   UNL     1     -11.982  11.351  69.981  1.00  0.00    -0.363 A  
HETATM   13  C   UNL     1     -12.130  12.608  70.559  1.00  0.00    -0.360 A  
HETATM   14  C   UNL     1     -11.995  13.759  69.781  1.00  0.00    -0.406 A  
HETATM   15  C   UNL     1     -11.684  13.674  68.416  1.00  0.00    -0.393 A  
HETATM   16  C   UNL     1     -11.518  12.407  67.846  1.00  0.00    -0.385 A  
HETATM   17  C   UNL     1     -11.660  11.253  68.625  1.00  0.00    -0.384 A  
BRANCH  15  18
HETATM   18  C   UNL     1     -11.541  14.927  67.586  1.00  0.00    -0.357 C  
BRANCH  18  19
HETATM   19  C   UNL     1     -11.243  16.160  68.440  1.00  0.00    -0.358 C  
BRANCH  19  20
HETATM   20  O   UNL     1     -10.297  16.997  67.771  1.00  0.00    -0.309 OA 
BRANCH  20  21
HETATM   21  C   UNL     1     -10.043  18.176  68.536  1.00  0.00    -0.400 C  
BRANCH  21  22
HETATM   22  C   UNL     1     -10.523  19.368  67.772  1.00  0.00    -0.556 C  
HETATM   23  C   UNL     1      -9.559  20.487  67.464  1.00  0.00    -0.545 C  
HETATM   24  C   UNL     1     -10.073  19.614  66.354  1.00  0.00    -0.573 C  
ENDBRANCH  21  22
ENDBRANCH  20  21
ENDBRANCH  19  20
ENDBRANCH  18  19
ENDBRANCH  15  18
ENDBRANCH  11  12
ENDBRANCH  10  11
ENDBRANCH   7  10
ENDBRANCH   6   7
ENDBRANCH   4   6
ENDBRANCH   2   4
TORSDOF 11
ENDMDL
MODEL       10
REMARK 921   NORMALIZED FREE ENERGY PREDICTED BY IDOCK:   -5.42 KCAL/MOL
REMARK 922        TOTAL FREE ENERGY PREDICTED BY IDOCK:  -10.23 KCAL/MOL
REMARK 923 INTER-LIGAND FREE ENERGY PREDICTED BY IDOCK:   -9.44 KCAL/MOL
REMARK 924 INTRA-LIGAND FREE ENERGY PREDICTED BY IDOCK:   -0.79 KCAL/MOL
REMARK 927      BINDING AFFINITY PREDICTED BY RF-SCORE:    0.00 PKD
ROOT
HETATM    1  C   UNL     1     -11.178   6.759  70.425  1.00  0.00    -0.378 C  
HETATM    2  C   UNL     1     -10.867   7.059  71.894  1.00  0.00    -0.224 C  
HETATM    3  C   UNL     1     -10.049   8.350  71.989  1.00  0.00    -0.364 C  
ENDROOT
BRANCH   2   4
HETATM    4  N   UNL     1     -12.131   7.164  72.625  1.00  0.00    -0.507 NA 
HETATM    5  H   UNL     1     -12.120   7.965  73.255  1.00  0.00     0.000 HD 
BRANCH   4   6
HETATM    6  C   UNL     1     -13.310   7.206  71.747  1.00  0.00    -0.283 C  
BRANCH   6   7
HETATM    7  C   UNL     1     -14.069   8.532  71.939  1.00  0.00    -0.447 C  
HETATM    8  O   UNL     1     -14.116   8.861  73.338  1.00  0.00    -1.256 OA 
HETATM    9  H   UNL     1     -14.585   9.680  73.456  1.00  0.00     0.000 HD 
BRANCH   7  10
HETATM   10  C   UNL     1     -13.398   9.677  71.169  1.00  0.00    -0.276 C  
BRANCH  10  11
HETATM   11  O   UNL     1     -13.220  10.793  72.053  1.00  0.00    -0.484 OA 
BRANCH  11  12
HETATM   12  C   UNL     1     -12.916  11.977  71.436  1.00  0.00    -0.262 A  
HETATM   13  C   UNL     1     -13.310  13.232  71.890  1.00  0.00    -0.540 A  
HETATM   14  C   UNL     1     -12.947  14.380  71.184  1.00  0.00    -0.419 A  
HETATM   15  C   UNL     1     -12.161  14.295  70.025  1.00  0.00    -0.417 A  
HETATM   16  C   UNL     1     -11.753  13.031  69.585  1.00  0.00    -0.364 A  
HETATM   17  C   UNL     1     -12.123  11.880  70.290  1.00  0.00    -0.409 A  
BRANCH  15  18
HETATM   18  C   UNL     1     -11.776  15.545  69.271  1.00  0.00    -0.380 C  
BRANCH  18  19
HETATM   19  C   UNL     1     -11.212  15.237  67.884  1.00  0.00    -0.331 C  
BRANCH  19  20
HETATM   20  O   UNL     1     -10.707  16.435  67.288  1.00  0.00    -0.317 OA 
BRANCH  20  21
HETATM   21  C   UNL     1     -10.782  17.523  68.210  1.00  0.00    -0.309 C  
BRANCH  21  22
HETATM   22  C   UNL     1      -9.994  18.674  67.675  1.00  0.00    -0.375 C  
HETATM   23  C   UNL     1     -10.665  19.668  66.760  1.00  0.00    -0.562 C  
HETATM   24  C   UNL     1     -10.257  20.081  68.147  1.00  0.00    -0.535 C  
ENDBRANCH  21  22
ENDBRANCH  20  21
ENDBRANCH  19  20
ENDBRANCH  18  19
ENDBRANCH  15  18
ENDBRANCH  11  12
ENDBRANCH  10  11
ENDBRANCH   7  10
ENDBRANCH   6   7
ENDBRANCH   4   6
ENDBRANCH   2   4
TORSDOF 11
ENDMDL
MODEL       11
REMARK 921   NORMALIZED FREE ENERGY PREDICTED BY IDOCK:   -5.40 KCAL/MOL
REMARK 922        TOTAL FREE ENERGY PREDICTED BY IDOCK:  -10.20 KCAL/MOL
REMARK 923 INTER-LIGAND FREE ENERGY PREDICTED BY IDOCK:   -8.80 KCAL/MOL
REMARK 924 INTRA-LIGAND FREE ENERGY PREDICTED BY IDOCK:   -1.40 KCAL/MOL
REMARK 927      BINDING AFFINITY PREDICTED BY RF-SCORE:    0.00 PKD
ROOT
HETATM    1  C   UNL     1      -9.868   7.808  71.299  1.00  0.00    -0.194 C  
HETATM    2  C   UNL     1     -10.817   7.288  70.216  1.00  0.00    -0.245 C  
HETATM    3  C   UNL     1     -10.595   5.786  70.021  1.00  0.00    -0.380 C  
ENDROOT
BRANCH   2   4
HETATM    4  N   UNL     1     -12.193   7.585  70.623  1.00  0.00    -0.528 NA 
HETATM    5  H   UNL     1     -12.768   6.743  70.594  1.00  0.00     0.000 HD 
BRANCH   4   6
HETATM    6  C   UNL     1     -12.284   8.235  71.939  1.00  0.00    -0.337 C  
BRANCH   6   7
HETATM    7  C   UNL     1     -13.518   9.153  71.994  1.00  0.00    -0.448 C  
HETATM    8  O   UNL     1     -14.193   8.979  73.252  1.00  0.00    -1.192 OA 
HETATM    9  H   UNL     1     -14.954   9.546  73.285  1.00  0.00     0.000 HD 
BRANCH   7  10
HETATM   10  C   UNL     1     -13.126  10.627  71.827  1.00  0.00    -0.466 C  
BRANCH  10  11
HETATM   11  O   UNL     1     -11.870  10.701  71.135  1.00  0.00    -0.328 OA 
BRANCH  11  12
HETATM   12  C   UNL     1     -11.868  11.502  70.025  1.00  0.00    -0.355 A  
HETATM   13  C   UNL     1     -12.020  12.885  70.045  1.00  0.00    -0.380 A  
HETATM   14  C   UNL     1     -12.003  13.610  68.852  1.00  0.00    -0.392 A  
HETATM   15  C   UNL     1     -11.808  12.968  67.621  1.00  0.00    -0.401 A  
HETATM   16  C   UNL     1     -11.638  11.579  67.611  1.00  0.00    -0.320 A  
HETATM   17  C   UNL     1     -11.661  10.852  68.806  1.00  0.00    -0.378 A  
BRANCH  15  18
HETATM   18  C   UNL     1     -11.793  13.764  66.338  1.00  0.00    -0.434 C  
BRANCH  18  19
HETATM   19  C   UNL     1     -10.484  13.597  65.565  1.00  0.00    -0.306 C  
BRANCH  19  20
HETATM   20  O   UNL     1      -9.600  14.679  65.866  1.00  0.00    -0.308 OA 
BRANCH  20  21
HETATM   21  C   UNL     1     -10.305  15.921  65.852  1.00  0.00    -0.365 C  
BRANCH  21  22
HETATM   22  C   UNL     1      -9.833  16.764  66.991  1.00  0.00    -0.262 C  
HETATM   23  C   UNL     1     -10.482  18.104  67.238  1.00  0.00    -0.407 C  
HETATM   24  C   UNL     1     -10.695  16.977  68.209  1.00  0.00    -0.372 C  
ENDBRANCH  21  22
ENDBRANCH  20  21
ENDBRANCH  19  20
ENDBRANCH  18  19
ENDBRANCH  15  18
ENDBRANCH  11  12
ENDBRANCH  10  11
ENDBRANCH   7  10
ENDBRANCH   6   7
ENDBRANCH   4   6
ENDBRANCH   2   4
TORSDOF 11
ENDMDL
MODEL       12
REMARK 921   NORMALIZED FREE ENERGY PREDICTED BY IDOCK:   -5.38 KCAL/MOL
REMARK 922        TOTAL FREE ENERGY PREDICTED BY IDOCK:  -10.16 KCAL/MOL
REMARK 923 INTER-LIGAND FREE ENERGY PREDICTED BY IDOCK:   -8.89 KCAL/MOL
REMARK 924 INTRA-LIGAND FREE ENERGY PREDICTED BY IDOCK:   -1.26 KCAL/MOL
REMARK 927      BINDING AFFINITY PREDICTED BY RF-SCORE:    0.00 PKD
ROOT
HETATM    1  C   UNL     1     -10.000  10.486  64.780  1.00  0.00    -0.412 C  
HETATM    2  C   UNL     1     -10.085  11.421  63.571  1.00  0.00    -0.395 C  
HETATM    3  C   UNL     1      -8.999  11.047  62.559  1.00  0.00    -0.366 C  
ENDROOT
BRANCH   2   4
HETATM    4  N   UNL     1     -11.426  11.312  62.992  1.00  0.00    -0.818 NA 
HETATM    5  H   UNL     1     -11.684  10.334  62.859  1.00  0.00     0.000 HD 
BRANCH   4   6
HETATM    6  C   UNL     1     -12.454  12.024  63.767  1.00  0.00    -0.485 C  
BRANCH   6   7
HETATM    7  C   UNL     1     -11.882  13.339  64.325  1.00  0.00    -0.417 C  
HETATM    8  O   UNL     1     -12.514  14.455  63.674  1.00  0.00    -1.066 OA 
HETATM    9  H   UNL     1     -12.161  15.267  64.019  1.00  0.00     0.000 HD 
BRANCH   7  10
HETATM   10  C   UNL     1     -12.099  13.444  65.841  1.00  0.00    -0.439 C  
BRANCH  10  11
HETATM   11  O   UNL     1     -12.155  14.830  66.209  1.00  0.00    -0.249 OA 
BRANCH  11  12
HETATM   12  C   UNL     1     -11.053  15.297  66.873  1.00  0.00    -0.288 A  
HETATM   13  C   UNL     1     -11.051  15.748  68.189  1.00  0.00    -0.341 A  
HETATM   14  C   UNL     1      -9.869  16.205  68.774  1.00  0.00    -0.230 A  
HETATM   15  C   UNL     1      -8.662  16.195  68.061  1.00  0.00    -0.176 A  
HETATM   16  C   UNL     1      -8.667  15.722  66.744  1.00  0.00    -0.305 A  
HETATM   17  C   UNL     1      -9.854  15.270  66.156  1.00  0.00    -0.333 A  
BRANCH  15  18
HETATM   18  C   UNL     1      -7.390  16.692  68.705  1.00  0.00    -0.220 C  
BRANCH  18  19
HETATM   19  C   UNL     1      -7.333  18.218  68.780  1.00  0.00    -0.284 C  
BRANCH  19  20
HETATM   20  O   UNL     1      -7.772  18.782  67.542  1.00  0.00    -0.228 OA 
BRANCH  20  21
HETATM   21  C   UNL     1      -8.307  20.090  67.749  1.00  0.00    -0.285 C  
BRANCH  21  22
HETATM   22  C   UNL     1      -9.627  20.194  67.056  1.00  0.00    -0.558 C  
HETATM   23  C   UNL     1     -10.146  19.014  66.272  1.00  0.00    -0.479 C  
HETATM   24  C   UNL     1     -10.826  19.424  67.548  1.00  0.00    -0.521 C  
ENDBRANCH  21  22
ENDBRANCH  20  21
ENDBRANCH  19  20
ENDBRANCH  18  19
ENDBRANCH  15  18
ENDBRANCH  11  12
ENDBRANCH  10  11
ENDBRANCH   7  10
ENDBRANCH   6   7
ENDBRANCH   4   6
ENDBRANCH   2   4
TORSDOF 11
ENDMDL
MODEL       13
REMARK 921   NORMALIZED FREE ENERGY PREDICTED BY IDOCK:   -5.31 KCAL/MOL
REMARK 922        TOTAL FREE ENERGY PREDICTED BY IDOCK:  -10.04 KCAL/MOL
REMARK 923 INTER-LIGAND FREE ENERGY PREDICTED BY IDOCK:   -8.96 KCAL/MOL
REMARK 924 INTRA-LIGAND FREE ENERGY PREDICTED BY IDOCK:   -1.08 KCAL/MOL
REMARK 927      BINDING AFFINITY PREDICTED BY RF-SCORE:    0.00 PKD
ROOT
HETATM    1  C   UNL     1     -10.294  10.857  64.148  1.00  0.00    -0.432 C  
HETATM    2  C   UNL     1     -10.790  12.190  63.581  1.00  0.00    -0.464 C  
HETATM    3  C   UNL     1     -12.312  12.269  63.720  1.00  0.00    -0.637 C  
ENDROOT
BRANCH   2   4
HETATM    4  N   UNL     1     -10.123  13.277  64.301  1.00  0.00    -0.699 NA 
HETATM    5  H   UNL     1      -9.245  13.527  63.846  1.00  0.00     0.000 HD 
BRANCH   4   6
HETATM    6  C   UNL     1     -10.973  14.464  64.481  1.00  0.00    -0.276 C  
BRANCH   6   7
HETATM    7  C   UNL     1     -10.304  15.455  65.450  1.00  0.00    -0.394 C  
HETATM    8  O   UNL     1     -10.603  16.802  65.046  1.00  0.00    -0.695 OA 
HETATM    9  H   UNL     1     -10.190  17.413  65.644  1.00  0.00     0.000 HD 
BRANCH   7  10
HETATM   10  C   UNL     1     -10.782  15.238  66.892  1.00  0.00    -0.313 C  
BRANCH  10  11
HETATM   11  O   UNL     1     -11.839  14.266  66.892  1.00  0.00    -0.398 OA 
BRANCH  11  12
HETATM   12  C   UNL     1     -11.877  13.454  67.993  1.00  0.00    -0.357 A  
HETATM   13  C   UNL     1     -12.063  13.898  69.299  1.00  0.00    -0.383 A  
HETATM   14  C   UNL     1     -12.086  12.984  70.354  1.00  0.00    -0.391 A  
HETATM   15  C   UNL     1     -11.949  11.608  70.119  1.00  0.00    -0.441 A  
HETATM   16  C   UNL     1     -11.782  11.168  68.802  1.00  0.00    -0.394 A  
HETATM   17  C   UNL     1     -11.753  12.086  67.745  1.00  0.00    -0.379 A  
BRANCH  15  18
HETATM   18  C   UNL     1     -11.976  10.631  71.270  1.00  0.00    -0.344 C  
BRANCH  18  19
HETATM   19  C   UNL     1     -10.984   9.483  71.082  1.00  0.00    -0.368 C  
BRANCH  19  20
HETATM   20  O   UNL     1     -11.692   8.265  70.834  1.00  0.00    -0.280 OA 
BRANCH  20  21
HETATM   21  C   UNL     1     -10.778   7.178  70.678  1.00  0.00    -0.235 C  
BRANCH  21  22
HETATM   22  C   UNL     1     -11.213   6.336  69.522  1.00  0.00    -0.500 C  
HETATM   23  C   UNL     1     -10.704   6.658  68.139  1.00  0.00    -0.320 C  
HETATM   24  C   UNL     1     -10.248   5.406  68.833  1.00  0.00    -0.266 C  
ENDBRANCH  21  22
ENDBRANCH  20  21
ENDBRANCH  19  20
ENDBRANCH  18  19
ENDBRANCH  15  18
ENDBRANCH  11  12
ENDBRANCH  10  11
ENDBRANCH   7  10
ENDBRANCH   6   7
ENDBRANCH   4   6
ENDBRANCH   2   4
TORSDOF 11
ENDMDL
MODEL       14
REMARK 921   NORMALIZED FREE ENERGY PREDICTED BY IDOCK:   -5.30 KCAL/MOL
REMARK 922        TOTAL FREE ENERGY PREDICTED BY IDOCK:  -10.04 KCAL/MOL
REMARK 923 INTER-LIGAND FREE ENERGY PREDICTED BY IDOCK:   -8.39 KCAL/MOL
REMARK 924 INTRA-LIGAND FREE ENERGY PREDICTED BY IDOCK:   -1.65 KCAL/MOL
REMARK 927      BINDING AFFINITY PREDICTED BY RF-SCORE:    0.00 PKD
ROOT
HETATM    1  C   UNL     1     -13.732  13.298  72.207  1.00  0.00    -0.686 C  
HETATM    2  C   UNL     1     -14.068  14.706  71.709  1.00  0.00    -0.505 C  
HETATM    3  C   UNL     1     -13.670  15.732  72.773  1.00  0.00    -0.639 C  
ENDROOT
BRANCH   2   4
HETATM    4  N   UNL     1     -13.363  14.933  70.445  1.00  0.00    -0.621 NA 
HETATM    5  H   UNL     1     -13.191  15.928  70.301  1.00  0.00     0.000 HD 
BRANCH   4   6
HETATM    6  C   UNL     1     -12.115  14.164  70.329  1.00  0.00    -0.342 C  
BRANCH   6   7
HETATM    7  C   UNL     1     -11.864  13.777  68.861  1.00  0.00    -0.360 C  
HETATM    8  O   UNL     1     -12.463  14.756  67.995  1.00  0.00    -0.571 OA 
HETATM    9  H   UNL     1     -12.308  14.516  67.088  1.00  0.00     0.000 HD 
BRANCH   7  10
HETATM   10  C   UNL     1     -10.363  13.679  68.557  1.00  0.00    -0.243 C  
BRANCH  10  11
HETATM   11  O   UNL     1      -9.690  14.792  69.163  1.00  0.00    -0.207 OA 
BRANCH  11  12
HETATM   12  C   UNL     1      -8.946  15.555  68.303  1.00  0.00    -0.185 A  
HETATM   13  C   UNL     1      -9.124  15.597  66.924  1.00  0.00    -0.260 A  
HETATM   14  C   UNL     1      -8.310  16.411  66.135  1.00  0.00    -0.291 A  
HETATM   15  C   UNL     1      -7.319  17.218  66.715  1.00  0.00    -0.248 A  
HETATM   16  C   UNL     1      -7.159  17.185  68.105  1.00  0.00    -0.180 A  
HETATM   17  C   UNL     1      -7.972  16.363  68.894  1.00  0.00    -0.236 A  
BRANCH  15  18
HETATM   18  C   UNL     1      -6.445  18.094  65.850  1.00  0.00    -0.304 C  
BRANCH  18  19
HETATM   19  C   UNL     1      -6.504  19.565  66.264  1.00  0.00    -0.192 C  
BRANCH  19  20
HETATM   20  O   UNL     1      -7.813  20.086  66.018  1.00  0.00    -0.328 OA 
BRANCH  20  21
HETATM   21  C   UNL     1      -8.404  20.547  67.233  1.00  0.00    -0.286 C  
BRANCH  21  22
HETATM   22  C   UNL     1      -9.876  20.293  67.189  1.00  0.00    -0.606 C  
HETATM   23  C   UNL     1     -10.429  19.324  66.172  1.00  0.00    -0.577 C  
HETATM   24  C   UNL     1     -10.449  18.971  67.633  1.00  0.00    -0.523 C  
ENDBRANCH  21  22
ENDBRANCH  20  21
ENDBRANCH  19  20
ENDBRANCH  18  19
ENDBRANCH  15  18
ENDBRANCH  11  12
ENDBRANCH  10  11
ENDBRANCH   7  10
ENDBRANCH   6   7
ENDBRANCH   4   6
ENDBRANCH   2   4
TORSDOF 11
ENDMDL
MODEL       15
REMARK 921   NORMALIZED FREE ENERGY PREDICTED BY IDOCK:   -5.22 KCAL/MOL
REMARK 922        TOTAL FREE ENERGY PREDICTED BY IDOCK:   -9.89 KCAL/MOL
REMARK 923 INTER-LIGAND FREE ENERGY PREDICTED BY IDOCK:   -8.64 KCAL/MOL
REMARK 924 INTRA-LIGAND FREE ENERGY PREDICTED BY IDOCK:   -1.25 KCAL/MOL
REMARK 927      BINDING AFFINITY PREDICTED BY RF-SCORE:    0.00 PKD
ROOT
HETATM    1  C   UNL     1     -13.984  13.618  72.257  1.00  0.00    -0.661 C  
HETATM    2  C   UNL     1     -14.099  15.137  72.106  1.00  0.00    -0.554 C  
HETATM    3  C   UNL     1     -13.166  15.822  73.107  1.00  0.00    -0.694 C  
ENDROOT
BRANCH   2   4
HETATM    4  N   UNL     1     -13.769  15.493  70.724  1.00  0.00    -0.859 NA 
HETATM    5  H   UNL     1     -13.939  16.484  70.555  1.00  0.00     0.000 HD 
BRANCH   4   6
HETATM    6  C   UNL     1     -12.397  15.126  70.341  1.00  0.00    -0.363 C  
BRANCH   6   7
HETATM    7  C   UNL     1     -12.410  14.301  69.042  1.00  0.00    -0.112 C  
HETATM    8  O   UNL     1     -12.112  15.156  67.925  1.00  0.00    -0.484 OA 
HETATM    9  H   UNL     1     -12.120  14.646  67.123  1.00  0.00     0.000 HD 
BRANCH   7  10
HETATM   10  C   UNL     1     -11.388  13.158  69.095  1.00  0.00    -0.281 C  
BRANCH  10  11
HETATM   11  O   UNL     1     -12.064  11.916  68.847  1.00  0.00    -0.281 OA 
BRANCH  11  12
HETATM   12  C   UNL     1     -11.918  10.972  69.828  1.00  0.00    -0.356 A  
HETATM   13  C   UNL     1     -12.925  10.572  70.700  1.00  0.00    -0.362 A  
HETATM   14  C   UNL     1     -12.671   9.599  71.668  1.00  0.00    -0.499 A  
HETATM   15  C   UNL     1     -11.410   8.991  71.764  1.00  0.00    -0.447 A  
HETATM   16  C   UNL     1     -10.408   9.384  70.871  1.00  0.00    -0.380 A  
HETATM   17  C   UNL     1     -10.662  10.365  69.905  1.00  0.00    -0.331 A  
BRANCH  15  18
HETATM   18  C   UNL     1     -11.149   7.940  72.816  1.00  0.00    -0.462 C  
BRANCH  18  19
HETATM   19  C   UNL     1      -9.656   7.741  73.083  1.00  0.00    -0.275 C  
BRANCH  19  20
HETATM   20  O   UNL     1      -9.240   6.464  72.592  1.00  0.00    -0.139 OA 
BRANCH  20  21
HETATM   21  C   UNL     1     -10.373   5.668  72.245  1.00  0.00    -0.206 C  
BRANCH  21  22
HETATM   22  C   UNL     1     -10.172   5.098  70.879  1.00  0.00    -0.299 C  
HETATM   23  C   UNL     1     -10.795   5.788  69.690  1.00  0.00    -0.418 C  
HETATM   24  C   UNL     1      -9.302   5.799  69.866  1.00  0.00    -0.177 C  
ENDBRANCH  21  22
ENDBRANCH  20  21
ENDBRANCH  19  20
ENDBRANCH  18  19
ENDBRANCH  15  18
ENDBRANCH  11  12
ENDBRANCH  10  11
ENDBRANCH   7  10
ENDBRANCH   6   7
ENDBRANCH   4   6
ENDBRANCH   2   4
TORSDOF 11
ENDMDL
MODEL       16
REMARK 921   NORMALIZED FREE ENERGY PREDICTED BY IDOCK:   -5.20 KCAL/MOL
REMARK 922        TOTAL FREE ENERGY PREDICTED BY IDOCK:   -9.87 KCAL/MOL
REMARK 923 INTER-LIGAND FREE ENERGY PREDICTED BY IDOCK:   -8.49 KCAL/MOL
REMARK 924 INTRA-LIGAND FREE ENERGY PREDICTED BY IDOCK:   -1.38 KCAL/MOL
REMARK 927      BINDING AFFINITY PREDICTED BY RF-SCORE:    0.00 PKD
ROOT
HETATM    1  C   UNL     1     -12.511  12.026  63.510  1.00  0.00    -0.654 C  
HETATM    2  C   UNL     1     -11.491  12.196  64.638  1.00  0.00    -0.328 C  
HETATM    3  C   UNL     1     -10.557  13.364  64.310  1.00  0.00    -0.358 C  
ENDROOT
BRANCH   2   4
HETATM    4  N   UNL     1     -12.216  12.418  65.892  1.00  0.00    -0.632 NA 
HETATM    5  H   UNL     1     -11.899  11.771  66.613  1.00  0.00     0.000 HD 
BRANCH   4   6
HETATM    6  C   UNL     1     -12.144  13.807  66.368  1.00  0.00    -0.444 C  
BRANCH   6   7
HETATM    7  C   UNL     1     -11.560  13.852  67.791  1.00  0.00    -0.347 C  
HETATM    8  O   UNL     1     -12.528  14.413  68.693  1.00  0.00    -0.583 OA 
HETATM    9  H   UNL     1     -12.167  14.440  69.572  1.00  0.00     0.000 HD 
BRANCH   7  10
HETATM   10  C   UNL     1     -11.164  12.451  68.277  1.00  0.00    -0.263 C  
BRANCH  10  11
HETATM   11  O   UNL     1     -12.297  11.838  68.908  1.00  0.00    -0.293 OA 
BRANCH  11  12
HETATM   12  C   UNL     1     -11.993  10.872  69.830  1.00  0.00    -0.351 A  
HETATM   13  C   UNL     1     -12.902  10.314  70.723  1.00  0.00    -0.427 A  
HETATM   14  C   UNL     1     -12.489   9.332  71.625  1.00  0.00    -0.448 A  
HETATM   15  C   UNL     1     -11.163   8.872  71.631  1.00  0.00    -0.415 A  
HETATM   16  C   UNL     1     -10.260   9.424  70.717  1.00  0.00    -0.368 A  
HETATM   17  C   UNL     1     -10.674  10.413  69.817  1.00  0.00    -0.325 A  
BRANCH  15  18
HETATM   18  C   UNL     1     -10.729   7.810  72.612  1.00  0.00    -0.402 C  
BRANCH  18  19
HETATM   19  C   UNL     1     -10.298   6.517  71.918  1.00  0.00    -0.200 C  
BRANCH  19  20
HETATM   20  O   UNL     1     -11.217   6.199  70.869  1.00  0.00    -0.298 OA 
BRANCH  20  21
HETATM   21  C   UNL     1     -10.514   5.843  69.678  1.00  0.00    -0.277 C  
BRANCH  21  22
HETATM   22  C   UNL     1     -11.212   6.441  68.500  1.00  0.00    -0.321 C  
HETATM   23  C   UNL     1     -10.447   7.346  67.567  1.00  0.00    -0.338 C  
HETATM   24  C   UNL     1     -10.893   5.990  67.097  1.00  0.00    -0.414 C  
ENDBRANCH  21  22
ENDBRANCH  20  21
ENDBRANCH  19  20
ENDBRANCH  18  19
ENDBRANCH  15  18
ENDBRANCH  11  12
ENDBRANCH  10  11
ENDBRANCH   7  10
ENDBRANCH   6   7
ENDBRANCH   4   6
ENDBRANCH   2   4
TORSDOF 11
ENDMDL
MODEL       17
REMARK 921   NORMALIZED FREE ENERGY PREDICTED BY IDOCK:   -5.20 KCAL/MOL
REMARK 922        TOTAL FREE ENERGY PREDICTED BY IDOCK:   -9.86 KCAL/MOL
REMARK 923 INTER-LIGAND FREE ENERGY PREDICTED BY IDOCK:   -8.89 KCAL/MOL
REMARK 924 INTRA-LIGAND FREE ENERGY PREDICTED BY IDOCK:   -0.97 KCAL/MOL
REMARK 927      BINDING AFFINITY PREDICTED BY RF-SCORE:    0.00 PKD
ROOT
HETATM    1  C   UNL     1     -11.523   5.928  72.164  1.00  0.00    -0.333 C  
HETATM    2  C   UNL     1     -12.441   6.999  71.570  1.00  0.00    -0.386 C  
HETATM    3  C   UNL     1     -12.030   8.375  72.101  1.00  0.00    -0.438 C  
ENDROOT
BRANCH   2   4
HETATM    4  N   UNL     1     -12.349   6.932  70.110  1.00  0.00    -0.578 NA 
HETATM    5  H   UNL     1     -12.369   7.867  69.702  1.00  0.00     0.000 HD 
BRANCH   4   6
HETATM    6  C   UNL     1     -11.177   6.181  69.634  1.00  0.00    -0.418 C  
BRANCH   6   7
HETATM    7  C   UNL     1     -10.597   6.843  68.372  1.00  0.00    -0.210 C  
HETATM    8  O   UNL     1     -11.532   6.715  67.287  1.00  0.00    -0.766 OA 
HETATM    9  H   UNL     1     -11.173   7.125  66.508  1.00  0.00     0.000 HD 
BRANCH   7  10
HETATM   10  C   UNL     1     -10.293   8.329  68.610  1.00  0.00    -0.200 C  
BRANCH  10  11
HETATM   11  O   UNL     1     -10.875   9.100  67.549  1.00  0.00    -0.242 OA 
BRANCH  11  12
HETATM   12  C   UNL     1     -11.124  10.411  67.856  1.00  0.00    -0.299 A  
HETATM   13  C   UNL     1     -11.085  11.460  66.944  1.00  0.00    -0.356 A  
HETATM   14  C   UNL     1     -11.356  12.764  67.362  1.00  0.00    -0.363 A  
HETATM   15  C   UNL     1     -11.694  13.038  68.696  1.00  0.00    -0.359 A  
HETATM   16  C   UNL     1     -11.749  11.975  69.603  1.00  0.00    -0.405 A  
HETATM   17  C   UNL     1     -11.472  10.668  69.184  1.00  0.00    -0.349 A  
BRANCH  15  18
HETATM   18  C   UNL     1     -11.983  14.453  69.135  1.00  0.00    -0.357 C  
BRANCH  18  19
HETATM   19  C   UNL     1     -10.708  15.245  69.426  1.00  0.00    -0.265 C  
BRANCH  19  20
HETATM   20  O   UNL     1     -10.962  16.219  70.442  1.00  0.00    -0.337 OA 
BRANCH  20  21
HETATM   21  C   UNL     1     -12.156  15.896  71.157  1.00  0.00    -0.418 C  
BRANCH  21  22
HETATM   22  C   UNL     1     -11.794  15.439  72.532  1.00  0.00    -0.564 C  
HETATM   23  C   UNL     1     -12.455  16.086  73.725  1.00  0.00    -0.716 C  
HETATM   24  C   UNL     1     -12.773  14.660  73.374  1.00  0.00    -0.528 C  
ENDBRANCH  21  22
ENDBRANCH  20  21
ENDBRANCH  19  20
ENDBRANCH  18  19
ENDBRANCH  15  18
ENDBRANCH  11  12
ENDBRANCH  10  11
ENDBRANCH   7  10
ENDBRANCH   6   7
ENDBRANCH   4   6
ENDBRANCH   2   4
TORSDOF 11
ENDMDL
MODEL       18
REMARK 921   NORMALIZED FREE ENERGY PREDICTED BY IDOCK:   -5.18 KCAL/MOL
REMARK 922        TOTAL FREE ENERGY PREDICTED BY IDOCK:   -9.84 KCAL/MOL
REMARK 923 INTER-LIGAND FREE ENERGY PREDICTED BY IDOCK:   -8.56 KCAL/MOL
REMARK 924 INTRA-LIGAND FREE ENERGY PREDICTED BY IDOCK:   -1.28 KCAL/MOL
REMARK 927      BINDING AFFINITY PREDICTED BY RF-SCORE:    0.00 PKD
ROOT
HETATM    1  C   UNL     1     -10.392  10.981  64.236  1.00  0.00    -0.430 C  
HETATM    2  C   UNL     1     -10.784  12.248  63.471  1.00  0.00    -0.451 C  
HETATM    3  C   UNL     1     -12.308  12.392  63.471  1.00  0.00    -0.648 C  
ENDROOT
BRANCH   2   4
HETATM    4  N   UNL     1     -10.131  13.395  64.106  1.00  0.00    -0.779 NA 
HETATM    5  H   UNL     1      -9.637  13.958  63.414  1.00  0.00     0.000 HD 
BRANCH   4   6
HETATM    6  C   UNL     1     -11.052  14.226  64.896  1.00  0.00    -0.390 C  
BRANCH   6   7
HETATM    7  C   UNL     1     -10.612  14.253  66.370  1.00  0.00    -0.286 C  
HETATM    8  O   UNL     1     -10.640  15.606  66.857  1.00  0.00    -0.303 OA 
HETATM    9  H   UNL     1     -10.368  15.622  67.768  1.00  0.00     0.000 HD 
BRANCH   7  10
HETATM   10  C   UNL     1     -11.523  13.379  67.242  1.00  0.00    -0.340 C  
BRANCH  10  11
HETATM   11  O   UNL     1     -11.375  13.773  68.614  1.00  0.00    -0.252 OA 
BRANCH  11  12
HETATM   12  C   UNL     1     -11.889  12.892  69.527  1.00  0.00    -0.320 A  
HETATM   13  C   UNL     1     -12.366  13.243  70.786  1.00  0.00    -0.425 A  
HETATM   14  C   UNL     1     -12.872  12.265  71.644  1.00  0.00    -0.378 A  
HETATM   15  C   UNL     1     -12.934  10.921  71.247  1.00  0.00    -0.492 A  
HETATM   16  C   UNL     1     -12.471  10.578  69.972  1.00  0.00    -0.243 A  
HETATM   17  C   UNL     1     -11.958  11.559  69.115  1.00  0.00    -0.386 A  
BRANCH  15  18
HETATM   18  C   UNL     1     -13.483   9.873  72.184  1.00  0.00    -0.454 C  
BRANCH  18  19
HETATM   19  C   UNL     1     -13.848   8.577  71.459  1.00  0.00    -0.328 C  
BRANCH  19  20
HETATM   20  O   UNL     1     -13.043   7.502  71.950  1.00  0.00    -0.311 OA 
BRANCH  20  21
HETATM   21  C   UNL     1     -12.015   7.179  71.012  1.00  0.00    -0.347 C  
BRANCH  21  22
HETATM   22  C   UNL     1     -10.692   7.213  71.706  1.00  0.00    -0.241 C  
HETATM   23  C   UNL     1      -9.911   8.503  71.748  1.00  0.00    -0.345 C  
HETATM   24  C   UNL     1     -10.517   7.952  73.008  1.00  0.00    -0.410 C  
ENDBRANCH  21  22
ENDBRANCH  20  21
ENDBRANCH  19  20
ENDBRANCH  18  19
ENDBRANCH  15  18
ENDBRANCH  11  12
ENDBRANCH  10  11
ENDBRANCH   7  10
ENDBRANCH   6   7
ENDBRANCH   4   6
ENDBRANCH   2   4
TORSDOF 11
ENDMDL
MODEL       19
REMARK 921   NORMALIZED FREE ENERGY PREDICTED BY IDOCK:   -5.15 KCAL/MOL
REMARK 922        TOTAL FREE ENERGY PREDICTED BY IDOCK:   -9.79 KCAL/MOL
REMARK 923 INTER-LIGAND FREE ENERGY PREDICTED BY IDOCK:   -8.27 KCAL/MOL
REMARK 924 INTRA-LIGAND FREE ENERGY PREDICTED BY IDOCK:   -1.51 KCAL/MOL
REMARK 927      BINDING AFFINITY PREDICTED BY RF-SCORE:    0.00 PKD
ROOT
HETATM    1  C   UNL     1     -10.345  19.480  66.049  1.00  0.00    -0.604 C  
HETATM    2  C   UNL     1      -9.825  20.432  67.129  1.00  0.00    -0.461 C  
HETATM    3  C   UNL     1     -10.253  19.924  68.507  1.00  0.00    -0.529 C  
ENDROOT
BRANCH   2   4
HETATM    4  N   UNL     1      -8.367  20.518  67.010  1.00  0.00    -0.509 NA 
HETATM    5  H   UNL     1      -7.915  20.214  67.873  1.00  0.00     0.000 HD 
BRANCH   4   6
HETATM    6  C   UNL     1      -7.833  19.782  65.854  1.00  0.00    -0.301 C  
BRANCH   6   7
HETATM    7  C   UNL     1      -6.561  19.014  66.254  1.00  0.00    -0.205 C  
HETATM    8  O   UNL     1      -6.059  19.527  67.500  1.00  0.00    -0.192 OA 
HETATM    9  H   UNL     1      -5.274  19.053  67.746  1.00  0.00     0.000 HD 
BRANCH   7  10
HETATM   10  C   UNL     1      -6.837  17.511  66.396  1.00  0.00    -0.273 C  
BRANCH  10  11
HETATM   11  O   UNL     1      -7.579  17.285  67.604  1.00  0.00    -0.174 OA 
BRANCH  11  12
HETATM   12  C   UNL     1      -8.720  16.544  67.451  1.00  0.00    -0.182 A  
HETATM   13  C   UNL     1      -9.705  16.396  68.421  1.00  0.00    -0.229 A  
HETATM   14  C   UNL     1     -10.834  15.616  68.163  1.00  0.00    -0.301 A  
HETATM   15  C   UNL     1     -11.009  14.992  66.920  1.00  0.00    -0.324 A  
HETATM   16  C   UNL     1     -10.023  15.162  65.941  1.00  0.00    -0.355 A  
HETATM   17  C   UNL     1      -8.889  15.938  66.203  1.00  0.00    -0.363 A  
BRANCH  15  18
HETATM   18  C   UNL     1     -12.235  14.151  66.654  1.00  0.00    -0.450 C  
BRANCH  18  19
HETATM   19  C   UNL     1     -11.919  12.909  65.820  1.00  0.00    -0.443 C  
BRANCH  19  20
HETATM   20  O   UNL     1     -12.806  12.837  64.701  1.00  0.00    -0.705 OA 
BRANCH  20  21
HETATM   21  C   UNL     1     -12.176  12.171  63.605  1.00  0.00    -0.562 C  
BRANCH  21  22
HETATM   22  C   UNL     1     -10.723  11.997  63.908  1.00  0.00    -0.450 C  
HETATM   23  C   UNL     1     -10.136  10.608  63.941  1.00  0.00    -0.356 C  
HETATM   24  C   UNL     1      -9.754  11.557  62.841  1.00  0.00    -0.302 C  
ENDBRANCH  21  22
ENDBRANCH  20  21
ENDBRANCH  19  20
ENDBRANCH  18  19
ENDBRANCH  15  18
ENDBRANCH  11  12
ENDBRANCH  10  11
ENDBRANCH   7  10
ENDBRANCH   6   7
ENDBRANCH   4   6
ENDBRANCH   2   4
TORSDOF 11
ENDMDL
MODEL       20
REMARK 921   NORMALIZED FREE ENERGY PREDICTED BY IDOCK:   -5.14 KCAL/MOL
REMARK 922        TOTAL FREE ENERGY PREDICTED BY IDOCK:   -9.78 KCAL/MOL
REMARK 923 INTER-LIGAND FREE ENERGY PREDICTED BY IDOCK:   -8.41 KCAL/MOL
REMARK 924 INTRA-LIGAND FREE ENERGY PREDICTED BY IDOCK:   -1.37 KCAL/MOL
REMARK 927      BINDING AFFINITY PREDICTED BY RF-SCORE:    0.00 PKD
ROOT
HETATM    1  C   UNL     1     -10.867   6.161  71.650  1.00  0.00    -0.308 C  
HETATM    2  C   UNL     1     -10.688   7.011  72.910  1.00  0.00    -0.288 C  
HETATM    3  C   UNL     1      -9.432   7.874  72.769  1.00  0.00    -0.304 C  
ENDROOT
BRANCH   2   4
HETATM    4  N   UNL     1     -11.890   7.828  73.094  1.00  0.00    -0.634 NA 
HETATM    5  H   UNL     1     -11.642   8.788  73.332  1.00  0.00     0.000 HD 
BRANCH   4   6
HETATM    6  C   UNL     1     -12.799   7.795  71.937  1.00  0.00    -0.292 C  
BRANCH   6   7
HETATM    7  C   UNL     1     -13.756   8.999  71.979  1.00  0.00    -0.461 C  
HETATM    8  O   UNL     1     -14.294   9.142  73.305  1.00  0.00    -1.059 OA 
HETATM    9  H   UNL     1     -14.885   9.886  73.330  1.00  0.00     0.000 HD 
BRANCH   7  10
HETATM   10  C   UNL     1     -13.042  10.296  71.576  1.00  0.00    -0.433 C  
BRANCH  10  11
HETATM   11  O   UNL     1     -11.678   9.995  71.246  1.00  0.00    -0.361 OA 
BRANCH  11  12
HETATM   12  C   UNL     1     -11.369  10.099  69.916  1.00  0.00    -0.275 A  
HETATM   13  C   UNL     1     -11.907  11.045  69.049  1.00  0.00    -0.399 A  
HETATM   14  C   UNL     1     -11.524  11.065  67.707  1.00  0.00    -0.339 A  
HETATM   15  C   UNL     1     -10.576  10.156  67.214  1.00  0.00    -0.321 A  
HETATM   16  C   UNL     1     -10.025   9.220  68.097  1.00  0.00    -0.206 A  
HETATM   17  C   UNL     1     -10.415   9.197  69.441  1.00  0.00    -0.226 A  
BRANCH  15  18
HETATM   18  C   UNL     1     -10.170  10.189  65.761  1.00  0.00    -0.283 C  
BRANCH  18  19
HETATM   19  C   UNL     1      -9.540  11.524  65.362  1.00  0.00    -0.224 C  
BRANCH  19  20
HETATM   20  O   UNL     1      -9.885  11.840  64.011  1.00  0.00    -0.265 OA 
BRANCH  20  21
HETATM   21  C   UNL     1     -11.251  12.248  63.925  1.00  0.00    -0.421 C  
BRANCH  21  22
HETATM   22  C   UNL     1     -11.470  13.418  64.828  1.00  0.00    -0.359 C  
HETATM   23  C   UNL     1     -12.410  14.518  64.401  1.00  0.00    -0.437 C  
HETATM   24  C   UNL     1     -12.783  13.614  65.543  1.00  0.00    -0.514 C  
ENDBRANCH  21  22
ENDBRANCH  20  21
ENDBRANCH  19  20
ENDBRANCH  18  19
ENDBRANCH  15  18
ENDBRANCH  11  12
ENDBRANCH  10  11
ENDBRANCH   7  10
ENDBRANCH   6   7
ENDBRANCH   4   6
ENDBRANCH   2   4
TORSDOF 11
ENDMDL
MODEL       21
REMARK 921   NORMALIZED FREE ENERGY PREDICTED BY IDOCK:   -5.14 KCAL/MOL
REMARK 922        TOTAL FREE ENERGY PREDICTED BY IDOCK:   -9.77 KCAL/MOL
REMARK 923 INTER-LIGAND FREE ENERGY PREDICTED BY IDOCK:   -7.88 KCAL/MOL
REMARK 924 INTRA-LIGAND FREE ENERGY PREDICTED BY IDOCK:   -1.89 KCAL/MOL
REMARK 927      BINDING AFFINITY PREDICTED BY RF-SCORE:    0.00 PKD
ROOT
HETATM    1  C   UNL     1     -11.974  12.028  63.564  1.00  0.00    -0.605 C  
HETATM    2  C   UNL     1     -11.652  12.961  64.734  1.00  0.00    -0.331 C  
HETATM    3  C   UNL     1     -12.165  14.368  64.420  1.00  0.00    -0.481 C  
ENDROOT
BRANCH   2   4
HETATM    4  N   UNL     1     -12.268  12.416  65.946  1.00  0.00    -0.632 NA 
HETATM    5  H   UNL     1     -12.839  11.600  65.726  1.00  0.00     0.000 HD 
BRANCH   4   6
HETATM    6  C   UNL     1     -11.296  12.105  67.004  1.00  0.00    -0.337 C  
BRANCH   6   7
HETATM    7  C   UNL     1     -11.793  12.643  68.358  1.00  0.00    -0.301 C  
HETATM    8  O   UNL     1     -10.895  12.227  69.401  1.00  0.00    -0.443 OA 
HETATM    9  H   UNL     1     -11.202  12.559  70.237  1.00  0.00     0.000 HD 
BRANCH   7  10
HETATM   10  C   UNL     1     -11.890  14.174  68.350  1.00  0.00    -0.353 C  
BRANCH  10  11
HETATM   11  O   UNL     1     -10.825  14.714  69.147  1.00  0.00    -0.245 OA 
BRANCH  11  12
HETATM   12  C   UNL     1      -9.816  15.308  68.438  1.00  0.00    -0.216 A  
HETATM   13  C   UNL     1      -9.842  15.543  67.067  1.00  0.00    -0.236 A  
HETATM   14  C   UNL     1      -8.758  16.158  66.439  1.00  0.00    -0.360 A  
HETATM   15  C   UNL     1      -7.639  16.573  67.176  1.00  0.00    -0.214 A  
HETATM   16  C   UNL     1      -7.628  16.350  68.557  1.00  0.00    -0.188 A  
HETATM   17  C   UNL     1      -8.713  15.728  69.185  1.00  0.00    -0.253 A  
BRANCH  15  18
HETATM   18  C   UNL     1      -6.473  17.237  66.485  1.00  0.00    -0.272 C  
BRANCH  18  19
HETATM   19  C   UNL     1      -6.871  18.542  65.795  1.00  0.00    -0.275 C  
BRANCH  19  20
HETATM   20  O   UNL     1      -7.527  19.404  66.728  1.00  0.00    -0.225 OA 
BRANCH  20  21
HETATM   21  C   UNL     1      -8.725  19.936  66.161  1.00  0.00    -0.307 C  
BRANCH  21  22
HETATM   22  C   UNL     1      -9.718  20.176  67.251  1.00  0.00    -0.574 C  
HETATM   23  C   UNL     1     -10.734  19.108  67.575  1.00  0.00    -0.555 C  
HETATM   24  C   UNL     1      -9.638  19.421  68.554  1.00  0.00    -0.472 C  
ENDBRANCH  21  22
ENDBRANCH  20  21
ENDBRANCH  19  20
ENDBRANCH  18  19
ENDBRANCH  15  18
ENDBRANCH  11  12
ENDBRANCH  10  11
ENDBRANCH   7  10
ENDBRANCH   6   7
ENDBRANCH   4   6
ENDBRANCH   2   4
TORSDOF 11
ENDMDL
MODEL       22
REMARK 921   NORMALIZED FREE ENERGY PREDICTED BY IDOCK:   -5.13 KCAL/MOL
REMARK 922        TOTAL FREE ENERGY PREDICTED BY IDOCK:   -9.76 KCAL/MOL
REMARK 923 INTER-LIGAND FREE ENERGY PREDICTED BY IDOCK:   -8.80 KCAL/MOL
REMARK 924 INTRA-LIGAND FREE ENERGY PREDICTED BY IDOCK:   -0.96 KCAL/MOL
REMARK 927      BINDING AFFINITY PREDICTED BY RF-SCORE:    0.00 PKD
ROOT
HETATM    1  C   UNL     1     -10.503   6.155  71.479  1.00  0.00    -0.268 C  
HETATM    2  C   UNL     1     -10.695   7.047  72.708  1.00  0.00    -0.274 C  
HETATM    3  C   UNL     1      -9.789   8.275  72.594  1.00  0.00    -0.357 C  
ENDROOT
BRANCH   2   4
HETATM    4  N   UNL     1     -12.109   7.421  72.795  1.00  0.00    -0.541 NA 
HETATM    5  H   UNL     1     -12.284   7.985  73.626  1.00  0.00     0.000 HD 
BRANCH   4   6
HETATM    6  C   UNL     1     -12.605   8.101  71.589  1.00  0.00    -0.320 C  
BRANCH   6   7
HETATM    7  C   UNL     1     -13.639   9.174  71.972  1.00  0.00    -0.459 C  
HETATM    8  O   UNL     1     -14.102   8.942  73.313  1.00  0.00    -1.211 OA 
HETATM    9  H   UNL     1     -14.740   9.605  73.549  1.00  0.00     0.000 HD 
BRANCH   7  10
HETATM   10  C   UNL     1     -13.043  10.585  71.876  1.00  0.00    -0.462 C  
BRANCH  10  11
HETATM   11  O   UNL     1     -11.850  10.534  71.079  1.00  0.00    -0.350 OA 
BRANCH  11  12
HETATM   12  C   UNL     1     -11.852  11.355  69.983  1.00  0.00    -0.359 A  
HETATM   13  C   UNL     1     -11.636  10.932  68.675  1.00  0.00    -0.373 A  
HETATM   14  C   UNL     1     -11.659  11.853  67.627  1.00  0.00    -0.382 A  
HETATM   15  C   UNL     1     -11.924  13.210  67.865  1.00  0.00    -0.347 A  
HETATM   16  C   UNL     1     -12.160  13.624  69.180  1.00  0.00    -0.361 A  
HETATM   17  C   UNL     1     -12.131  12.701  70.231  1.00  0.00    -0.372 A  
BRANCH  15  18
HETATM   18  C   UNL     1     -11.946  14.195  66.721  1.00  0.00    -0.475 C  
BRANCH  18  19
HETATM   19  C   UNL     1     -11.262  13.648  65.468  1.00  0.00    -0.293 C  
BRANCH  19  20
HETATM   20  O   UNL     1     -10.619  14.712  64.762  1.00  0.00    -0.421 OA 
BRANCH  20  21
HETATM   21  C   UNL     1     -10.625  15.908  65.543  1.00  0.00    -0.401 C  
BRANCH  21  22
HETATM   22  C   UNL     1      -9.220  16.266  65.901  1.00  0.00    -0.268 C  
HETATM   23  C   UNL     1      -8.927  16.846  67.263  1.00  0.00    -0.212 C  
HETATM   24  C   UNL     1      -8.448  15.464  66.918  1.00  0.00    -0.287 C  
ENDBRANCH  21  22
ENDBRANCH  20  21
ENDBRANCH  19  20
ENDBRANCH  18  19
ENDBRANCH  15  18
ENDBRANCH  11  12
ENDBRANCH  10  11
ENDBRANCH   7  10
ENDBRANCH   6   7
ENDBRANCH   4   6
ENDBRANCH   2   4
TORSDOF 11
ENDMDL
MODEL       23
REMARK 921   NORMALIZED FREE ENERGY PREDICTED BY IDOCK:   -5.13 KCAL/MOL
REMARK 922        TOTAL FREE ENERGY PREDICTED BY IDOCK:   -9.75 KCAL/MOL
REMARK 923 INTER-LIGAND FREE ENERGY PREDICTED BY IDOCK:   -8.52 KCAL/MOL
REMARK 924 INTRA-LIGAND FREE ENERGY PREDICTED BY IDOCK:   -1.24 KCAL/MOL
REMARK 927      BINDING AFFINITY PREDICTED BY RF-SCORE:    0.00 PKD
ROOT
HETATM    1  C   UNL     1     -10.619  19.592  65.888  1.00  0.00    -0.566 C  
HETATM    2  C   UNL     1     -10.102  20.220  67.185  1.00  0.00    -0.415 C  
HETATM    3  C   UNL     1     -10.270  19.225  68.336  1.00  0.00    -0.503 C  
ENDROOT
BRANCH   2   4
HETATM    4  N   UNL     1      -8.700  20.596  66.993  1.00  0.00    -0.567 NA 
HETATM    5  H   UNL     1      -8.191  20.560  67.876  1.00  0.00     0.000 HD 
BRANCH   4   6
HETATM    6  C   UNL     1      -8.018  19.796  65.965  1.00  0.00    -0.330 C  
BRANCH   6   7
HETATM    7  C   UNL     1      -6.808  19.067  66.575  1.00  0.00    -0.202 C  
HETATM    8  O   UNL     1      -6.750  19.327  67.988  1.00  0.00    -0.232 OA 
HETATM    9  H   UNL     1      -6.002  18.877  68.364  1.00  0.00     0.000 HD 
BRANCH   7  10
HETATM   10  C   UNL     1      -6.889  17.552  66.339  1.00  0.00    -0.273 C  
BRANCH  10  11
HETATM   11  O   UNL     1      -8.206  17.222  65.875  1.00  0.00    -0.534 OA 
BRANCH  11  12
HETATM   12  C   UNL     1      -8.897  16.349  66.671  1.00  0.00    -0.249 A  
HETATM   13  C   UNL     1      -8.571  16.050  67.990  1.00  0.00    -0.165 A  
HETATM   14  C   UNL     1      -9.343  15.142  68.716  1.00  0.00    -0.200 A  
HETATM   15  C   UNL     1     -10.471  14.535  68.143  1.00  0.00    -0.239 A  
HETATM   16  C   UNL     1     -10.804  14.855  66.822  1.00  0.00    -0.320 A  
HETATM   17  C   UNL     1     -10.025  15.762  66.093  1.00  0.00    -0.334 A  
BRANCH  15  18
HETATM   18  C   UNL     1     -11.298  13.554  68.939  1.00  0.00    -0.332 C  
BRANCH  18  19
HETATM   19  C   UNL     1     -12.367  14.246  69.785  1.00  0.00    -0.292 C  
BRANCH  19  20
HETATM   20  O   UNL     1     -12.154  13.959  71.169  1.00  0.00    -0.344 OA 
BRANCH  20  21
HETATM   21  C   UNL     1     -13.376  14.074  71.899  1.00  0.00    -0.406 C  
BRANCH  21  22
HETATM   22  C   UNL     1     -13.335  15.316  72.729  1.00  0.00    -0.603 C  
HETATM   23  C   UNL     1     -12.525  15.329  74.002  1.00  0.00    -0.757 C  
HETATM   24  C   UNL     1     -12.081  16.147  72.822  1.00  0.00    -0.653 C  
ENDBRANCH  21  22
ENDBRANCH  20  21
ENDBRANCH  19  20
ENDBRANCH  18  19
ENDBRANCH  15  18
ENDBRANCH  11  12
ENDBRANCH  10  11
ENDBRANCH   7  10
ENDBRANCH   6   7
ENDBRANCH   4   6
ENDBRANCH   2   4
TORSDOF 11
ENDMDL
MODEL       24
REMARK 921   NORMALIZED FREE ENERGY PREDICTED BY IDOCK:   -5.09 KCAL/MOL
REMARK 922        TOTAL FREE ENERGY PREDICTED BY IDOCK:   -9.69 KCAL/MOL
REMARK 923 INTER-LIGAND FREE ENERGY PREDICTED BY IDOCK:   -8.06 KCAL/MOL
REMARK 924 INTRA-LIGAND FREE ENERGY PREDICTED BY IDOCK:   -1.64 KCAL/MOL
REMARK 927      BINDING AFFINITY PREDICTED BY RF-SCORE:    0.00 PKD
ROOT
HETATM    1  C   UNL     1     -12.761  14.029  65.355  1.00  0.00    -0.499 C  
HETATM    2  C   UNL     1     -11.797  14.628  64.327  1.00  0.00    -0.337 C  
HETATM    3  C   UNL     1     -10.980  15.743  64.982  1.00  0.00    -0.431 C  
ENDROOT
BRANCH   2   4
HETATM    4  N   UNL     1     -10.940  13.556  63.815  1.00  0.00    -0.474 NA 
HETATM    5  H   UNL     1     -10.165  13.376  64.453  1.00  0.00     0.000 HD 
BRANCH   4   6
HETATM    6  C   UNL     1     -11.672  12.315  63.521  1.00  0.00    -0.499 C  
BRANCH   6   7
HETATM    7  C   UNL     1     -10.773  11.093  63.780  1.00  0.00    -0.329 C  
HETATM    8  O   UNL     1     -10.196  10.647  62.541  1.00  0.00    -0.758 OA 
HETATM    9  H   UNL     1      -9.641   9.892  62.701  1.00  0.00     0.000 HD 
BRANCH   7  10
HETATM   10  C   UNL     1      -9.652  11.424  64.774  1.00  0.00    -0.210 C  
BRANCH  10  11
HETATM   11  O   UNL     1      -9.992  10.883  66.059  1.00  0.00    -0.221 OA 
BRANCH  11  12
HETATM   12  C   UNL     1     -10.384  11.807  66.989  1.00  0.00    -0.214 A  
HETATM   13  C   UNL     1     -11.469  11.658  67.847  1.00  0.00    -0.381 A  
HETATM   14  C   UNL     1     -11.785  12.663  68.762  1.00  0.00    -0.364 A  
HETATM   15  C   UNL     1     -11.006  13.826  68.853  1.00  0.00    -0.281 A  
HETATM   16  C   UNL     1      -9.905  13.961  68.000  1.00  0.00    -0.234 A  
HETATM   17  C   UNL     1      -9.593  12.955  67.079  1.00  0.00    -0.231 A  
BRANCH  15  18
HETATM   18  C   UNL     1     -11.359  14.906  69.847  1.00  0.00    -0.311 C  
BRANCH  18  19
HETATM   19  C   UNL     1     -10.437  16.121  69.739  1.00  0.00    -0.286 C  
BRANCH  19  20
HETATM   20  O   UNL     1     -10.959  17.044  68.781  1.00  0.00    -0.289 OA 
BRANCH  20  21
HETATM   21  C   UNL     1     -10.158  18.225  68.735  1.00  0.00    -0.370 C  
BRANCH  21  22
HETATM   22  C   UNL     1      -9.815  18.530  67.313  1.00  0.00    -0.329 C  
HETATM   23  C   UNL     1     -10.682  19.485  66.531  1.00  0.00    -0.535 C  
HETATM   24  C   UNL     1      -9.285  19.883  66.915  1.00  0.00    -0.475 C  
ENDBRANCH  21  22
ENDBRANCH  20  21
ENDBRANCH  19  20
ENDBRANCH  18  19
ENDBRANCH  15  18
ENDBRANCH  11  12
ENDBRANCH  10  11
ENDBRANCH   7  10
ENDBRANCH   6   7
ENDBRANCH   4   6
ENDBRANCH   2   4
TORSDOF 11
ENDMDL
MODEL       25
REMARK 921   NORMALIZED FREE ENERGY PREDICTED BY IDOCK:   -5.09 KCAL/MOL
REMARK 922        TOTAL FREE ENERGY PREDICTED BY IDOCK:   -9.69 KCAL/MOL
REMARK 923 INTER-LIGAND FREE ENERGY PREDICTED BY IDOCK:   -8.34 KCAL/MOL
REMARK 924 INTRA-LIGAND FREE ENERGY PREDICTED BY IDOCK:   -1.35 KCAL/MOL
REMARK 927      BINDING AFFINITY PREDICTED BY RF-SCORE:    0.00 PKD
ROOT
HETATM    1  C   UNL     1     -13.925  15.239  71.942  1.00  0.00    -0.644 C  
HETATM    2  C   UNL     1     -12.609  15.737  72.545  1.00  0.00    -0.450 C  
HETATM    3  C   UNL     1     -12.512  15.282  74.003  1.00  0.00    -0.757 C  
ENDROOT
BRANCH   2   4
HETATM    4  N   UNL     1     -11.502  15.216  71.740  1.00  0.00    -0.481 NA 
HETATM    5  H   UNL     1     -11.666  14.242  71.486  1.00  0.00     0.000 HD 
BRANCH   4   6
HETATM    6  C   UNL     1     -11.220  16.027  70.546  1.00  0.00    -0.378 C  
BRANCH   6   7
HETATM    7  C   UNL     1     -10.881  15.115  69.353  1.00  0.00    -0.262 C  
HETATM    8  O   UNL     1      -9.571  14.549  69.535  1.00  0.00    -0.413 OA 
HETATM    9  H   UNL     1      -9.363  13.987  68.798  1.00  0.00     0.000 HD 
BRANCH   7  10
HETATM   10  C   UNL     1     -11.908  13.985  69.202  1.00  0.00    -0.350 C  
BRANCH  10  11
HETATM   11  O   UNL     1     -11.217  12.764  68.899  1.00  0.00    -0.256 OA 
BRANCH  11  12
HETATM   12  C   UNL     1     -11.599  11.683  69.647  1.00  0.00    -0.330 A  
HETATM   13  C   UNL     1     -11.118  10.389  69.473  1.00  0.00    -0.314 A  
HETATM   14  C   UNL     1     -11.574   9.355  70.292  1.00  0.00    -0.181 A  
HETATM   15  C   UNL     1     -12.500   9.601  71.317  1.00  0.00    -0.445 A  
HETATM   16  C   UNL     1     -12.965  10.909  71.497  1.00  0.00    -0.556 A  
HETATM   17  C   UNL     1     -12.512  11.944  70.671  1.00  0.00    -0.347 A  
BRANCH  15  18
HETATM   18  C   UNL     1     -12.985   8.474  72.195  1.00  0.00    -0.403 C  
BRANCH  18  19
HETATM   19  C   UNL     1     -13.071   7.145  71.443  1.00  0.00    -0.352 C  
BRANCH  19  20
HETATM   20  O   UNL     1     -12.257   6.165  72.092  1.00  0.00    -0.319 OA 
BRANCH  20  21
HETATM   21  C   UNL     1     -10.969   6.098  71.478  1.00  0.00    -0.273 C  
BRANCH  21  22
HETATM   22  C   UNL     1      -9.918   6.278  72.525  1.00  0.00    -0.184 C  
HETATM   23  C   UNL     1      -9.366   7.657  72.789  1.00  0.00    -0.236 C  
HETATM   24  C   UNL     1     -10.226   6.984  73.821  1.00  0.00    -0.401 C  
ENDBRANCH  21  22
ENDBRANCH  20  21
ENDBRANCH  19  20
ENDBRANCH  18  19
ENDBRANCH  15  18
ENDBRANCH  11  12
ENDBRANCH  10  11
ENDBRANCH   7  10
ENDBRANCH   6   7
ENDBRANCH   4   6
ENDBRANCH   2   4
TORSDOF 11
ENDMDL
MODEL       26
REMARK 921   NORMALIZED FREE ENERGY PREDICTED BY IDOCK:   -5.09 KCAL/MOL
REMARK 922        TOTAL FREE ENERGY PREDICTED BY IDOCK:   -9.69 KCAL/MOL
REMARK 923 INTER-LIGAND FREE ENERGY PREDICTED BY IDOCK:   -8.69 KCAL/MOL
REMARK 924 INTRA-LIGAND FREE ENERGY PREDICTED BY IDOCK:   -1.00 KCAL/MOL
REMARK 927      BINDING AFFINITY PREDICTED BY RF-SCORE:    0.00 PKD
ROOT
HETATM    1  C   UNL     1      -8.593  17.304  66.404  1.00  0.00    -0.294 C  
HETATM    2  C   UNL     1     -10.108  17.407  66.215  1.00  0.00    -0.322 C  
HETATM    3  C   UNL     1     -10.520  18.880  66.179  1.00  0.00    -0.521 C  
ENDROOT
BRANCH   2   4
HETATM    4  N   UNL     1     -10.471  16.712  64.978  1.00  0.00    -0.662 NA 
HETATM    5  H   UNL     1      -9.889  17.026  64.202  1.00  0.00     0.000 HD 
BRANCH   4   6
HETATM    6  C   UNL     1     -10.432  15.247  65.101  1.00  0.00    -0.411 C  
BRANCH   6   7
HETATM    7  C   UNL     1     -11.842  14.660  64.910  1.00  0.00    -0.403 C  
HETATM    8  O   UNL     1     -11.971  14.135  63.577  1.00  0.00    -0.797 OA 
HETATM    9  H   UNL     1     -12.841  13.773  63.461  1.00  0.00     0.000 HD 
BRANCH   7  10
HETATM   10  C   UNL     1     -12.125  13.544  65.926  1.00  0.00    -0.435 C  
BRANCH  10  11
HETATM   11  O   UNL     1     -11.295  13.741  67.080  1.00  0.00    -0.304 OA 
BRANCH  11  12
HETATM   12  C   UNL     1     -11.680  13.046  68.194  1.00  0.00    -0.351 A  
HETATM   13  C   UNL     1     -11.753  11.660  68.279  1.00  0.00    -0.374 A  
HETATM   14  C   UNL     1     -12.159  11.048  69.465  1.00  0.00    -0.400 A  
HETATM   15  C   UNL     1     -12.476  11.813  70.598  1.00  0.00    -0.364 A  
HETATM   16  C   UNL     1     -12.382  13.206  70.512  1.00  0.00    -0.380 A  
HETATM   17  C   UNL     1     -11.980  13.818  69.319  1.00  0.00    -0.399 A  
BRANCH  15  18
HETATM   18  C   UNL     1     -12.914  11.139  71.876  1.00  0.00    -0.477 C  
BRANCH  18  19
HETATM   19  C   UNL     1     -13.145   9.638  71.693  1.00  0.00    -0.412 C  
BRANCH  19  20
HETATM   20  O   UNL     1     -12.175   8.902  72.442  1.00  0.00    -0.358 OA 
BRANCH  20  21
HETATM   21  C   UNL     1     -11.311   8.177  71.566  1.00  0.00    -0.263 C  
BRANCH  21  22
HETATM   22  C   UNL     1      -9.979   8.854  71.522  1.00  0.00    -0.391 C  
HETATM   23  C   UNL     1      -8.730   8.021  71.382  1.00  0.00    -0.163 C  
HETATM   24  C   UNL     1      -9.174   8.901  70.248  1.00  0.00    -0.207 C  
ENDBRANCH  21  22
ENDBRANCH  20  21
ENDBRANCH  19  20
ENDBRANCH  18  19
ENDBRANCH  15  18
ENDBRANCH  11  12
ENDBRANCH  10  11
ENDBRANCH   7  10
ENDBRANCH   6   7
ENDBRANCH   4   6
ENDBRANCH   2   4
TORSDOF 11
ENDMDL
MODEL       27
REMARK 921   NORMALIZED FREE ENERGY PREDICTED BY IDOCK:   -5.09 KCAL/MOL
REMARK 922        TOTAL FREE ENERGY PREDICTED BY IDOCK:   -9.68 KCAL/MOL
REMARK 923 INTER-LIGAND FREE ENERGY PREDICTED BY IDOCK:   -8.03 KCAL/MOL
REMARK 924 INTRA-LIGAND FREE ENERGY PREDICTED BY IDOCK:   -1.65 KCAL/MOL
REMARK 927      BINDING AFFINITY PREDICTED BY RF-SCORE:    0.00 PKD
ROOT
HETATM    1  C   UNL     1     -11.122  10.510  70.425  1.00  0.00    -0.321 C  
HETATM    2  C   UNL     1     -12.559  10.877  70.806  1.00  0.00    -0.377 C  
HETATM    3  C   UNL     1     -13.011  10.011  71.984  1.00  0.00    -0.514 C  
ENDROOT
BRANCH   2   4
HETATM    4  N   UNL     1     -12.604  12.304  71.132  1.00  0.00    -0.326 NA 
HETATM    5  H   UNL     1     -12.788  12.860  70.298  1.00  0.00     0.000 HD 
BRANCH   4   6
HETATM    6  C   UNL     1     -13.564  12.627  72.199  1.00  0.00    -0.413 C  
BRANCH   6   7
HETATM    7  C   UNL     1     -13.635  14.150  72.406  1.00  0.00    -0.532 C  
HETATM    8  O   UNL     1     -12.750  14.534  73.473  1.00  0.00    -0.459 OA 
HETATM    9  H   UNL     1     -12.794  15.474  73.601  1.00  0.00     0.000 HD 
BRANCH   7  10
HETATM   10  C   UNL     1     -13.249  14.908  71.128  1.00  0.00    -0.414 C  
BRANCH  10  11
HETATM   11  O   UNL     1     -11.854  15.238  71.184  1.00  0.00    -0.288 OA 
BRANCH  11  12
HETATM   12  C   UNL     1     -11.226  15.302  69.970  1.00  0.00    -0.287 A  
HETATM   13  C   UNL     1     -11.873  15.270  68.739  1.00  0.00    -0.332 A  
HETATM   14  C   UNL     1     -11.137  15.342  67.556  1.00  0.00    -0.324 A  
HETATM   15  C   UNL     1      -9.741  15.471  67.582  1.00  0.00    -0.212 A  
HETATM   16  C   UNL     1      -9.098  15.522  68.824  1.00  0.00    -0.207 A  
HETATM   17  C   UNL     1      -9.837  15.444  70.010  1.00  0.00    -0.110 A  
BRANCH  15  18
HETATM   18  C   UNL     1      -8.957  15.547  66.295  1.00  0.00    -0.362 C  
BRANCH  18  19
HETATM   19  C   UNL     1      -7.930  16.681  66.303  1.00  0.00    -0.305 C  
BRANCH  19  20
HETATM   20  O   UNL     1      -8.577  17.923  66.016  1.00  0.00    -0.494 OA 
BRANCH  20  21
HETATM   21  C   UNL     1      -7.991  18.980  66.778  1.00  0.00    -0.259 C  
BRANCH  21  22
HETATM   22  C   UNL     1      -9.073  19.731  67.484  1.00  0.00    -0.414 C  
HETATM   23  C   UNL     1     -10.514  19.471  67.120  1.00  0.00    -0.592 C  
HETATM   24  C   UNL     1      -9.989  19.040  68.460  1.00  0.00    -0.486 C  
ENDBRANCH  21  22
ENDBRANCH  20  21
ENDBRANCH  19  20
ENDBRANCH  18  19
ENDBRANCH  15  18
ENDBRANCH  11  12
ENDBRANCH  10  11
ENDBRANCH   7  10
ENDBRANCH   6   7
ENDBRANCH   4   6
ENDBRANCH   2   4
TORSDOF 11
ENDMDL
MODEL       28
REMARK 921   NORMALIZED FREE ENERGY PREDICTED BY IDOCK:   -5.08 KCAL/MOL
REMARK 922        TOTAL FREE ENERGY PREDICTED BY IDOCK:   -9.67 KCAL/MOL
REMARK 923 INTER-LIGAND FREE ENERGY PREDICTED BY IDOCK:   -8.70 KCAL/MOL
REMARK 924 INTRA-LIGAND FREE ENERGY PREDICTED BY IDOCK:   -0.97 KCAL/MOL
REMARK 927      BINDING AFFINITY PREDICTED BY RF-SCORE:    0.00 PKD
ROOT
HETATM    1  C   UNL     1     -13.978  13.954  72.479  1.00  0.00    -0.565 C  
HETATM    2  C   UNL     1     -13.593  15.421  72.681  1.00  0.00    -0.542 C  
HETATM    3  C   UNL     1     -12.733  15.554  73.940  1.00  0.00    -0.723 C  
ENDROOT
BRANCH   2   4
HETATM    4  N   UNL     1     -12.883  15.885  71.487  1.00  0.00    -0.517 NA 
HETATM    5  H   UNL     1     -13.072  16.871  71.313  1.00  0.00     0.000 HD 
BRANCH   4   6
HETATM    6  C   UNL     1     -11.435  15.631  71.536  1.00  0.00    -0.422 C  
BRANCH   6   7
HETATM    7  C   UNL     1     -10.803  15.889  70.157  1.00  0.00    -0.353 C  
HETATM    8  O   UNL     1      -9.659  15.034  69.983  1.00  0.00    -0.470 OA 
HETATM    9  H   UNL     1      -9.269  15.194  69.131  1.00  0.00     0.000 HD 
BRANCH   7  10
HETATM   10  C   UNL     1     -11.807  15.633  69.025  1.00  0.00    -0.364 C  
BRANCH  10  11
HETATM   11  O   UNL     1     -11.180  15.932  67.769  1.00  0.00    -0.326 OA 
BRANCH  11  12
HETATM   12  C   UNL     1     -11.382  15.001  66.786  1.00  0.00    -0.293 A  
HETATM   13  C   UNL     1     -12.130  13.838  66.938  1.00  0.00    -0.454 A  
HETATM   14  C   UNL     1     -12.274  12.951  65.869  1.00  0.00    -0.469 A  
HETATM   15  C   UNL     1     -11.693  13.225  64.622  1.00  0.00    -0.403 A  
HETATM   16  C   UNL     1     -10.958  14.406  64.472  1.00  0.00    -0.290 A  
HETATM   17  C   UNL     1     -10.809  15.291  65.546  1.00  0.00    -0.382 A  
BRANCH  15  18
HETATM   18  C   UNL     1     -11.857  12.257  63.475  1.00  0.00    -0.601 C  
BRANCH  18  19
HETATM   19  C   UNL     1     -10.785  11.167  63.475  1.00  0.00    -0.266 C  
BRANCH  19  20
HETATM   20  O   UNL     1      -9.586  11.664  64.075  1.00  0.00    -0.213 OA 
BRANCH  20  21
HETATM   21  C   UNL     1      -8.986  10.663  64.897  1.00  0.00    -0.199 C  
BRANCH  21  22
HETATM   22  C   UNL     1     -10.037  10.039  65.756  1.00  0.00    -0.320 C  
HETATM   23  C   UNL     1      -9.659   8.919  66.694  1.00  0.00    -0.281 C  
HETATM   24  C   UNL     1     -10.055  10.260  67.247  1.00  0.00    -0.249 C  
ENDBRANCH  21  22
ENDBRANCH  20  21
ENDBRANCH  19  20
ENDBRANCH  18  19
ENDBRANCH  15  18
ENDBRANCH  11  12
ENDBRANCH  10  11
ENDBRANCH   7  10
ENDBRANCH   6   7
ENDBRANCH   4   6
ENDBRANCH   2   4
TORSDOF 11
ENDMDL
MODEL       29
REMARK 921   NORMALIZED FREE ENERGY PREDICTED BY IDOCK:   -5.08 KCAL/MOL
REMARK 922        TOTAL FREE ENERGY PREDICTED BY IDOCK:   -9.67 KCAL/MOL
REMARK 923 INTER-LIGAND FREE ENERGY PREDICTED BY IDOCK:   -8.39 KCAL/MOL
REMARK 924 INTRA-LIGAND FREE ENERGY PREDICTED BY IDOCK:   -1.28 KCAL/MOL
REMARK 927      BINDING AFFINITY PREDICTED BY RF-SCORE:    0.00 PKD
ROOT
HETATM    1  C   UNL     1     -11.671  15.072  68.626  1.00  0.00    -0.363 C  
HETATM    2  C   UNL     1     -11.110  15.970  67.520  1.00  0.00    -0.207 C  
HETATM    3  C   UNL     1     -10.577  17.265  68.135  1.00  0.00    -0.386 C  
ENDROOT
BRANCH   2   4
HETATM    4  N   UNL     1     -10.061  15.233  66.811  1.00  0.00    -0.252 NA 
HETATM    5  H   UNL     1     -10.121  14.235  67.012  1.00  0.00     0.000 HD 
BRANCH   4   6
HETATM    6  C   UNL     1     -10.059  15.474  65.360  1.00  0.00    -0.352 C  
BRANCH   6   7
HETATM    7  C   UNL     1     -11.501  15.496  64.823  1.00  0.00    -0.313 C  
HETATM    8  O   UNL     1     -11.595  16.424  63.729  1.00  0.00    -1.605 OA 
HETATM    9  H   UNL     1     -12.485  16.436  63.397  1.00  0.00     0.000 HD 
BRANCH   7  10
HETATM   10  C   UNL     1     -11.943  14.104  64.351  1.00  0.00    -0.457 C  
BRANCH  10  11
HETATM   11  O   UNL     1     -12.446  13.367  65.475  1.00  0.00    -0.453 OA 
BRANCH  11  12
HETATM   12  C   UNL     1     -11.711  12.264  65.817  1.00  0.00    -0.385 A  
HETATM   13  C   UNL     1     -10.898  11.550  64.943  1.00  0.00    -0.345 A  
HETATM   14  C   UNL     1     -10.189  10.435  65.395  1.00  0.00    -0.329 A  
HETATM   15  C   UNL     1     -10.262  10.030  66.736  1.00  0.00    -0.295 A  
HETATM   16  C   UNL     1     -11.067  10.765  67.614  1.00  0.00    -0.384 A  
HETATM   17  C   UNL     1     -11.782  11.878  67.158  1.00  0.00    -0.311 A  
BRANCH  15  18
HETATM   18  C   UNL     1      -9.490   8.823  67.211  1.00  0.00    -0.200 C  
BRANCH  18  19
HETATM   19  C   UNL     1     -10.196   8.094  68.356  1.00  0.00    -0.209 C  
BRANCH  19  20
HETATM   20  O   UNL     1      -9.486   8.309  69.579  1.00  0.00    -0.161 OA 
BRANCH  20  21
HETATM   21  C   UNL     1     -10.030   7.498  70.621  1.00  0.00    -0.183 C  
BRANCH  21  22
HETATM   22  C   UNL     1     -11.425   7.947  70.914  1.00  0.00    -0.294 C  
HETATM   23  C   UNL     1     -11.829   8.223  72.341  1.00  0.00    -0.461 C  
HETATM   24  C   UNL     1     -11.707   9.358  71.364  1.00  0.00    -0.448 C  
ENDBRANCH  21  22
ENDBRANCH  20  21
ENDBRANCH  19  20
ENDBRANCH  18  19
ENDBRANCH  15  18
ENDBRANCH  11  12
ENDBRANCH  10  11
ENDBRANCH   7  10
ENDBRANCH   6   7
ENDBRANCH   4   6
ENDBRANCH   2   4
TORSDOF 11
ENDMDL
MODEL       30
REMARK 921   NORMALIZED FREE ENERGY PREDICTED BY IDOCK:   -5.05 KCAL/MOL
REMARK 922        TOTAL FREE ENERGY PREDICTED BY IDOCK:   -9.61 KCAL/MOL
REMARK 923 INTER-LIGAND FREE ENERGY PREDICTED BY IDOCK:   -8.44 KCAL/MOL
REMARK 924 INTRA-LIGAND FREE ENERGY PREDICTED BY IDOCK:   -1.18 KCAL/MOL
REMARK 927      BINDING AFFINITY PREDICTED BY RF-SCORE:    0.00 PKD
ROOT
HETATM    1  C   UNL     1     -12.104  13.932  66.868  1.00  0.00    -0.467 C  
HETATM    2  C   UNL     1     -11.481  14.747  68.004  1.00  0.00    -0.331 C  
HETATM    3  C   UNL     1     -10.810  15.996  67.427  1.00  0.00    -0.277 C  
ENDROOT
BRANCH   2   4
HETATM    4  N   UNL     1     -12.534  15.091  68.962  1.00  0.00    -0.578 NA 
HETATM    5  H   UNL     1     -13.152  14.296  69.121  1.00  0.00     0.000 HD 
BRANCH   4   6
HETATM    6  C   UNL     1     -12.015  15.611  70.236  1.00  0.00    -0.374 C  
BRANCH   6   7
HETATM    7  C   UNL     1     -13.005  15.313  71.375  1.00  0.00    -0.431 C  
HETATM    8  O   UNL     1     -14.353  15.450  70.892  1.00  0.00    -0.844 OA 
HETATM    9  H   UNL     1     -14.964  15.265  71.596  1.00  0.00     0.000 HD 
BRANCH   7  10
HETATM   10  C   UNL     1     -12.806  13.897  71.933  1.00  0.00    -0.322 C  
BRANCH  10  11
HETATM   11  O   UNL     1     -12.332  13.043  70.881  1.00  0.00    -0.366 OA 
BRANCH  11  12
HETATM   12  C   UNL     1     -12.393  11.703  71.153  1.00  0.00    -0.246 A  
HETATM   13  C   UNL     1     -13.360  11.098  71.950  1.00  0.00    -0.409 A  
HETATM   14  C   UNL     1     -13.332   9.719  72.165  1.00  0.00    -0.527 A  
HETATM   15  C   UNL     1     -12.350   8.917  71.565  1.00  0.00    -0.381 A  
HETATM   16  C   UNL     1     -11.392   9.529  70.750  1.00  0.00    -0.387 A  
HETATM   17  C   UNL     1     -11.418  10.913  70.540  1.00  0.00    -0.314 A  
BRANCH  15  18
HETATM   18  C   UNL     1     -12.330   7.427  71.806  1.00  0.00    -0.365 C  
BRANCH  18  19
HETATM   19  C   UNL     1     -10.967   6.805  71.503  1.00  0.00    -0.240 C  
BRANCH  19  20
HETATM   20  O   UNL     1     -11.129   5.670  70.649  1.00  0.00    -0.247 OA 
BRANCH  20  21
HETATM   21  C   UNL     1     -10.293   5.787  69.497  1.00  0.00    -0.263 C  
BRANCH  21  22
HETATM   22  C   UNL     1     -11.079   6.394  68.381  1.00  0.00    -0.374 C  
HETATM   23  C   UNL     1     -10.502   7.561  67.619  1.00  0.00    -0.319 C  
HETATM   24  C   UNL     1     -10.648   6.225  66.946  1.00  0.00    -0.374 C  
ENDBRANCH  21  22
ENDBRANCH  20  21
ENDBRANCH  19  20
ENDBRANCH  18  19
ENDBRANCH  15  18
ENDBRANCH  11  12
ENDBRANCH  10  11
ENDBRANCH   7  10
ENDBRANCH   6   7
ENDBRANCH   4   6
ENDBRANCH   2   4
TORSDOF 11
ENDMDL
MODEL       31
REMARK 921   NORMALIZED FREE ENERGY PREDICTED BY IDOCK:   -5.05 KCAL/MOL
REMARK 922        TOTAL FREE ENERGY PREDICTED BY IDOCK:   -9.61 KCAL/MOL
REMARK 923 INTER-LIGAND FREE ENERGY PREDICTED BY IDOCK:   -8.09 KCAL/MOL
REMARK 924 INTRA-LIGAND FREE ENERGY PREDICTED BY IDOCK:   -1.53 KCAL/MOL
REMARK 927      BINDING AFFINITY PREDICTED BY RF-SCORE:    0.00 PKD
ROOT
HETATM    1  C   UNL     1     -11.317  10.590  70.388  1.00  0.00    -0.411 C  
HETATM    2  C   UNL     1     -12.681  11.080  70.881  1.00  0.00    -0.358 C  
HETATM    3  C   UNL     1     -13.183  10.158  71.994  1.00  0.00    -0.534 C  
ENDROOT
BRANCH   2   4
HETATM    4  N   UNL     1     -12.538  12.462  71.346  1.00  0.00    -0.264 NA 
HETATM    5  H   UNL     1     -12.442  13.101  70.556  1.00  0.00     0.000 HD 
BRANCH   4   6
HETATM    6  C   UNL     1     -13.626  12.892  72.237  1.00  0.00    -0.515 C  
BRANCH   6   7
HETATM    7  C   UNL     1     -13.582  14.418  72.431  1.00  0.00    -0.480 C  
HETATM    8  O   UNL     1     -12.461  14.768  73.261  1.00  0.00    -0.406 OA 
HETATM    9  H   UNL     1     -12.435  15.710  73.380  1.00  0.00     0.000 HD 
BRANCH   7  10
HETATM   10  C   UNL     1     -13.468  15.150  71.086  1.00  0.00    -0.465 C  
BRANCH  10  11
HETATM   11  O   UNL     1     -12.087  15.446  70.832  1.00  0.00    -0.302 OA 
BRANCH  11  12
HETATM   12  C   UNL     1     -11.730  15.447  69.510  1.00  0.00    -0.346 A  
HETATM   13  C   UNL     1     -10.951  16.424  68.900  1.00  0.00    -0.332 A  
HETATM   14  C   UNL     1     -10.643  16.331  67.542  1.00  0.00    -0.310 A  
HETATM   15  C   UNL     1     -11.089  15.244  66.775  1.00  0.00    -0.278 A  
HETATM   16  C   UNL     1     -11.856  14.254  67.401  1.00  0.00    -0.441 A  
HETATM   17  C   UNL     1     -12.168  14.353  68.761  1.00  0.00    -0.200 A  
BRANCH  15  18
HETATM   18  C   UNL     1     -10.749  15.155  65.307  1.00  0.00    -0.422 C  
BRANCH  18  19
HETATM   19  C   UNL     1     -11.757  14.310  64.526  1.00  0.00    -0.418 C  
BRANCH  19  20
HETATM   20  O   UNL     1     -11.097  13.185  63.940  1.00  0.00    -0.388 OA 
BRANCH  20  21
HETATM   21  C   UNL     1     -11.570  11.969  64.521  1.00  0.00    -0.317 C  
BRANCH  21  22
HETATM   22  C   UNL     1     -10.403  11.169  65.000  1.00  0.00    -0.362 C  
HETATM   23  C   UNL     1      -9.459  11.770  66.013  1.00  0.00    -0.245 C  
HETATM   24  C   UNL     1     -10.356  10.629  66.407  1.00  0.00    -0.291 C  
ENDBRANCH  21  22
ENDBRANCH  20  21
ENDBRANCH  19  20
ENDBRANCH  18  19
ENDBRANCH  15  18
ENDBRANCH  11  12
ENDBRANCH  10  11
ENDBRANCH   7  10
ENDBRANCH   6   7
ENDBRANCH   4   6
ENDBRANCH   2   4
TORSDOF 11
ENDMDL
MODEL       32
REMARK 921   NORMALIZED FREE ENERGY PREDICTED BY IDOCK:   -5.04 KCAL/MOL
REMARK 922        TOTAL FREE ENERGY PREDICTED BY IDOCK:   -9.61 KCAL/MOL
REMARK 923 INTER-LIGAND FREE ENERGY PREDICTED BY IDOCK:   -7.70 KCAL/MOL
REMARK 924 INTRA-LIGAND FREE ENERGY PREDICTED BY IDOCK:   -1.91 KCAL/MOL
REMARK 927      BINDING AFFINITY PREDICTED BY RF-SCORE:    0.00 PKD
ROOT
HETATM    1  C   UNL     1     -12.550  13.805  65.424  1.00  0.00    -0.534 C  
HETATM    2  C   UNL     1     -11.554  14.543  64.526  1.00  0.00    -0.377 C  
HETATM    3  C   UNL     1     -10.788  15.576  65.354  1.00  0.00    -0.402 C  
ENDROOT
BRANCH   2   4
HETATM    4  N   UNL     1     -10.655  13.557  63.922  1.00  0.00    -0.519 NA 
HETATM    5  H   UNL     1      -9.835  13.407  64.509  1.00  0.00     0.000 HD 
BRANCH   4   6
HETATM    6  C   UNL     1     -11.315  12.280  63.611  1.00  0.00    -0.470 C  
BRANCH   6   7
HETATM    7  C   UNL     1     -10.265  11.170  63.427  1.00  0.00    -0.380 C  
HETATM    8  O   UNL     1      -9.059  11.732  62.880  1.00  0.00    -0.635 OA 
HETATM    9  H   UNL     1      -8.411  11.047  62.766  1.00  0.00     0.000 HD 
BRANCH   7  10
HETATM   10  C   UNL     1      -9.945  10.475  64.757  1.00  0.00    -0.345 C  
BRANCH  10  11
HETATM   11  O   UNL     1      -9.344  11.426  65.648  1.00  0.00    -0.223 OA 
BRANCH  11  12
HETATM   12  C   UNL     1      -9.991  11.587  66.844  1.00  0.00    -0.205 A  
HETATM   13  C   UNL     1      -9.860  12.696  67.673  1.00  0.00    -0.210 A  
HETATM   14  C   UNL     1     -10.567  12.762  68.875  1.00  0.00    -0.154 A  
HETATM   15  C   UNL     1     -11.436  11.729  69.257  1.00  0.00    -0.369 A  
HETATM   16  C   UNL     1     -11.576  10.625  68.409  1.00  0.00    -0.269 A  
HETATM   17  C   UNL     1     -10.863  10.558  67.207  1.00  0.00    -0.338 A  
BRANCH  15  18
HETATM   18  C   UNL     1     -12.194  11.812  70.560  1.00  0.00    -0.438 C  
BRANCH  18  19
HETATM   19  C   UNL     1     -12.905  10.504  70.905  1.00  0.00    -0.394 C  
BRANCH  19  20
HETATM   20  O   UNL     1     -12.129   9.762  71.849  1.00  0.00    -0.375 OA 
BRANCH  20  21
HETATM   21  C   UNL     1     -12.037   8.392  71.455  1.00  0.00    -0.301 C  
BRANCH  21  22
HETATM   22  C   UNL     1     -10.683   8.140  70.875  1.00  0.00    -0.246 C  
HETATM   23  C   UNL     1      -9.528   9.022  71.280  1.00  0.00    -0.339 C  
HETATM   24  C   UNL     1      -9.566   7.586  71.723  1.00  0.00    -0.178 C  
ENDBRANCH  21  22
ENDBRANCH  20  21
ENDBRANCH  19  20
ENDBRANCH  18  19
ENDBRANCH  15  18
ENDBRANCH  11  12
ENDBRANCH  10  11
ENDBRANCH   7  10
ENDBRANCH   6   7
ENDBRANCH   4   6
ENDBRANCH   2   4
TORSDOF 11
ENDMDL
MODEL       33
REMARK 921   NORMALIZED FREE ENERGY PREDICTED BY IDOCK:   -5.01 KCAL/MOL
REMARK 922        TOTAL FREE ENERGY PREDICTED BY IDOCK:   -9.55 KCAL/MOL
REMARK 923 INTER-LIGAND FREE ENERGY PREDICTED BY IDOCK:   -7.64 KCAL/MOL
REMARK 924 INTRA-LIGAND FREE ENERGY PREDICTED BY IDOCK:   -1.91 KCAL/MOL
REMARK 927      BINDING AFFINITY PREDICTED BY RF-SCORE:    0.00 PKD
ROOT
HETATM    1  C   UNL     1     -10.544   5.656  71.009  1.00  0.00    -0.318 C  
HETATM    2  C   UNL     1     -11.551   6.727  70.581  1.00  0.00    -0.370 C  
HETATM    3  C   UNL     1     -11.097   8.092  71.104  1.00  0.00    -0.279 C  
ENDROOT
BRANCH   2   4
HETATM    4  N   UNL     1     -11.652   6.712  69.119  1.00  0.00    -0.628 NA 
HETATM    5  H   UNL     1     -11.656   7.662  68.747  1.00  0.00     0.000 HD 
BRANCH   4   6
HETATM    6  C   UNL     1     -10.610   5.901  68.472  1.00  0.00    -0.252 C  
BRANCH   6   7
HETATM    7  C   UNL     1     -10.358   6.404  67.040  1.00  0.00    -0.244 C  
HETATM    8  O   UNL     1     -11.217   5.703  66.124  1.00  0.00    -0.763 OA 
HETATM    9  H   UNL     1     -11.061   6.015  65.240  1.00  0.00     0.000 HD 
BRANCH   7  10
HETATM   10  C   UNL     1     -10.613   7.913  66.924  1.00  0.00    -0.263 C  
BRANCH  10  11
HETATM   11  O   UNL     1      -9.742   8.605  67.830  1.00  0.00    -0.152 OA 
BRANCH  11  12
HETATM   12  C   UNL     1      -9.984   9.947  67.954  1.00  0.00    -0.160 A  
HETATM   13  C   UNL     1      -9.035  10.945  67.763  1.00  0.00    -0.139 A  
HETATM   14  C   UNL     1      -9.387  12.287  67.915  1.00  0.00    -0.190 A  
HETATM   15  C   UNL     1     -10.702  12.656  68.236  1.00  0.00    -0.248 A  
HETATM   16  C   UNL     1     -11.655  11.647  68.408  1.00  0.00    -0.376 A  
HETATM   17  C   UNL     1     -11.300  10.301  68.262  1.00  0.00    -0.245 A  
BRANCH  15  18
HETATM   18  C   UNL     1     -11.069  14.111  68.398  1.00  0.00    -0.273 C  
BRANCH  18  19
HETATM   19  C   UNL     1     -11.277  14.812  67.055  1.00  0.00    -0.345 C  
BRANCH  19  20
HETATM   20  O   UNL     1     -12.474  14.332  66.437  1.00  0.00    -0.441 OA 
BRANCH  20  21
HETATM   21  C   UNL     1     -12.249  14.062  65.053  1.00  0.00    -0.433 C  
BRANCH  21  22
HETATM   22  C   UNL     1     -12.310  12.586  64.827  1.00  0.00    -0.544 C  
HETATM   23  C   UNL     1     -12.067  12.039  63.442  1.00  0.00    -0.597 C  
HETATM   24  C   UNL     1     -11.062  11.793  64.532  1.00  0.00    -0.376 C  
ENDBRANCH  21  22
ENDBRANCH  20  21
ENDBRANCH  19  20
ENDBRANCH  18  19
ENDBRANCH  15  18
ENDBRANCH  11  12
ENDBRANCH  10  11
ENDBRANCH   7  10
ENDBRANCH   6   7
ENDBRANCH   4   6
ENDBRANCH   2   4
TORSDOF 11
ENDMDL
MODEL       34
REMARK 921   NORMALIZED FREE ENERGY PREDICTED BY IDOCK:   -5.00 KCAL/MOL
REMARK 922        TOTAL FREE ENERGY PREDICTED BY IDOCK:   -9.54 KCAL/MOL
REMARK 923 INTER-LIGAND FREE ENERGY PREDICTED BY IDOCK:   -8.39 KCAL/MOL
REMARK 924 INTRA-LIGAND FREE ENERGY PREDICTED BY IDOCK:   -1.16 KCAL/MOL
REMARK 927      BINDING AFFINITY PREDICTED BY RF-SCORE:    0.00 PKD
ROOT
HETATM    1  C   UNL     1      -8.723  10.980  62.416  1.00  0.00    -0.356 C  
HETATM    2  C   UNL     1      -9.919  11.037  63.370  1.00  0.00    -0.380 C  
HETATM    3  C   UNL     1      -9.648  10.142  64.582  1.00  0.00    -0.379 C  
ENDROOT
BRANCH   2   4
HETATM    4  N   UNL     1     -10.134  12.432  63.763  1.00  0.00    -0.550 NA 
HETATM    5  H   UNL     1      -9.544  13.057  63.215  1.00  0.00     0.000 HD 
BRANCH   4   6
HETATM    6  C   UNL     1     -11.544  12.846  63.689  1.00  0.00    -0.485 C  
BRANCH   6   7
HETATM    7  C   UNL     1     -11.880  13.793  64.854  1.00  0.00    -0.375 C  
HETATM    8  O   UNL     1     -13.277  13.683  65.177  1.00  0.00    -0.739 OA 
HETATM    9  H   UNL     1     -13.485  14.268  65.897  1.00  0.00     0.000 HD 
BRANCH   7  10
HETATM   10  C   UNL     1     -11.043  13.469  66.099  1.00  0.00    -0.291 C  
BRANCH  10  11
HETATM   11  O   UNL     1     -11.845  13.682  67.270  1.00  0.00    -0.355 OA 
BRANCH  11  12
HETATM   12  C   UNL     1     -11.752  12.701  68.220  1.00  0.00    -0.342 A  
HETATM   13  C   UNL     1     -11.324  11.400  67.977  1.00  0.00    -0.372 A  
HETATM   14  C   UNL     1     -11.265  10.473  69.019  1.00  0.00    -0.316 A  
HETATM   15  C   UNL     1     -11.610  10.839  70.329  1.00  0.00    -0.427 A  
HETATM   16  C   UNL     1     -12.022  12.155  70.569  1.00  0.00    -0.308 A  
HETATM   17  C   UNL     1     -12.086  13.081  69.522  1.00  0.00    -0.289 A  
BRANCH  15  18
HETATM   18  C   UNL     1     -11.543   9.827  71.447  1.00  0.00    -0.452 C  
BRANCH  18  19
HETATM   19  C   UNL     1     -12.875   9.109  71.664  1.00  0.00    -0.363 C  
BRANCH  19  20
HETATM   20  O   UNL     1     -12.800   7.777  71.150  1.00  0.00    -0.262 OA 
BRANCH  20  21
HETATM   21  C   UNL     1     -11.913   6.985  71.941  1.00  0.00    -0.320 C  
BRANCH  21  22
HETATM   22  C   UNL     1     -11.117   6.096  71.041  1.00  0.00    -0.359 C  
HETATM   23  C   UNL     1     -11.156   6.325  69.551  1.00  0.00    -0.476 C  
HETATM   24  C   UNL     1      -9.897   6.611  70.321  1.00  0.00    -0.188 C  
ENDBRANCH  21  22
ENDBRANCH  20  21
ENDBRANCH  19  20
ENDBRANCH  18  19
ENDBRANCH  15  18
ENDBRANCH  11  12
ENDBRANCH  10  11
ENDBRANCH   7  10
ENDBRANCH   6   7
ENDBRANCH   4   6
ENDBRANCH   2   4
TORSDOF 11
ENDMDL
MODEL       35
REMARK 921   NORMALIZED FREE ENERGY PREDICTED BY IDOCK:   -4.99 KCAL/MOL
REMARK 922        TOTAL FREE ENERGY PREDICTED BY IDOCK:   -9.52 KCAL/MOL
REMARK 923 INTER-LIGAND FREE ENERGY PREDICTED BY IDOCK:   -8.04 KCAL/MOL
REMARK 924 INTRA-LIGAND FREE ENERGY PREDICTED BY IDOCK:   -1.48 KCAL/MOL
REMARK 927      BINDING AFFINITY PREDICTED BY RF-SCORE:    0.00 PKD
ROOT
HETATM    1  C   UNL     1      -9.892  10.809  64.037  1.00  0.00    -0.390 C  
HETATM    2  C   UNL     1     -10.589  12.110  63.631  1.00  0.00    -0.461 C  
HETATM    3  C   UNL     1     -12.089  11.856  63.467  1.00  0.00    -0.575 C  
ENDROOT
BRANCH   2   4
HETATM    4  N   UNL     1     -10.319  13.121  64.657  1.00  0.00    -0.473 NA 
HETATM    5  H   UNL     1      -9.347  13.427  64.617  1.00  0.00     0.000 HD 
BRANCH   4   6
HETATM    6  C   UNL     1     -11.232  14.273  64.593  1.00  0.00    -0.366 C  
BRANCH   6   7
HETATM    7  C   UNL     1     -11.988  14.426  65.925  1.00  0.00    -0.359 C  
HETATM    8  O   UNL     1     -13.374  14.093  65.734  1.00  0.00    -0.677 OA 
HETATM    9  H   UNL     1     -13.840  14.187  66.556  1.00  0.00     0.000 HD 
BRANCH   7  10
HETATM   10  C   UNL     1     -11.393  13.522  67.013  1.00  0.00    -0.324 C  
BRANCH  10  11
HETATM   11  O   UNL     1     -12.155  12.308  67.080  1.00  0.00    -0.560 OA 
BRANCH  11  12
HETATM   12  C   UNL     1     -11.644  11.351  67.915  1.00  0.00    -0.266 A  
HETATM   13  C   UNL     1     -10.648  10.444  67.567  1.00  0.00    -0.312 A  
HETATM   14  C   UNL     1     -10.197   9.505  68.496  1.00  0.00    -0.223 A  
HETATM   15  C   UNL     1     -10.716   9.473  69.799  1.00  0.00    -0.259 A  
HETATM   16  C   UNL     1     -11.704  10.401  70.147  1.00  0.00    -0.394 A  
HETATM   17  C   UNL     1     -12.160  11.338  69.213  1.00  0.00    -0.372 A  
BRANCH  15  18
HETATM   18  C   UNL     1     -10.220   8.452  70.794  1.00  0.00    -0.227 C  
BRANCH  18  19
HETATM   19  C   UNL     1     -11.261   7.372  71.089  1.00  0.00    -0.258 C  
BRANCH  19  20
HETATM   20  O   UNL     1     -11.564   6.649  69.894  1.00  0.00    -0.371 OA 
BRANCH  20  21
HETATM   21  C   UNL     1     -10.542   5.691  69.616  1.00  0.00    -0.331 C  
BRANCH  21  22
HETATM   22  C   UNL     1      -9.999   5.938  68.246  1.00  0.00    -0.177 C  
HETATM   23  C   UNL     1     -10.220   4.909  67.165  1.00  0.00    -0.211 C  
HETATM   24  C   UNL     1     -10.918   6.238  67.089  1.00  0.00    -0.453 C  
ENDBRANCH  21  22
ENDBRANCH  20  21
ENDBRANCH  19  20
ENDBRANCH  18  19
ENDBRANCH  15  18
ENDBRANCH  11  12
ENDBRANCH  10  11
ENDBRANCH   7  10
ENDBRANCH   6   7
ENDBRANCH   4   6
ENDBRANCH   2   4
TORSDOF 11
ENDMDL
MODEL       36
REMARK 921   NORMALIZED FREE ENERGY PREDICTED BY IDOCK:   -4.99 KCAL/MOL
REMARK 922        TOTAL FREE ENERGY PREDICTED BY IDOCK:   -9.52 KCAL/MOL
REMARK 923 INTER-LIGAND FREE ENERGY PREDICTED BY IDOCK:   -8.37 KCAL/MOL
REMARK 924 INTRA-LIGAND FREE ENERGY PREDICTED BY IDOCK:   -1.15 KCAL/MOL
REMARK 927      BINDING AFFINITY PREDICTED BY RF-SCORE:    0.00 PKD
ROOT
HETATM    1  C   UNL     1     -12.258  13.398  63.538  1.00  0.00    -0.468 C  
HETATM    2  C   UNL     1     -12.129  12.080  64.307  1.00  0.00    -0.322 C  
HETATM    3  C   UNL     1     -10.864  11.348  63.855  1.00  0.00    -0.463 C  
ENDROOT
BRANCH   2   4
HETATM    4  N   UNL     1     -12.101  12.380  65.741  1.00  0.00    -0.610 NA 
HETATM    5  H   UNL     1     -11.632  11.635  66.256  1.00  0.00     0.000 HD 
BRANCH   4   6
HETATM    6  C   UNL     1     -11.502  13.687  66.050  1.00  0.00    -0.324 C  
BRANCH   6   7
HETATM    7  C   UNL     1     -10.084  13.500  66.619  1.00  0.00    -0.277 C  
HETATM    8  O   UNL     1      -9.201  14.479  66.045  1.00  0.00    -0.487 OA 
HETATM    9  H   UNL     1      -8.325  14.363  66.397  1.00  0.00     0.000 HD 
BRANCH   7  10
HETATM   10  C   UNL     1     -10.072  13.638  68.148  1.00  0.00    -0.245 C  
BRANCH  10  11
HETATM   11  O   UNL     1     -11.425  13.726  68.619  1.00  0.00    -0.259 OA 
BRANCH  11  12
HETATM   12  C   UNL     1     -11.827  12.690  69.418  1.00  0.00    -0.296 A  
HETATM   13  C   UNL     1     -11.577  11.346  69.160  1.00  0.00    -0.381 A  
HETATM   14  C   UNL     1     -12.033  10.364  70.041  1.00  0.00    -0.324 A  
HETATM   15  C   UNL     1     -12.725  10.712  71.211  1.00  0.00    -0.537 A  
HETATM   16  C   UNL     1     -12.955  12.067  71.474  1.00  0.00    -0.407 A  
HETATM   17  C   UNL     1     -12.503  13.049  70.586  1.00  0.00    -0.347 A  
BRANCH  15  18
HETATM   18  C   UNL     1     -13.212   9.640  72.156  1.00  0.00    -0.535 C  
BRANCH  18  19
HETATM   19  C   UNL     1     -12.203   8.504  72.319  1.00  0.00    -0.389 C  
BRANCH  19  20
HETATM   20  O   UNL     1     -12.748   7.291  71.794  1.00  0.00    -0.332 OA 
BRANCH  20  21
HETATM   21  C   UNL     1     -11.703   6.391  71.423  1.00  0.00    -0.306 C  
BRANCH  21  22
HETATM   22  C   UNL     1     -11.520   6.436  69.941  1.00  0.00    -0.483 C  
HETATM   23  C   UNL     1     -10.287   7.087  69.367  1.00  0.00    -0.218 C  
HETATM   24  C   UNL     1     -10.466   5.599  69.262  1.00  0.00    -0.356 C  
ENDBRANCH  21  22
ENDBRANCH  20  21
ENDBRANCH  19  20
ENDBRANCH  18  19
ENDBRANCH  15  18
ENDBRANCH  11  12
ENDBRANCH  10  11
ENDBRANCH   7  10
ENDBRANCH   6   7
ENDBRANCH   4   6
ENDBRANCH   2   4
TORSDOF 11
ENDMDL
MODEL       37
REMARK 921   NORMALIZED FREE ENERGY PREDICTED BY IDOCK:   -4.98 KCAL/MOL
REMARK 922        TOTAL FREE ENERGY PREDICTED BY IDOCK:   -9.50 KCAL/MOL
REMARK 923 INTER-LIGAND FREE ENERGY PREDICTED BY IDOCK:   -8.42 KCAL/MOL
REMARK 924 INTRA-LIGAND FREE ENERGY PREDICTED BY IDOCK:   -1.08 KCAL/MOL
REMARK 927      BINDING AFFINITY PREDICTED BY RF-SCORE:    0.00 PKD
ROOT
HETATM    1  C   UNL     1     -10.919   6.297  67.257  1.00  0.00    -0.455 C  
HETATM    2  C   UNL     1     -10.289   6.253  68.651  1.00  0.00    -0.206 C  
HETATM    3  C   UNL     1      -9.298   7.409  68.800  1.00  0.00    -0.144 C  
ENDROOT
BRANCH   2   4
HETATM    4  N   UNL     1     -11.361   6.326  69.648  1.00  0.00    -0.442 NA 
HETATM    5  H   UNL     1     -12.173   5.789  69.345  1.00  0.00     0.000 HD 
BRANCH   4   6
HETATM    6  C   UNL     1     -10.933   5.912  70.993  1.00  0.00    -0.266 C  
BRANCH   6   7
HETATM    7  C   UNL     1     -11.959   6.375  72.042  1.00  0.00    -0.326 C  
HETATM    8  O   UNL     1     -11.282   6.701  73.268  1.00  0.00    -0.479 OA 
HETATM    9  H   UNL     1     -11.916   6.986  73.916  1.00  0.00     0.000 HD 
BRANCH   7  10
HETATM   10  C   UNL     1     -12.745   7.599  71.554  1.00  0.00    -0.345 C  
BRANCH  10  11
HETATM   11  O   UNL     1     -12.251   8.769  72.224  1.00  0.00    -0.364 OA 
BRANCH  11  12
HETATM   12  C   UNL     1     -12.185   9.894  71.447  1.00  0.00    -0.408 A  
HETATM   13  C   UNL     1     -12.912  11.058  71.674  1.00  0.00    -0.561 A  
HETATM   14  C   UNL     1     -12.771  12.153  70.820  1.00  0.00    -0.220 A  
HETATM   15  C   UNL     1     -11.879  12.111  69.737  1.00  0.00    -0.397 A  
HETATM   16  C   UNL     1     -11.137  10.944  69.527  1.00  0.00    -0.326 A  
HETATM   17  C   UNL     1     -11.284   9.845  70.381  1.00  0.00    -0.379 A  
BRANCH  15  18
HETATM   18  C   UNL     1     -11.735  13.302  68.821  1.00  0.00    -0.366 C  
BRANCH  18  19
HETATM   19  C   UNL     1     -11.089  14.499  69.518  1.00  0.00    -0.253 C  
BRANCH  19  20
HETATM   20  O   UNL     1     -12.078  15.495  69.793  1.00  0.00    -0.351 OA 
BRANCH  20  21
HETATM   21  C   UNL     1     -11.855  16.081  71.076  1.00  0.00    -0.394 C  
BRANCH  21  22
HETATM   22  C   UNL     1     -12.544  15.260  72.116  1.00  0.00    -0.428 C  
HETATM   23  C   UNL     1     -13.319  15.950  73.211  1.00  0.00    -0.660 C  
HETATM   24  C   UNL     1     -14.048  15.164  72.159  1.00  0.00    -0.654 C  
ENDBRANCH  21  22
ENDBRANCH  20  21
ENDBRANCH  19  20
ENDBRANCH  18  19
ENDBRANCH  15  18
ENDBRANCH  11  12
ENDBRANCH  10  11
ENDBRANCH   7  10
ENDBRANCH   6   7
ENDBRANCH   4   6
ENDBRANCH   2   4
TORSDOF 11
ENDMDL
MODEL       38
REMARK 921   NORMALIZED FREE ENERGY PREDICTED BY IDOCK:   -4.97 KCAL/MOL
REMARK 922        TOTAL FREE ENERGY PREDICTED BY IDOCK:   -9.50 KCAL/MOL
REMARK 923 INTER-LIGAND FREE ENERGY PREDICTED BY IDOCK:   -8.34 KCAL/MOL
REMARK 924 INTRA-LIGAND FREE ENERGY PREDICTED BY IDOCK:   -1.15 KCAL/MOL
REMARK 927      BINDING AFFINITY PREDICTED BY RF-SCORE:    0.00 PKD
ROOT
HETATM    1  C   UNL     1     -10.023  17.159  67.320  1.00  0.00    -0.274 C  
HETATM    2  C   UNL     1      -9.528  16.399  66.088  1.00  0.00    -0.329 C  
HETATM    3  C   UNL     1      -8.911  15.067  66.523  1.00  0.00    -0.310 C  
ENDROOT
BRANCH   2   4
HETATM    4  N   UNL     1     -10.660  16.201  65.178  1.00  0.00    -0.609 NA 
HETATM    5  H   UNL     1     -10.663  16.910  64.445  1.00  0.00     0.000 HD 
BRANCH   4   6
HETATM    6  C   UNL     1     -10.712  14.850  64.599  1.00  0.00    -0.234 C  
BRANCH   6   7
HETATM    7  C   UNL     1     -12.167  14.351  64.547  1.00  0.00    -0.463 C  
HETATM    8  O   UNL     1     -12.470  13.886  63.220  1.00  0.00    -1.113 OA 
HETATM    9  H   UNL     1     -13.368  13.577  63.189  1.00  0.00     0.000 HD 
BRANCH   7  10
HETATM   10  C   UNL     1     -12.404  13.215  65.551  1.00  0.00    -0.474 C  
BRANCH  10  11
HETATM   11  O   UNL     1     -12.082  13.682  66.869  1.00  0.00    -0.397 OA 
BRANCH  11  12
HETATM   12  C   UNL     1     -11.857  12.696  67.793  1.00  0.00    -0.323 A  
HETATM   13  C   UNL     1     -11.384  11.423  67.494  1.00  0.00    -0.362 A  
HETATM   14  C   UNL     1     -11.189  10.489  68.513  1.00  0.00    -0.332 A  
HETATM   15  C   UNL     1     -11.440  10.821  69.853  1.00  0.00    -0.398 A  
HETATM   16  C   UNL     1     -11.897  12.110  70.147  1.00  0.00    -0.368 A  
HETATM   17  C   UNL     1     -12.099  13.044  69.124  1.00  0.00    -0.234 A  
BRANCH  15  18
HETATM   18  C   UNL     1     -11.225   9.802  70.945  1.00  0.00    -0.429 C  
BRANCH  18  19
HETATM   19  C   UNL     1     -10.509   8.548  70.440  1.00  0.00    -0.207 C  
BRANCH  19  20
HETATM   20  O   UNL     1     -11.467   7.530  70.139  1.00  0.00    -0.215 OA 
BRANCH  20  21
HETATM   21  C   UNL     1     -10.841   6.439  69.462  1.00  0.00    -0.321 C  
BRANCH  21  22
HETATM   22  C   UNL     1     -11.282   6.431  68.035  1.00  0.00    -0.260 C  
HETATM   23  C   UNL     1     -10.407   7.072  66.986  1.00  0.00    -0.360 C  
HETATM   24  C   UNL     1     -10.577   5.579  67.009  1.00  0.00    -0.332 C  
ENDBRANCH  21  22
ENDBRANCH  20  21
ENDBRANCH  19  20
ENDBRANCH  18  19
ENDBRANCH  15  18
ENDBRANCH  11  12
ENDBRANCH  10  11
ENDBRANCH   7  10
ENDBRANCH   6   7
ENDBRANCH   4   6
ENDBRANCH   2   4
TORSDOF 11
ENDMDL
MODEL       39
REMARK 921   NORMALIZED FREE ENERGY PREDICTED BY IDOCK:   -4.97 KCAL/MOL
REMARK 922        TOTAL FREE ENERGY PREDICTED BY IDOCK:   -9.49 KCAL/MOL
REMARK 923 INTER-LIGAND FREE ENERGY PREDICTED BY IDOCK:   -8.31 KCAL/MOL
REMARK 924 INTRA-LIGAND FREE ENERGY PREDICTED BY IDOCK:   -1.17 KCAL/MOL
REMARK 927      BINDING AFFINITY PREDICTED BY RF-SCORE:    0.00 PKD
ROOT
HETATM    1  C   UNL     1     -12.512   8.663  72.317  1.00  0.00    -0.460 C  
HETATM    2  C   UNL     1     -12.848   9.500  71.080  1.00  0.00    -0.284 C  
HETATM    3  C   UNL     1     -12.873  10.982  71.459  1.00  0.00    -0.555 C  
ENDROOT
BRANCH   2   4
HETATM    4  N   UNL     1     -11.849   9.221  70.045  1.00  0.00    -0.450 NA 
HETATM    5  H   UNL     1     -12.212   9.453  69.120  1.00  0.00     0.000 HD 
BRANCH   4   6
HETATM    6  C   UNL     1     -10.561   9.890  70.284  1.00  0.00    -0.301 C  
BRANCH   6   7
HETATM    7  C   UNL     1     -10.001  10.450  68.964  1.00  0.00    -0.214 C  
HETATM    8  O   UNL     1      -8.695   9.897  68.721  1.00  0.00    -0.122 OA 
HETATM    9  H   UNL     1      -8.350  10.243  67.906  1.00  0.00     0.000 HD 
BRANCH   7  10
HETATM   10  C   UNL     1     -10.921  10.121  67.781  1.00  0.00    -0.277 C  
BRANCH  10  11
HETATM   11  O   UNL     1     -12.003  11.064  67.755  1.00  0.00    -0.609 OA 
BRANCH  11  12
HETATM   12  C   UNL     1     -11.685  12.295  67.249  1.00  0.00    -0.324 A  
HETATM   13  C   UNL     1     -11.809  13.494  67.943  1.00  0.00    -0.397 A  
HETATM   14  C   UNL     1     -11.456  14.699  67.333  1.00  0.00    -0.384 A  
HETATM   15  C   UNL     1     -10.948  14.723  66.025  1.00  0.00    -0.328 A  
HETATM   16  C   UNL     1     -10.807  13.511  65.341  1.00  0.00    -0.299 A  
HETATM   17  C   UNL     1     -11.168  12.304  65.951  1.00  0.00    -0.381 A  
BRANCH  15  18
HETATM   18  C   UNL     1     -10.570  16.033  65.377  1.00  0.00    -0.428 C  
BRANCH  18  19
HETATM   19  C   UNL     1      -9.169  16.498  65.778  1.00  0.00    -0.036 C  
BRANCH  19  20
HETATM   20  O   UNL     1      -9.167  17.914  65.980  1.00  0.00    -0.509 OA 
BRANCH  20  21
HETATM   21  C   UNL     1     -10.503  18.408  66.073  1.00  0.00    -0.374 C  
BRANCH  21  22
HETATM   22  C   UNL     1     -10.632  19.242  67.306  1.00  0.00    -0.590 C  
HETATM   23  C   UNL     1      -9.720  18.977  68.478  1.00  0.00    -0.458 C  
HETATM   24  C   UNL     1      -9.569  20.243  67.682  1.00  0.00    -0.530 C  
ENDBRANCH  21  22
ENDBRANCH  20  21
ENDBRANCH  19  20
ENDBRANCH  18  19
ENDBRANCH  15  18
ENDBRANCH  11  12
ENDBRANCH  10  11
ENDBRANCH   7  10
ENDBRANCH   6   7
ENDBRANCH   4   6
ENDBRANCH   2   4
TORSDOF 11
ENDMDL
MODEL       40
REMARK 921   NORMALIZED FREE ENERGY PREDICTED BY IDOCK:   -4.96 KCAL/MOL
REMARK 922        TOTAL FREE ENERGY PREDICTED BY IDOCK:   -9.47 KCAL/MOL
REMARK 923 INTER-LIGAND FREE ENERGY PREDICTED BY IDOCK:   -7.69 KCAL/MOL
REMARK 924 INTRA-LIGAND FREE ENERGY PREDICTED BY IDOCK:   -1.78 KCAL/MOL
REMARK 927      BINDING AFFINITY PREDICTED BY RF-SCORE:    0.00 PKD
ROOT
HETATM    1  C   UNL     1     -10.519  16.456  66.962  1.00  0.00    -0.291 C  
HETATM    2  C   UNL     1     -10.358  16.860  68.430  1.00  0.00    -0.338 C  
HETATM    3  C   UNL     1     -10.112  18.368  68.520  1.00  0.00    -0.413 C  
ENDROOT
BRANCH   2   4
HETATM    4  N   UNL     1     -11.566  16.463  69.157  1.00  0.00    -0.218 NA 
HETATM    5  H   UNL     1     -12.093  15.766  68.630  1.00  0.00     0.000 HD 
BRANCH   4   6
HETATM    6  C   UNL     1     -11.295  15.989  70.522  1.00  0.00    -0.401 C  
BRANCH   6   7
HETATM    7  C   UNL     1     -12.424  15.057  70.996  1.00  0.00    -0.338 C  
HETATM    8  O   UNL     1     -13.690  15.562  70.538  1.00  0.00    -0.837 OA 
HETATM    9  H   UNL     1     -14.387  14.986  70.831  1.00  0.00     0.000 HD 
BRANCH   7  10
HETATM   10  C   UNL     1     -12.226  13.628  70.473  1.00  0.00    -0.368 C  
BRANCH  10  11
HETATM   11  O   UNL     1     -12.260  13.647  69.038  1.00  0.00    -0.334 OA 
BRANCH  11  12
HETATM   12  C   UNL     1     -11.415  12.759  68.428  1.00  0.00    -0.311 A  
HETATM   13  C   UNL     1     -10.151  13.074  67.940  1.00  0.00    -0.235 A  
HETATM   14  C   UNL     1      -9.367  12.092  67.333  1.00  0.00    -0.181 A  
HETATM   15  C   UNL     1      -9.824  10.770  67.226  1.00  0.00    -0.208 A  
HETATM   16  C   UNL     1     -11.089  10.456  67.736  1.00  0.00    -0.365 A  
HETATM   17  C   UNL     1     -11.876  11.444  68.339  1.00  0.00    -0.344 A  
BRANCH  15  18
HETATM   18  C   UNL     1      -8.966   9.717  66.567  1.00  0.00    -0.172 C  
BRANCH  18  19
HETATM   19  C   UNL     1      -9.297   9.540  65.085  1.00  0.00    -0.252 C  
BRANCH  19  20
HETATM   20  O   UNL     1     -10.419  10.355  64.737  1.00  0.00    -0.261 OA 
BRANCH  20  21
HETATM   21  C   UNL     1     -10.115  11.168  63.602  1.00  0.00    -0.379 C  
BRANCH  21  22
HETATM   22  C   UNL     1     -11.150  12.237  63.475  1.00  0.00    -0.533 C  
HETATM   23  C   UNL     1     -12.188  12.396  64.558  1.00  0.00    -0.509 C  
HETATM   24  C   UNL     1     -11.131  13.448  64.373  1.00  0.00    -0.408 C  
ENDBRANCH  21  22
ENDBRANCH  20  21
ENDBRANCH  19  20
ENDBRANCH  18  19
ENDBRANCH  15  18
ENDBRANCH  11  12
ENDBRANCH  10  11
ENDBRANCH   7  10
ENDBRANCH   6   7
ENDBRANCH   4   6
ENDBRANCH   2   4
TORSDOF 11
ENDMDL
MODEL       41
REMARK 921   NORMALIZED FREE ENERGY PREDICTED BY IDOCK:   -4.96 KCAL/MOL
REMARK 922        TOTAL FREE ENERGY PREDICTED BY IDOCK:   -9.47 KCAL/MOL
REMARK 923 INTER-LIGAND FREE ENERGY PREDICTED BY IDOCK:   -8.08 KCAL/MOL
REMARK 924 INTRA-LIGAND FREE ENERGY PREDICTED BY IDOCK:   -1.39 KCAL/MOL
REMARK 927      BINDING AFFINITY PREDICTED BY RF-SCORE:    0.00 PKD
ROOT
HETATM    1  C   UNL     1      -6.642  18.787  66.811  1.00  0.00    -0.206 C  
HETATM    2  C   UNL     1      -6.958  20.011  65.948  1.00  0.00    -0.286 C  
HETATM    3  C   UNL     1      -6.057  20.011  64.711  1.00  0.00    -0.304 C  
ENDROOT
BRANCH   2   4
HETATM    4  N   UNL     1      -8.377  19.971  65.586  1.00  0.00    -0.497 NA 
HETATM    5  H   UNL     1      -8.587  19.137  65.038  1.00  0.00     0.000 HD 
BRANCH   4   6
HETATM    6  C   UNL     1      -9.277  20.075  66.745  1.00  0.00    -0.382 C  
BRANCH   6   7
HETATM    7  C   UNL     1     -10.535  19.217  66.520  1.00  0.00    -0.448 C  
HETATM    8  O   UNL     1     -11.111  19.532  65.241  1.00  0.00    -0.406 OA 
HETATM    9  H   UNL     1     -11.888  19.002  65.102  1.00  0.00     0.000 HD 
BRANCH   7  10
HETATM   10  C   UNL     1     -10.207  17.719  66.576  1.00  0.00    -0.358 C  
BRANCH  10  11
HETATM   11  O   UNL     1     -10.651  17.098  65.360  1.00  0.00    -0.618 OA 
BRANCH  11  12
HETATM   12  C   UNL     1     -10.676  15.729  65.386  1.00  0.00    -0.404 A  
HETATM   13  C   UNL     1     -11.593  14.940  64.700  1.00  0.00    -0.395 A  
HETATM   14  C   UNL     1     -11.531  13.549  64.793  1.00  0.00    -0.365 A  
HETATM   15  C   UNL     1     -10.534  12.921  65.555  1.00  0.00    -0.305 A  
HETATM   16  C   UNL     1      -9.604  13.722  66.227  1.00  0.00    -0.265 A  
HETATM   17  C   UNL     1      -9.670  15.117  66.137  1.00  0.00    -0.338 A  
BRANCH  15  18
HETATM   18  C   UNL     1     -10.479  11.416  65.648  1.00  0.00    -0.316 C  
BRANCH  18  19
HETATM   19  C   UNL     1     -10.849  10.904  67.041  1.00  0.00    -0.266 C  
BRANCH  19  20
HETATM   20  O   UNL     1     -12.028  11.566  67.504  1.00  0.00    -0.629 OA 
BRANCH  20  21
HETATM   21  C   UNL     1     -12.008  11.687  68.927  1.00  0.00    -0.292 C  
BRANCH  21  22
HETATM   22  C   UNL     1     -11.496  13.041  69.296  1.00  0.00    -0.348 C  
HETATM   23  C   UNL     1     -12.180  14.267  68.745  1.00  0.00    -0.226 C  
HETATM   24  C   UNL     1     -12.282  13.947  70.209  1.00  0.00    -0.428 C  
ENDBRANCH  21  22
ENDBRANCH  20  21
ENDBRANCH  19  20
ENDBRANCH  18  19
ENDBRANCH  15  18
ENDBRANCH  11  12
ENDBRANCH  10  11
ENDBRANCH   7  10
ENDBRANCH   6   7
ENDBRANCH   4   6
ENDBRANCH   2   4
TORSDOF 11
ENDMDL
MODEL       42
REMARK 921   NORMALIZED FREE ENERGY PREDICTED BY IDOCK:   -4.96 KCAL/MOL
REMARK 922        TOTAL FREE ENERGY PREDICTED BY IDOCK:   -9.46 KCAL/MOL
REMARK 923 INTER-LIGAND FREE ENERGY PREDICTED BY IDOCK:   -8.26 KCAL/MOL
REMARK 924 INTRA-LIGAND FREE ENERGY PREDICTED BY IDOCK:   -1.21 KCAL/MOL
REMARK 927      BINDING AFFINITY PREDICTED BY RF-SCORE:    0.00 PKD
ROOT
HETATM    1  C   UNL     1     -14.010  14.777  71.813  1.00  0.00    -0.568 C  
HETATM    2  C   UNL     1     -13.014  15.661  71.058  1.00  0.00    -0.458 C  
HETATM    3  C   UNL     1     -11.712  15.760  71.856  1.00  0.00    -0.572 C  
ENDROOT
BRANCH   2   4
HETATM    4  N   UNL     1     -12.794  15.085  69.730  1.00  0.00    -0.600 NA 
HETATM    5  H   UNL     1     -13.524  15.381  69.081  1.00  0.00     0.000 HD 
BRANCH   4   6
HETATM    6  C   UNL     1     -11.460  15.375  69.183  1.00  0.00    -0.333 C  
BRANCH   6   7
HETATM    7  C   UNL     1     -10.808  14.084  68.659  1.00  0.00    -0.258 C  
HETATM    8  O   UNL     1      -9.540  13.886  69.307  1.00  0.00    -0.394 OA 
HETATM    9  H   UNL     1      -9.138  13.088  68.983  1.00  0.00     0.000 HD 
BRANCH   7  10
HETATM   10  C   UNL     1     -11.704  12.863  68.910  1.00  0.00    -0.327 C  
BRANCH  10  11
HETATM   11  O   UNL     1     -11.757  12.605  70.320  1.00  0.00    -0.253 OA 
BRANCH  11  12
HETATM   12  C   UNL     1     -11.920  11.290  70.662  1.00  0.00    -0.336 A  
HETATM   13  C   UNL     1     -12.935  10.802  71.479  1.00  0.00    -0.562 A  
HETATM   14  C   UNL     1     -13.012   9.438  71.766  1.00  0.00    -0.484 A  
HETATM   15  C   UNL     1     -12.088   8.534  71.220  1.00  0.00    -0.323 A  
HETATM   16  C   UNL     1     -11.082   9.029  70.384  1.00  0.00    -0.279 A  
HETATM   17  C   UNL     1     -11.002  10.398  70.102  1.00  0.00    -0.365 A  
BRANCH  15  18
HETATM   18  C   UNL     1     -12.182   7.061  71.539  1.00  0.00    -0.407 C  
BRANCH  18  19
HETATM   19  C   UNL     1     -11.035   6.258  70.925  1.00  0.00    -0.286 C  
BRANCH  19  20
HETATM   20  O   UNL     1     -11.409   5.791  69.627  1.00  0.00    -0.281 OA 
BRANCH  20  21
HETATM   21  C   UNL     1     -10.249   5.534  68.834  1.00  0.00    -0.214 C  
BRANCH  21  22
HETATM   22  C   UNL     1     -10.544   5.881  67.410  1.00  0.00    -0.356 C  
HETATM   23  C   UNL     1     -10.547   7.329  66.987  1.00  0.00    -0.415 C  
HETATM   24  C   UNL     1      -9.463   6.408  66.500  1.00  0.00    -0.189 C  
ENDBRANCH  21  22
ENDBRANCH  20  21
ENDBRANCH  19  20
ENDBRANCH  18  19
ENDBRANCH  15  18
ENDBRANCH  11  12
ENDBRANCH  10  11
ENDBRANCH   7  10
ENDBRANCH   6   7
ENDBRANCH   4   6
ENDBRANCH   2   4
TORSDOF 11
ENDMDL
MODEL       43
REMARK 921   NORMALIZED FREE ENERGY PREDICTED BY IDOCK:   -4.95 KCAL/MOL
REMARK 922        TOTAL FREE ENERGY PREDICTED BY IDOCK:   -9.46 KCAL/MOL
REMARK 923 INTER-LIGAND FREE ENERGY PREDICTED BY IDOCK:   -7.50 KCAL/MOL
REMARK 924 INTRA-LIGAND FREE ENERGY PREDICTED BY IDOCK:   -1.96 KCAL/MOL
REMARK 927      BINDING AFFINITY PREDICTED BY RF-SCORE:    0.00 PKD
ROOT
HETATM    1  C   UNL     1     -10.386  11.295  64.736  1.00  0.00    -0.366 C  
HETATM    2  C   UNL     1     -11.414  12.427  64.817  1.00  0.00    -0.325 C  
HETATM    3  C   UNL     1     -12.405  12.300  63.658  1.00  0.00    -0.664 C  
ENDROOT
BRANCH   2   4
HETATM    4  N   UNL     1     -12.086  12.352  66.117  1.00  0.00    -0.641 NA 
HETATM    5  H   UNL     1     -13.058  12.065  66.005  1.00  0.00     0.000 HD 
BRANCH   4   6
HETATM    6  C   UNL     1     -11.393  11.484  67.081  1.00  0.00    -0.284 C  
BRANCH   6   7
HETATM    7  C   UNL     1     -11.700  11.936  68.519  1.00  0.00    -0.330 C  
HETATM    8  O   UNL     1     -10.694  11.425  69.411  1.00  0.00    -0.363 OA 
HETATM    9  H   UNL     1     -10.884  11.705  70.299  1.00  0.00     0.000 HD 
BRANCH   7  10
HETATM   10  C   UNL     1     -11.745  13.467  68.627  1.00  0.00    -0.349 C  
BRANCH  10  11
HETATM   11  O   UNL     1     -10.518  14.007  68.114  1.00  0.00    -0.232 OA 
BRANCH  11  12
HETATM   12  C   UNL     1     -10.515  15.364  67.936  1.00  0.00    -0.256 A  
HETATM   13  C   UNL     1     -10.467  16.299  68.965  1.00  0.00    -0.276 A  
HETATM   14  C   UNL     1     -10.467  17.664  68.675  1.00  0.00    -0.317 A  
HETATM   15  C   UNL     1     -10.491  18.119  67.348  1.00  0.00    -0.414 A  
HETATM   16  C   UNL     1     -10.520  17.173  66.318  1.00  0.00    -0.260 A  
HETATM   17  C   UNL     1     -10.525  15.804  66.610  1.00  0.00    -0.302 A  
BRANCH  15  18
HETATM   18  C   UNL     1     -10.491  19.599  67.049  1.00  0.00    -0.600 C  
BRANCH  18  19
HETATM   19  C   UNL     1      -9.412  19.989  66.039  1.00  0.00    -0.292 C  
BRANCH  19  20
HETATM   20  O   UNL     1      -8.128  19.969  66.667  1.00  0.00    -0.300 OA 
BRANCH  20  21
HETATM   21  C   UNL     1      -7.175  19.304  65.838  1.00  0.00    -0.282 C  
BRANCH  21  22
HETATM   22  C   UNL     1      -6.346  18.390  66.681  1.00  0.00    -0.207 C  
HETATM   23  C   UNL     1      -6.760  18.119  68.106  1.00  0.00    -0.206 C  
HETATM   24  C   UNL     1      -6.852  17.026  67.077  1.00  0.00    -0.231 C  
ENDBRANCH  21  22
ENDBRANCH  20  21
ENDBRANCH  19  20
ENDBRANCH  18  19
ENDBRANCH  15  18
ENDBRANCH  11  12
ENDBRANCH  10  11
ENDBRANCH   7  10
ENDBRANCH   6   7
ENDBRANCH   4   6
ENDBRANCH   2   4
TORSDOF 11
ENDMDL
MODEL       44
REMARK 921   NORMALIZED FREE ENERGY PREDICTED BY IDOCK:   -4.95 KCAL/MOL
REMARK 922        TOTAL FREE ENERGY PREDICTED BY IDOCK:   -9.45 KCAL/MOL
REMARK 923 INTER-LIGAND FREE ENERGY PREDICTED BY IDOCK:   -8.95 KCAL/MOL
REMARK 924 INTRA-LIGAND FREE ENERGY PREDICTED BY IDOCK:   -0.50 KCAL/MOL
REMARK 927      BINDING AFFINITY PREDICTED BY RF-SCORE:    0.00 PKD
ROOT
HETATM    1  C   UNL     1      -9.942   5.113  69.185  1.00  0.00    -0.273 C  
HETATM    2  C   UNL     1     -10.557   6.333  68.496  1.00  0.00    -0.262 C  
HETATM    3  C   UNL     1     -10.891   5.986  67.043  1.00  0.00    -0.413 C  
ENDROOT
BRANCH   2   4
HETATM    4  N   UNL     1     -11.750   6.737  69.245  1.00  0.00    -0.605 NA 
HETATM    5  H   UNL     1     -12.508   6.071  69.104  1.00  0.00     0.000 HD 
BRANCH   4   6
HETATM    6  C   UNL     1     -11.494   6.943  70.679  1.00  0.00    -0.336 C  
BRANCH   6   7
HETATM    7  C   UNL     1     -12.722   7.583  71.351  1.00  0.00    -0.348 C  
HETATM    8  O   UNL     1     -13.343   6.628  72.229  1.00  0.00    -0.540 OA 
HETATM    9  H   UNL     1     -14.101   7.024  72.644  1.00  0.00     0.000 HD 
BRANCH   7  10
HETATM   10  C   UNL     1     -12.334   8.834  72.150  1.00  0.00    -0.389 C  
BRANCH  10  11
HETATM   11  O   UNL     1     -13.393   9.797  72.052  1.00  0.00    -0.419 OA 
BRANCH  11  12
HETATM   12  C   UNL     1     -13.030  11.002  71.513  1.00  0.00    -0.448 A  
HETATM   13  C   UNL     1     -13.336  12.242  72.064  1.00  0.00    -0.491 A  
HETATM   14  C   UNL     1     -12.917  13.414  71.433  1.00  0.00    -0.412 A  
HETATM   15  C   UNL     1     -12.163  13.366  70.251  1.00  0.00    -0.405 A  
HETATM   16  C   UNL     1     -11.843  12.115  69.712  1.00  0.00    -0.397 A  
HETATM   17  C   UNL     1     -12.269  10.940  70.343  1.00  0.00    -0.453 A  
BRANCH  15  18
HETATM   18  C   UNL     1     -11.717  14.641  69.577  1.00  0.00    -0.366 C  
BRANCH  18  19
HETATM   19  C   UNL     1     -11.760  14.541  68.052  1.00  0.00    -0.342 C  
BRANCH  19  20
HETATM   20  O   UNL     1     -11.001  15.605  67.473  1.00  0.00    -0.316 OA 
BRANCH  20  21
HETATM   21  C   UNL     1     -10.995  16.743  68.337  1.00  0.00    -0.325 C  
BRANCH  21  22
HETATM   22  C   UNL     1     -10.140  17.810  67.734  1.00  0.00    -0.345 C  
HETATM   23  C   UNL     1     -10.777  19.102  67.284  1.00  0.00    -0.585 C  
HETATM   24  C   UNL     1      -9.861  19.093  68.476  1.00  0.00    -0.483 C  
ENDBRANCH  21  22
ENDBRANCH  20  21
ENDBRANCH  19  20
ENDBRANCH  18  19
ENDBRANCH  15  18
ENDBRANCH  11  12
ENDBRANCH  10  11
ENDBRANCH   7  10
ENDBRANCH   6   7
ENDBRANCH   4   6
ENDBRANCH   2   4
TORSDOF 11
ENDMDL
MODEL       45
REMARK 921   NORMALIZED FREE ENERGY PREDICTED BY IDOCK:   -4.94 KCAL/MOL
REMARK 922        TOTAL FREE ENERGY PREDICTED BY IDOCK:   -9.45 KCAL/MOL
REMARK 923 INTER-LIGAND FREE ENERGY PREDICTED BY IDOCK:   -7.63 KCAL/MOL
REMARK 924 INTRA-LIGAND FREE ENERGY PREDICTED BY IDOCK:   -1.82 KCAL/MOL
REMARK 927      BINDING AFFINITY PREDICTED BY RF-SCORE:    0.00 PKD
ROOT
HETATM    1  C   UNL     1      -6.167  20.926  66.389  1.00  0.00    -0.312 C  
HETATM    2  C   UNL     1      -6.817  20.136  65.250  1.00  0.00    -0.300 C  
HETATM    3  C   UNL     1      -5.812  19.128  64.690  1.00  0.00    -0.319 C  
ENDROOT
BRANCH   2   4
HETATM    4  N   UNL     1      -8.017  19.475  65.769  1.00  0.00    -0.427 NA 
HETATM    5  H   UNL     1      -7.844  18.483  65.927  1.00  0.00     0.000 HD 
BRANCH   4   6
HETATM    6  C   UNL     1      -8.553  20.112  66.982  1.00  0.00    -0.336 C  
BRANCH   6   7
HETATM    7  C   UNL     1     -10.092  20.087  66.959  1.00  0.00    -0.457 C  
HETATM    8  O   UNL     1     -10.550  19.842  65.618  1.00  0.00    -0.495 OA 
HETATM    9  H   UNL     1     -11.500  19.827  65.604  1.00  0.00     0.000 HD 
BRANCH   7  10
HETATM   10  C   UNL     1     -10.648  19.003  67.892  1.00  0.00    -0.358 C  
BRANCH  10  11
HETATM   11  O   UNL     1      -9.607  18.060  68.186  1.00  0.00    -0.278 OA 
BRANCH  11  12
HETATM   12  C   UNL     1     -10.023  16.763  68.320  1.00  0.00    -0.273 A  
HETATM   13  C   UNL     1      -9.211  15.647  68.144  1.00  0.00    -0.185 A  
HETATM   14  C   UNL     1      -9.735  14.364  68.305  1.00  0.00    -0.222 A  
HETATM   15  C   UNL     1     -11.077  14.174  68.669  1.00  0.00    -0.283 A  
HETATM   16  C   UNL     1     -11.883  15.301  68.862  1.00  0.00    -0.344 A  
HETATM   17  C   UNL     1     -11.357  16.588  68.695  1.00  0.00    -0.237 A  
BRANCH  15  18
HETATM   18  C   UNL     1     -11.631  12.781  68.839  1.00  0.00    -0.362 C  
BRANCH  18  19
HETATM   19  C   UNL     1     -11.128  11.818  67.764  1.00  0.00    -0.243 C  
BRANCH  19  20
HETATM   20  O   UNL     1     -11.984  11.874  66.620  1.00  0.00    -0.601 OA 
BRANCH  20  21
HETATM   21  C   UNL     1     -11.222  12.099  65.434  1.00  0.00    -0.333 C  
BRANCH  21  22
HETATM   22  C   UNL     1     -11.795  13.266  64.697  1.00  0.00    -0.420 C  
HETATM   23  C   UNL     1     -12.746  14.196  65.409  1.00  0.00    -0.453 C  
HETATM   24  C   UNL     1     -11.374  14.676  65.027  1.00  0.00    -0.390 C  
ENDBRANCH  21  22
ENDBRANCH  20  21
ENDBRANCH  19  20
ENDBRANCH  18  19
ENDBRANCH  15  18
ENDBRANCH  11  12
ENDBRANCH  10  11
ENDBRANCH   7  10
ENDBRANCH   6   7
ENDBRANCH   4   6
ENDBRANCH   2   4
TORSDOF 11
ENDMDL
MODEL       46
REMARK 921   NORMALIZED FREE ENERGY PREDICTED BY IDOCK:   -4.94 KCAL/MOL
REMARK 922        TOTAL FREE ENERGY PREDICTED BY IDOCK:   -9.44 KCAL/MOL
REMARK 923 INTER-LIGAND FREE ENERGY PREDICTED BY IDOCK:   -7.89 KCAL/MOL
REMARK 924 INTRA-LIGAND FREE ENERGY PREDICTED BY IDOCK:   -1.55 KCAL/MOL
REMARK 927      BINDING AFFINITY PREDICTED BY RF-SCORE:    0.00 PKD
ROOT
HETATM    1  C   UNL     1     -13.492   7.276  71.473  1.00  0.00    -0.439 C  
HETATM    2  C   UNL     1     -12.007   7.102  71.145  1.00  0.00    -0.342 C  
HETATM    3  C   UNL     1     -11.416   6.000  72.027  1.00  0.00    -0.343 C  
ENDROOT
BRANCH   2   4
HETATM    4  N   UNL     1     -11.880   6.785  69.721  1.00  0.00    -0.651 NA 
HETATM    5  H   UNL     1     -12.470   7.398  69.159  1.00  0.00     0.000 HD 
BRANCH   4   6
HETATM    6  C   UNL     1     -10.490   6.813  69.240  1.00  0.00    -0.215 C  
BRANCH   6   7
HETATM    7  C   UNL     1     -10.456   7.100  67.729  1.00  0.00    -0.223 C  
HETATM    8  O   UNL     1     -11.596   6.493  67.097  1.00  0.00    -0.743 OA 
HETATM    9  H   UNL     1     -11.575   6.670  66.164  1.00  0.00     0.000 HD 
BRANCH   7  10
HETATM   10  C   UNL     1     -10.461   8.609  67.445  1.00  0.00    -0.281 C  
BRANCH  10  11
HETATM   11  O   UNL     1     -10.651   9.315  68.680  1.00  0.00    -0.215 OA 
BRANCH  11  12
HETATM   12  C   UNL     1     -10.628  10.680  68.574  1.00  0.00    -0.200 A  
HETATM   13  C   UNL     1      -9.528  11.424  68.159  1.00  0.00    -0.181 A  
HETATM   14  C   UNL     1      -9.608  12.815  68.086  1.00  0.00    -0.223 A  
HETATM   15  C   UNL     1     -10.799  13.486  68.403  1.00  0.00    -0.286 A  
HETATM   16  C   UNL     1     -11.907  12.729  68.800  1.00  0.00    -0.346 A  
HETATM   17  C   UNL     1     -11.823  11.335  68.879  1.00  0.00    -0.413 A  
BRANCH  15  18
HETATM   18  C   UNL     1     -10.873  14.991  68.319  1.00  0.00    -0.259 C  
BRANCH  18  19
HETATM   19  C   UNL     1     -10.496  15.517  66.934  1.00  0.00    -0.301 C  
BRANCH  19  20
HETATM   20  O   UNL     1     -11.355  14.944  65.946  1.00  0.00    -0.340 OA 
BRANCH  20  21
HETATM   21  C   UNL     1     -10.603  14.543  64.800  1.00  0.00    -0.377 C  
BRANCH  21  22
HETATM   22  C   UNL     1     -11.003  13.157  64.413  1.00  0.00    -0.412 C  
HETATM   23  C   UNL     1     -12.222  12.534  65.046  1.00  0.00    -0.519 C  
HETATM   24  C   UNL     1     -12.241  12.907  63.590  1.00  0.00    -0.581 C  
ENDBRANCH  21  22
ENDBRANCH  20  21
ENDBRANCH  19  20
ENDBRANCH  18  19
ENDBRANCH  15  18
ENDBRANCH  11  12
ENDBRANCH  10  11
ENDBRANCH   7  10
ENDBRANCH   6   7
ENDBRANCH   4   6
ENDBRANCH   2   4
TORSDOF 11
ENDMDL
MODEL       47
REMARK 921   NORMALIZED FREE ENERGY PREDICTED BY IDOCK:   -4.94 KCAL/MOL
REMARK 922        TOTAL FREE ENERGY PREDICTED BY IDOCK:   -9.44 KCAL/MOL
REMARK 923 INTER-LIGAND FREE ENERGY PREDICTED BY IDOCK:   -8.29 KCAL/MOL
REMARK 924 INTRA-LIGAND FREE ENERGY PREDICTED BY IDOCK:   -1.14 KCAL/MOL
REMARK 927      BINDING AFFINITY PREDICTED BY RF-SCORE:    0.00 PKD
ROOT
HETATM    1  C   UNL     1      -8.438  17.275  67.015  1.00  0.00    -0.240 C  
HETATM    2  C   UNL     1      -9.961  17.423  67.040  1.00  0.00    -0.295 C  
HETATM    3  C   UNL     1     -10.392  18.445  65.985  1.00  0.00    -0.397 C  
ENDROOT
BRANCH   2   4
HETATM    4  N   UNL     1     -10.560  16.108  66.797  1.00  0.00    -0.302 NA 
HETATM    5  H   UNL     1     -11.540  16.099  67.079  1.00  0.00     0.000 HD 
BRANCH   4   6
HETATM    6  C   UNL     1     -10.411  15.648  65.408  1.00  0.00    -0.411 C  
BRANCH   6   7
HETATM    7  C   UNL     1     -11.784  15.272  64.824  1.00  0.00    -0.276 C  
HETATM    8  O   UNL     1     -12.064  16.097  63.679  1.00  0.00    -1.288 OA 
HETATM    9  H   UNL     1     -12.912  15.864  63.319  1.00  0.00     0.000 HD 
BRANCH   7  10
HETATM   10  C   UNL     1     -11.831  13.795  64.410  1.00  0.00    -0.427 C  
BRANCH  10  11
HETATM   11  O   UNL     1     -12.548  13.053  65.407  1.00  0.00    -0.489 OA 
BRANCH  11  12
HETATM   12  C   UNL     1     -11.762  12.361  66.289  1.00  0.00    -0.395 A  
HETATM   13  C   UNL     1     -10.859  11.365  65.933  1.00  0.00    -0.292 A  
HETATM   14  C   UNL     1     -10.104  10.719  66.913  1.00  0.00    -0.255 A  
HETATM   15  C   UNL     1     -10.221  11.076  68.265  1.00  0.00    -0.192 A  
HETATM   16  C   UNL     1     -11.117  12.092  68.613  1.00  0.00    -0.297 A  
HETATM   17  C   UNL     1     -11.879  12.735  67.630  1.00  0.00    -0.396 A  
BRANCH  15  18
HETATM   18  C   UNL     1      -9.398  10.369  69.315  1.00  0.00    -0.202 C  
BRANCH  18  19
HETATM   19  C   UNL     1      -9.732   8.880  69.412  1.00  0.00    -0.169 C  
BRANCH  19  20
HETATM   20  O   UNL     1     -11.116   8.712  69.729  1.00  0.00    -0.190 OA 
BRANCH  20  21
HETATM   21  C   UNL     1     -11.265   8.116  71.018  1.00  0.00    -0.258 C  
BRANCH  21  22
HETATM   22  C   UNL     1     -11.916   9.097  71.939  1.00  0.00    -0.443 C  
HETATM   23  C   UNL     1     -12.728  10.229  71.360  1.00  0.00    -0.547 C  
HETATM   24  C   UNL     1     -13.414   9.123  72.113  1.00  0.00    -0.530 C  
ENDBRANCH  21  22
ENDBRANCH  20  21
ENDBRANCH  19  20
ENDBRANCH  18  19
ENDBRANCH  15  18
ENDBRANCH  11  12
ENDBRANCH  10  11
ENDBRANCH   7  10
ENDBRANCH   6   7
ENDBRANCH   4   6
ENDBRANCH   2   4
TORSDOF 11
ENDMDL
MODEL       48
REMARK 921   NORMALIZED FREE ENERGY PREDICTED BY IDOCK:   -4.92 KCAL/MOL
REMARK 922        TOTAL FREE ENERGY PREDICTED BY IDOCK:   -9.41 KCAL/MOL
REMARK 923 INTER-LIGAND FREE ENERGY PREDICTED BY IDOCK:   -7.68 KCAL/MOL
REMARK 924 INTRA-LIGAND FREE ENERGY PREDICTED BY IDOCK:   -1.73 KCAL/MOL
REMARK 927      BINDING AFFINITY PREDICTED BY RF-SCORE:    0.00 PKD
ROOT
HETATM    1  C   UNL     1     -10.046  10.889  63.693  1.00  0.00    -0.414 C  
HETATM    2  C   UNL     1     -10.860  12.135  63.334  1.00  0.00    -0.414 C  
HETATM    3  C   UNL     1     -12.280  11.993  63.886  1.00  0.00    -0.555 C  
ENDROOT
BRANCH   2   4
HETATM    4  N   UNL     1     -10.179  13.310  63.884  1.00  0.00    -0.735 NA 
HETATM    5  H   UNL     1      -9.593  13.752  63.177  1.00  0.00     0.000 HD 
BRANCH   4   6
HETATM    6  C   UNL     1     -11.099  14.286  64.487  1.00  0.00    -0.312 C  
BRANCH   6   7
HETATM    7  C   UNL     1     -10.344  15.182  65.485  1.00  0.00    -0.375 C  
HETATM    8  O   UNL     1     -10.495  16.561  65.107  1.00  0.00    -0.637 OA 
HETATM    9  H   UNL     1     -10.029  17.113  65.724  1.00  0.00     0.000 HD 
BRANCH   7  10
HETATM   10  C   UNL     1     -10.864  14.986  66.916  1.00  0.00    -0.315 C  
BRANCH  10  11
HETATM   11  O   UNL     1      -9.891  14.250  67.671  1.00  0.00    -0.220 OA 
BRANCH  11  12
HETATM   12  C   UNL     1      -9.964  12.890  67.536  1.00  0.00    -0.215 A  
HETATM   13  C   UNL     1      -8.883  12.062  67.250  1.00  0.00    -0.183 A  
HETATM   14  C   UNL     1      -9.066  10.683  67.134  1.00  0.00    -0.154 A  
HETATM   15  C   UNL     1     -10.329  10.105  67.327  1.00  0.00    -0.291 A  
HETATM   16  C   UNL     1     -11.408  10.942  67.634  1.00  0.00    -0.345 A  
HETATM   17  C   UNL     1     -11.224  12.325  67.744  1.00  0.00    -0.331 A  
BRANCH  15  18
HETATM   18  C   UNL     1     -10.513   8.612  67.199  1.00  0.00    -0.360 C  
BRANCH  18  19
HETATM   19  C   UNL     1      -9.858   7.843  68.346  1.00  0.00    -0.173 C  
BRANCH  19  20
HETATM   20  O   UNL     1     -10.756   7.769  69.457  1.00  0.00    -0.236 OA 
BRANCH  20  21
HETATM   21  C   UNL     1     -10.057   7.993  70.682  1.00  0.00    -0.194 C  
BRANCH  21  22
HETATM   22  C   UNL     1     -10.711   9.115  71.420  1.00  0.00    -0.414 C  
HETATM   23  C   UNL     1     -12.018   9.672  70.913  1.00  0.00    -0.391 C  
HETATM   24  C   UNL     1     -11.983   8.895  72.199  1.00  0.00    -0.419 C  
ENDBRANCH  21  22
ENDBRANCH  20  21
ENDBRANCH  19  20
ENDBRANCH  18  19
ENDBRANCH  15  18
ENDBRANCH  11  12
ENDBRANCH  10  11
ENDBRANCH   7  10
ENDBRANCH   6   7
ENDBRANCH   4   6
ENDBRANCH   2   4
TORSDOF 11
ENDMDL
MODEL       49
REMARK 921   NORMALIZED FREE ENERGY PREDICTED BY IDOCK:   -4.92 KCAL/MOL
REMARK 922        TOTAL FREE ENERGY PREDICTED BY IDOCK:   -9.41 KCAL/MOL
REMARK 923 INTER-LIGAND FREE ENERGY PREDICTED BY IDOCK:   -8.66 KCAL/MOL
REMARK 924 INTRA-LIGAND FREE ENERGY PREDICTED BY IDOCK:   -0.75 KCAL/MOL
REMARK 927      BINDING AFFINITY PREDICTED BY RF-SCORE:    0.00 PKD
ROOT
HETATM    1  C   UNL     1     -10.655  19.739  66.730  1.00  0.00    -0.586 C  
HETATM    2  C   UNL     1      -9.925  18.399  66.847  1.00  0.00    -0.353 C  
HETATM    3  C   UNL     1     -10.441  17.642  68.073  1.00  0.00    -0.395 C  
ENDROOT
BRANCH   2   4
HETATM    4  N   UNL     1     -10.141  17.642  65.612  1.00  0.00    -0.583 NA 
HETATM    5  H   UNL     1      -9.481  17.932  64.890  1.00  0.00     0.000 HD 
BRANCH   4   6
HETATM    6  C   UNL     1     -10.096  16.185  65.806  1.00  0.00    -0.363 C  
BRANCH   6   7
HETATM    7  C   UNL     1     -11.235  15.509  65.022  1.00  0.00    -0.358 C  
HETATM    8  O   UNL     1     -11.649  16.362  63.941  1.00  0.00    -1.564 OA 
HETATM    9  H   UNL     1     -12.352  15.944  63.457  1.00  0.00     0.000 HD 
BRANCH   7  10
HETATM   10  C   UNL     1     -10.796  14.151  64.459  1.00  0.00    -0.320 C  
BRANCH  10  11
HETATM   11  O   UNL     1     -11.774  13.161  64.810  1.00  0.00    -0.322 OA 
BRANCH  11  12
HETATM   12  C   UNL     1     -11.293  12.104  65.535  1.00  0.00    -0.344 A  
HETATM   13  C   UNL     1     -11.545  11.889  66.886  1.00  0.00    -0.358 A  
HETATM   14  C   UNL     1     -11.004  10.776  67.533  1.00  0.00    -0.372 A  
HETATM   15  C   UNL     1     -10.222   9.845  66.833  1.00  0.00    -0.302 A  
HETATM   16  C   UNL     1      -9.989  10.059  65.470  1.00  0.00    -0.367 A  
HETATM   17  C   UNL     1     -10.527  11.178  64.824  1.00  0.00    -0.388 A  
BRANCH  15  18
HETATM   18  C   UNL     1      -9.644   8.647  67.544  1.00  0.00    -0.196 C  
BRANCH  18  19
HETATM   19  C   UNL     1      -8.844   9.037  68.788  1.00  0.00    -0.137 C  
BRANCH  19  20
HETATM   20  O   UNL     1      -9.489   8.531  69.959  1.00  0.00    -0.161 OA 
BRANCH  20  21
HETATM   21  C   UNL     1      -8.862   7.323  70.393  1.00  0.00    -0.150 C  
BRANCH  21  22
HETATM   22  C   UNL     1      -9.909   6.279  70.609  1.00  0.00    -0.213 C  
HETATM   23  C   UNL     1     -11.161   6.301  69.769  1.00  0.00    -0.499 C  
HETATM   24  C   UNL     1     -10.154   5.201  69.585  1.00  0.00    -0.332 C  
ENDBRANCH  21  22
ENDBRANCH  20  21
ENDBRANCH  19  20
ENDBRANCH  18  19
ENDBRANCH  15  18
ENDBRANCH  11  12
ENDBRANCH  10  11
ENDBRANCH   7  10
ENDBRANCH   6   7
ENDBRANCH   4   6
ENDBRANCH   2   4
TORSDOF 11
ENDMDL
MODEL       50
REMARK 921   NORMALIZED FREE ENERGY PREDICTED BY IDOCK:   -4.91 KCAL/MOL
REMARK 922        TOTAL FREE ENERGY PREDICTED BY IDOCK:   -9.40 KCAL/MOL
REMARK 923 INTER-LIGAND FREE ENERGY PREDICTED BY IDOCK:   -8.19 KCAL/MOL
REMARK 924 INTRA-LIGAND FREE ENERGY PREDICTED BY IDOCK:   -1.21 KCAL/MOL
REMARK 927      BINDING AFFINITY PREDICTED BY RF-SCORE:    0.00 PKD
ROOT
HETATM    1  C   UNL     1     -14.357   8.423  72.153  1.00  0.00    -0.520 C  
HETATM    2  C   UNL     1     -13.333   9.305  71.436  1.00  0.00    -0.325 C  
HETATM    3  C   UNL     1     -13.352  10.709  72.046  1.00  0.00    -0.409 C  
ENDROOT
BRANCH   2   4
HETATM    4  N   UNL     1     -12.015   8.679  71.556  1.00  0.00    -0.290 NA 
HETATM    5  H   UNL     1     -11.677   8.727  72.517  1.00  0.00     0.000 HD 
BRANCH   4   6
HETATM    6  C   UNL     1     -11.981   7.295  71.058  1.00  0.00    -0.327 C  
BRANCH   6   7
HETATM    7  C   UNL     1     -10.968   7.169  69.906  1.00  0.00    -0.253 C  
HETATM    8  O   UNL     1     -11.641   6.710  68.721  1.00  0.00    -0.587 OA 
HETATM    9  H   UNL     1     -11.015   6.633  68.010  1.00  0.00     0.000 HD 
BRANCH   7  10
HETATM   10  C   UNL     1     -10.282   8.510  69.615  1.00  0.00    -0.209 C  
BRANCH  10  11
HETATM   11  O   UNL     1     -10.486   8.850  68.236  1.00  0.00    -0.215 OA 
BRANCH  11  12
HETATM   12  C   UNL     1     -10.909  10.132  68.012  1.00  0.00    -0.270 A  
HETATM   13  C   UNL     1     -11.513  10.945  68.966  1.00  0.00    -0.371 A  
HETATM   14  C   UNL     1     -11.909  12.242  68.635  1.00  0.00    -0.354 A  
HETATM   15  C   UNL     1     -11.685  12.757  67.349  1.00  0.00    -0.425 A  
HETATM   16  C   UNL     1     -11.059  11.940  66.401  1.00  0.00    -0.359 A  
HETATM   17  C   UNL     1     -10.668  10.638  66.733  1.00  0.00    -0.272 A  
BRANCH  15  18
HETATM   18  C   UNL     1     -12.118  14.162  67.004  1.00  0.00    -0.449 C  
BRANCH  18  19
HETATM   19  C   UNL     1     -11.174  15.220  67.575  1.00  0.00    -0.317 C  
BRANCH  19  20
HETATM   20  O   UNL     1     -11.757  15.816  68.736  1.00  0.00    -0.382 OA 
BRANCH  20  21
HETATM   21  C   UNL     1     -10.924  15.609  69.877  1.00  0.00    -0.318 C  
BRANCH  21  22
HETATM   22  C   UNL     1     -11.748  15.043  70.988  1.00  0.00    -0.379 C  
HETATM   23  C   UNL     1     -12.253  15.959  72.076  1.00  0.00    -0.570 C  
HETATM   24  C   UNL     1     -13.220  15.352  71.098  1.00  0.00    -0.583 C  
ENDBRANCH  21  22
ENDBRANCH  20  21
ENDBRANCH  19  20
ENDBRANCH  18  19
ENDBRANCH  15  18
ENDBRANCH  11  12
ENDBRANCH  10  11
ENDBRANCH   7  10
ENDBRANCH   6   7
ENDBRANCH   4   6
ENDBRANCH   2   4
TORSDOF 11
ENDMDL
MODEL       51
REMARK 921   NORMALIZED FREE ENERGY PREDICTED BY IDOCK:   -4.90 KCAL/MOL
REMARK 922        TOTAL FREE ENERGY PREDICTED BY IDOCK:   -9.37 KCAL/MOL
REMARK 923 INTER-LIGAND FREE ENERGY PREDICTED BY IDOCK:   -7.81 KCAL/MOL
REMARK 924 INTRA-LIGAND FREE ENERGY PREDICTED BY IDOCK:   -1.56 KCAL/MOL
REMARK 927      BINDING AFFINITY PREDICTED BY RF-SCORE:    0.00 PKD
ROOT
HETATM    1  C   UNL     1     -13.083   9.716  71.790  1.00  0.00    -0.514 C  
HETATM    2  C   UNL     1     -11.823  10.248  71.102  1.00  0.00    -0.362 C  
HETATM    3  C   UNL     1     -10.691   9.229  71.252  1.00  0.00    -0.422 C  
ENDROOT
BRANCH   2   4
HETATM    4  N   UNL     1     -12.137  10.507  69.694  1.00  0.00    -0.494 NA 
HETATM    5  H   UNL     1     -13.074  10.175  69.466  1.00  0.00     0.000 HD 
BRANCH   4   6
HETATM    6  C   UNL     1     -11.974  11.917  69.312  1.00  0.00    -0.281 C  
BRANCH   6   7
HETATM    7  C   UNL     1     -11.346  12.018  67.910  1.00  0.00    -0.305 C  
HETATM    8  O   UNL     1     -11.467  10.754  67.235  1.00  0.00    -0.436 OA 
HETATM    9  H   UNL     1     -11.080  10.817  66.369  1.00  0.00     0.000 HD 
BRANCH   7  10
HETATM   10  C   UNL     1     -12.024  13.110  67.071  1.00  0.00    -0.355 C  
BRANCH  10  11
HETATM   11  O   UNL     1     -11.870  14.373  67.736  1.00  0.00    -0.362 OA 
BRANCH  11  12
HETATM   12  C   UNL     1     -10.683  15.012  67.494  1.00  0.00    -0.284 A  
HETATM   13  C   UNL     1     -10.282  15.495  66.253  1.00  0.00    -0.308 A  
HETATM   14  C   UNL     1      -9.049  16.134  66.113  1.00  0.00    -0.382 A  
HETATM   15  C   UNL     1      -8.206  16.323  67.219  1.00  0.00    -0.197 A  
HETATM   16  C   UNL     1      -8.625  15.851  68.467  1.00  0.00    -0.190 A  
HETATM   17  C   UNL     1      -9.859  15.205  68.605  1.00  0.00    -0.218 A  
BRANCH  15  18
HETATM   18  C   UNL     1      -6.874  17.015  67.054  1.00  0.00    -0.231 C  
BRANCH  18  19
HETATM   19  C   UNL     1      -6.971  18.262  66.174  1.00  0.00    -0.266 C  
BRANCH  19  20
HETATM   20  O   UNL     1      -7.559  19.335  66.913  1.00  0.00    -0.231 OA 
BRANCH  20  21
HETATM   21  C   UNL     1      -8.653  19.901  66.190  1.00  0.00    -0.312 C  
BRANCH  21  22
HETATM   22  C   UNL     1      -9.788  20.143  67.131  1.00  0.00    -0.586 C  
HETATM   23  C   UNL     1     -10.771  19.032  67.405  1.00  0.00    -0.559 C  
HETATM   24  C   UNL     1      -9.829  19.483  68.485  1.00  0.00    -0.518 C  
ENDBRANCH  21  22
ENDBRANCH  20  21
ENDBRANCH  19  20
ENDBRANCH  18  19
ENDBRANCH  15  18
ENDBRANCH  11  12
ENDBRANCH  10  11
ENDBRANCH   7  10
ENDBRANCH   6   7
ENDBRANCH   4   6
ENDBRANCH   2   4
TORSDOF 11
ENDMDL
MODEL       52
REMARK 921   NORMALIZED FREE ENERGY PREDICTED BY IDOCK:   -4.88 KCAL/MOL
REMARK 922        TOTAL FREE ENERGY PREDICTED BY IDOCK:   -9.35 KCAL/MOL
REMARK 923 INTER-LIGAND FREE ENERGY PREDICTED BY IDOCK:   -8.42 KCAL/MOL
REMARK 924 INTRA-LIGAND FREE ENERGY PREDICTED BY IDOCK:   -0.93 KCAL/MOL
REMARK 927      BINDING AFFINITY PREDICTED BY RF-SCORE:    0.00 PKD
ROOT
HETATM    1  C   UNL     1      -6.973  19.516  67.611  1.00  0.00    -0.264 C  
HETATM    2  C   UNL     1      -7.002  19.976  66.152  1.00  0.00    -0.251 C  
HETATM    3  C   UNL     1      -6.262  18.959  65.281  1.00  0.00    -0.316 C  
ENDROOT
BRANCH   2   4
HETATM    4  N   UNL     1      -8.399  20.129  65.740  1.00  0.00    -0.496 NA 
HETATM    5  H   UNL     1      -8.696  19.338  65.169  1.00  0.00     0.000 HD 
BRANCH   4   6
HETATM    6  C   UNL     1      -9.319  20.332  66.870  1.00  0.00    -0.373 C  
BRANCH   6   7
HETATM    7  C   UNL     1     -10.646  19.596  66.613  1.00  0.00    -0.487 C  
HETATM    8  O   UNL     1     -11.029  19.756  65.236  1.00  0.00    -0.410 OA 
HETATM    9  H   UNL     1     -11.848  19.301  65.078  1.00  0.00     0.000 HD 
BRANCH   7  10
HETATM   10  C   UNL     1     -10.528  18.100  66.938  1.00  0.00    -0.357 C  
BRANCH  10  11
HETATM   11  O   UNL     1     -10.011  17.412  65.789  1.00  0.00    -0.539 OA 
BRANCH  11  12
HETATM   12  C   UNL     1     -10.190  16.055  65.800  1.00  0.00    -0.377 A  
HETATM   13  C   UNL     1      -9.585  15.182  66.698  1.00  0.00    -0.272 A  
HETATM   14  C   UNL     1      -9.835  13.811  66.622  1.00  0.00    -0.286 A  
HETATM   15  C   UNL     1     -10.715  13.291  65.662  1.00  0.00    -0.292 A  
HETATM   16  C   UNL     1     -11.335  14.177  64.774  1.00  0.00    -0.371 A  
HETATM   17  C   UNL     1     -11.078  15.551  64.847  1.00  0.00    -0.428 A  
BRANCH  15  18
HETATM   18  C   UNL     1     -10.976  11.806  65.590  1.00  0.00    -0.348 C  
BRANCH  18  19
HETATM   19  C   UNL     1     -10.888  11.133  66.960  1.00  0.00    -0.284 C  
BRANCH  19  20
HETATM   20  O   UNL     1     -12.082  11.388  67.705  1.00  0.00    -0.637 OA 
BRANCH  20  21
HETATM   21  C   UNL     1     -11.767  11.703  69.062  1.00  0.00    -0.324 C  
BRANCH  21  22
HETATM   22  C   UNL     1     -12.430  10.711  69.961  1.00  0.00    -0.294 C  
HETATM   23  C   UNL     1     -11.621  10.031  71.038  1.00  0.00    -0.476 C  
HETATM   24  C   UNL     1     -12.682  11.027  71.414  1.00  0.00    -0.534 C  
ENDBRANCH  21  22
ENDBRANCH  20  21
ENDBRANCH  19  20
ENDBRANCH  18  19
ENDBRANCH  15  18
ENDBRANCH  11  12
ENDBRANCH  10  11
ENDBRANCH   7  10
ENDBRANCH   6   7
ENDBRANCH   4   6
ENDBRANCH   2   4
TORSDOF 11
ENDMDL
MODEL       53
REMARK 921   NORMALIZED FREE ENERGY PREDICTED BY IDOCK:   -4.88 KCAL/MOL
REMARK 922        TOTAL FREE ENERGY PREDICTED BY IDOCK:   -9.34 KCAL/MOL
REMARK 923 INTER-LIGAND FREE ENERGY PREDICTED BY IDOCK:   -7.52 KCAL/MOL
REMARK 924 INTRA-LIGAND FREE ENERGY PREDICTED BY IDOCK:   -1.82 KCAL/MOL
REMARK 927      BINDING AFFINITY PREDICTED BY RF-SCORE:    0.00 PKD
ROOT
HETATM    1  C   UNL     1     -12.346  14.028  70.755  1.00  0.00    -0.443 C  
HETATM    2  C   UNL     1     -12.172  14.701  69.391  1.00  0.00    -0.235 C  
HETATM    3  C   UNL     1     -10.962  15.637  69.434  1.00  0.00    -0.283 C  
ENDROOT
BRANCH   2   4
HETATM    4  N   UNL     1     -12.016  13.658  68.375  1.00  0.00    -0.367 NA 
HETATM    5  H   UNL     1     -12.523  12.814  68.641  1.00  0.00     0.000 HD 
BRANCH   4   6
HETATM    6  C   UNL     1     -12.405  14.097  67.026  1.00  0.00    -0.218 C  
BRANCH   6   7
HETATM    7  C   UNL     1     -11.974  13.051  65.982  1.00  0.00    -0.440 C  
HETATM    8  O   UNL     1     -12.948  12.995  64.925  1.00  0.00    -0.739 OA 
HETATM    9  H   UNL     1     -12.682  12.349  64.281  1.00  0.00     0.000 HD 
BRANCH   7  10
HETATM   10  C   UNL     1     -10.599  13.386  65.389  1.00  0.00    -0.303 C  
BRANCH  10  11
HETATM   11  O   UNL     1      -9.619  13.357  66.437  1.00  0.00    -0.269 OA 
BRANCH  11  12
HETATM   12  C   UNL     1      -8.882  14.503  66.572  1.00  0.00    -0.122 A  
HETATM   13  C   UNL     1      -9.194  15.721  65.976  1.00  0.00    -0.379 A  
HETATM   14  C   UNL     1      -8.373  16.832  66.178  1.00  0.00    -0.301 A  
HETATM   15  C   UNL     1      -7.239  16.750  66.999  1.00  0.00    -0.236 A  
HETATM   16  C   UNL     1      -6.943  15.527  67.610  1.00  0.00    -0.203 A  
HETATM   17  C   UNL     1      -7.763  14.412  67.403  1.00  0.00    -0.207 A  
BRANCH  15  18
HETATM   18  C   UNL     1      -6.360  17.960  67.209  1.00  0.00    -0.182 C  
BRANCH  18  19
HETATM   19  C   UNL     1      -6.679  18.693  68.512  1.00  0.00    -0.258 C  
BRANCH  19  20
HETATM   20  O   UNL     1      -7.689  19.678  68.281  1.00  0.00    -0.307 OA 
BRANCH  20  21
HETATM   21  C   UNL     1      -8.911  19.302  68.917  1.00  0.00    -0.301 C  
BRANCH  21  22
HETATM   22  C   UNL     1     -10.056  19.917  68.180  1.00  0.00    -0.569 C  
HETATM   23  C   UNL     1      -9.880  20.312  66.735  1.00  0.00    -0.586 C  
HETATM   24  C   UNL     1     -10.777  19.160  67.093  1.00  0.00    -0.567 C  
ENDBRANCH  21  22
ENDBRANCH  20  21
ENDBRANCH  19  20
ENDBRANCH  18  19
ENDBRANCH  15  18
ENDBRANCH  11  12
ENDBRANCH  10  11
ENDBRANCH   7  10
ENDBRANCH   6   7
ENDBRANCH   4   6
ENDBRANCH   2   4
TORSDOF 11
ENDMDL
MODEL       54
REMARK 921   NORMALIZED FREE ENERGY PREDICTED BY IDOCK:   -4.86 KCAL/MOL
REMARK 922        TOTAL FREE ENERGY PREDICTED BY IDOCK:   -9.30 KCAL/MOL
REMARK 923 INTER-LIGAND FREE ENERGY PREDICTED BY IDOCK:   -8.75 KCAL/MOL
REMARK 924 INTRA-LIGAND FREE ENERGY PREDICTED BY IDOCK:   -0.55 KCAL/MOL
REMARK 927      BINDING AFFINITY PREDICTED BY RF-SCORE:    0.00 PKD
ROOT
HETATM    1  C   UNL     1     -10.605   6.542  70.452  1.00  0.00    -0.282 C  
HETATM    2  C   UNL     1     -11.802   7.010  71.283  1.00  0.00    -0.330 C  
HETATM    3  C   UNL     1     -11.383   7.151  72.748  1.00  0.00    -0.285 C  
ENDROOT
BRANCH   2   4
HETATM    4  N   UNL     1     -12.283   8.280  70.731  1.00  0.00    -0.495 NA 
HETATM    5  H   UNL     1     -13.096   8.130  70.134  1.00  0.00     0.000 HD 
BRANCH   4   6
HETATM    6  C   UNL     1     -12.569   9.290  71.761  1.00  0.00    -0.382 C  
BRANCH   6   7
HETATM    7  C   UNL     1     -13.005  10.611  71.102  1.00  0.00    -0.387 C  
HETATM    8  O   UNL     1     -13.372  11.559  72.119  1.00  0.00    -0.581 OA 
HETATM    9  H   UNL     1     -13.641  12.375  71.712  1.00  0.00     0.000 HD 
BRANCH   7  10
HETATM   10  C   UNL     1     -11.884  11.201  70.236  1.00  0.00    -0.366 C  
BRANCH  10  11
HETATM   11  O   UNL     1     -12.234  11.049  68.853  1.00  0.00    -0.519 OA 
BRANCH  11  12
HETATM   12  C   UNL     1     -11.777  12.042  68.028  1.00  0.00    -0.331 A  
HETATM   13  C   UNL     1     -11.382  11.856  66.707  1.00  0.00    -0.393 A  
HETATM   14  C   UNL     1     -10.931  12.939  65.951  1.00  0.00    -0.300 A  
HETATM   15  C   UNL     1     -10.890  14.231  66.495  1.00  0.00    -0.304 A  
HETATM   16  C   UNL     1     -11.307  14.413  67.818  1.00  0.00    -0.331 A  
HETATM   17  C   UNL     1     -11.754  13.326  68.577  1.00  0.00    -0.388 A  
BRANCH  15  18
HETATM   18  C   UNL     1     -10.400  15.393  65.665  1.00  0.00    -0.395 C  
BRANCH  18  19
HETATM   19  C   UNL     1     -10.522  16.727  66.402  1.00  0.00    -0.269 C  
BRANCH  19  20
HETATM   20  O   UNL     1     -10.617  17.797  65.458  1.00  0.00    -0.632 OA 
BRANCH  20  21
HETATM   21  C   UNL     1     -10.348  19.049  66.092  1.00  0.00    -0.468 C  
BRANCH  21  22
HETATM   22  C   UNL     1     -10.302  18.848  67.572  1.00  0.00    -0.496 C  
HETATM   23  C   UNL     1      -8.976  18.923  68.287  1.00  0.00    -0.364 C  
HETATM   24  C   UNL     1     -10.005  19.997  68.502  1.00  0.00    -0.454 C  
ENDBRANCH  21  22
ENDBRANCH  20  21
ENDBRANCH  19  20
ENDBRANCH  18  19
ENDBRANCH  15  18
ENDBRANCH  11  12
ENDBRANCH  10  11
ENDBRANCH   7  10
ENDBRANCH   6   7
ENDBRANCH   4   6
ENDBRANCH   2   4
TORSDOF 11
ENDMDL
MODEL       55
REMARK 921   NORMALIZED FREE ENERGY PREDICTED BY IDOCK:   -4.85 KCAL/MOL
REMARK 922        TOTAL FREE ENERGY PREDICTED BY IDOCK:   -9.30 KCAL/MOL
REMARK 923 INTER-LIGAND FREE ENERGY PREDICTED BY IDOCK:   -7.32 KCAL/MOL
REMARK 924 INTRA-LIGAND FREE ENERGY PREDICTED BY IDOCK:   -1.98 KCAL/MOL
REMARK 927      BINDING AFFINITY PREDICTED BY RF-SCORE:    0.00 PKD
ROOT
HETATM    1  C   UNL     1     -12.245  13.585  65.333  1.00  0.00    -0.482 C  
HETATM    2  C   UNL     1     -11.004  14.262  64.747  1.00  0.00    -0.398 C  
HETATM    3  C   UNL     1     -10.104  14.751  65.885  1.00  0.00    -0.343 C  
ENDROOT
BRANCH   2   4
HETATM    4  N   UNL     1     -10.313  13.300  63.885  1.00  0.00    -0.689 NA 
HETATM    5  H   UNL     1      -9.358  13.147  64.206  1.00  0.00     0.000 HD 
BRANCH   4   6
HETATM    6  C   UNL     1     -11.030  12.023  63.747  1.00  0.00    -0.426 C  
BRANCH   6   7
HETATM    7  C   UNL     1     -10.029  10.873  63.538  1.00  0.00    -0.363 C  
HETATM    8  O   UNL     1      -8.830  11.381  62.929  1.00  0.00    -0.489 OA 
HETATM    9  H   UNL     1      -8.212  10.670  62.800  1.00  0.00     0.000 HD 
BRANCH   7  10
HETATM   10  C   UNL     1      -9.675  10.190  64.867  1.00  0.00    -0.324 C  
BRANCH  10  11
HETATM   11  O   UNL     1      -9.462  11.197  65.866  1.00  0.00    -0.199 OA 
BRANCH  11  12
HETATM   12  C   UNL     1      -9.820  10.835  67.137  1.00  0.00    -0.185 A  
HETATM   13  C   UNL     1      -8.941  10.351  68.101  1.00  0.00    -0.132 A  
HETATM   14  C   UNL     1      -9.410  10.009  69.370  1.00  0.00    -0.237 A  
HETATM   15  C   UNL     1     -10.762  10.170  69.707  1.00  0.00    -0.317 A  
HETATM   16  C   UNL     1     -11.636  10.676  68.738  1.00  0.00    -0.309 A  
HETATM   17  C   UNL     1     -11.166  11.013  67.464  1.00  0.00    -0.372 A  
BRANCH  15  18
HETATM   18  C   UNL     1     -11.256   9.797  71.083  1.00  0.00    -0.444 C  
BRANCH  18  19
HETATM   19  C   UNL     1     -11.070   8.309  71.385  1.00  0.00    -0.251 C  
BRANCH  19  20
HETATM   20  O   UNL     1     -11.718   7.525  70.380  1.00  0.00    -0.212 OA 
BRANCH  20  21
HETATM   21  C   UNL     1     -11.244   6.178  70.414  1.00  0.00    -0.353 C  
BRANCH  21  22
HETATM   22  C   UNL     1     -10.759   5.796  69.054  1.00  0.00    -0.354 C  
HETATM   23  C   UNL     1     -10.875   6.785  67.921  1.00  0.00    -0.320 C  
HETATM   24  C   UNL     1      -9.522   6.425  68.466  1.00  0.00    -0.120 C  
ENDBRANCH  21  22
ENDBRANCH  20  21
ENDBRANCH  19  20
ENDBRANCH  18  19
ENDBRANCH  15  18
ENDBRANCH  11  12
ENDBRANCH  10  11
ENDBRANCH   7  10
ENDBRANCH   6   7
ENDBRANCH   4   6
ENDBRANCH   2   4
TORSDOF 11
ENDMDL
MODEL       56
REMARK 921   NORMALIZED FREE ENERGY PREDICTED BY IDOCK:   -4.85 KCAL/MOL
REMARK 922        TOTAL FREE ENERGY PREDICTED BY IDOCK:   -9.29 KCAL/MOL
REMARK 923 INTER-LIGAND FREE ENERGY PREDICTED BY IDOCK:   -7.79 KCAL/MOL
REMARK 924 INTRA-LIGAND FREE ENERGY PREDICTED BY IDOCK:   -1.50 KCAL/MOL
REMARK 927      BINDING AFFINITY PREDICTED BY RF-SCORE:    0.00 PKD
ROOT
HETATM    1  C   UNL     1     -10.504  15.606  67.290  1.00  0.00    -0.292 C  
HETATM    2  C   UNL     1      -9.389  15.012  66.426  1.00  0.00    -0.303 C  
HETATM    3  C   UNL     1      -8.575  14.017  67.256  1.00  0.00    -0.228 C  
ENDROOT
BRANCH   2   4
HETATM    4  N   UNL     1      -9.997  14.374  65.256  1.00  0.00    -0.529 NA 
HETATM    5  H   UNL     1     -10.227  13.400  65.454  1.00  0.00     0.000 HD 
BRANCH   4   6
HETATM    6  C   UNL     1     -11.173  15.095  64.746  1.00  0.00    -0.388 C  
BRANCH   6   7
HETATM    7  C   UNL     1     -12.304  14.103  64.420  1.00  0.00    -0.381 C  
HETATM    8  O   UNL     1     -12.427  13.962  62.994  1.00  0.00    -1.099 OA 
HETATM    9  H   UNL     1     -13.126  13.350  62.794  1.00  0.00     0.000 HD 
BRANCH   7  10
HETATM   10  C   UNL     1     -12.039  12.727  65.046  1.00  0.00    -0.441 C  
BRANCH  10  11
HETATM   11  O   UNL     1     -12.348  12.784  66.447  1.00  0.00    -0.500 OA 
BRANCH  11  12
HETATM   12  C   UNL     1     -11.652  11.901  67.228  1.00  0.00    -0.293 A  
HETATM   13  C   UNL     1     -10.709  10.996  66.754  1.00  0.00    -0.319 A  
HETATM   14  C   UNL     1     -10.054  10.136  67.638  1.00  0.00    -0.231 A  
HETATM   15  C   UNL     1     -10.313  10.185  69.016  1.00  0.00    -0.230 A  
HETATM   16  C   UNL     1     -11.249  11.112  69.487  1.00  0.00    -0.341 A  
HETATM   17  C   UNL     1     -11.910  11.969  68.599  1.00  0.00    -0.366 A  
BRANCH  15  18
HETATM   18  C   UNL     1      -9.598   9.250  69.961  1.00  0.00    -0.235 C  
BRANCH  18  19
HETATM   19  C   UNL     1      -9.619   7.801  69.473  1.00  0.00    -0.160 C  
BRANCH  19  20
HETATM   20  O   UNL     1     -10.968   7.332  69.398  1.00  0.00    -0.217 OA 
BRANCH  20  21
HETATM   21  C   UNL     1     -11.054   5.980  69.850  1.00  0.00    -0.399 C  
BRANCH  21  22
HETATM   22  C   UNL     1     -10.249   5.830  71.100  1.00  0.00    -0.275 C  
HETATM   23  C   UNL     1     -10.957   5.604  72.413  1.00  0.00    -0.311 C  
HETATM   24  C   UNL     1     -10.143   4.499  71.800  1.00  0.00    -0.254 C  
ENDBRANCH  21  22
ENDBRANCH  20  21
ENDBRANCH  19  20
ENDBRANCH  18  19
ENDBRANCH  15  18
ENDBRANCH  11  12
ENDBRANCH  10  11
ENDBRANCH   7  10
ENDBRANCH   6   7
ENDBRANCH   4   6
ENDBRANCH   2   4
TORSDOF 11
ENDMDL
MODEL       57
REMARK 921   NORMALIZED FREE ENERGY PREDICTED BY IDOCK:   -4.84 KCAL/MOL
REMARK 922        TOTAL FREE ENERGY PREDICTED BY IDOCK:   -9.28 KCAL/MOL
REMARK 923 INTER-LIGAND FREE ENERGY PREDICTED BY IDOCK:   -8.03 KCAL/MOL
REMARK 924 INTRA-LIGAND FREE ENERGY PREDICTED BY IDOCK:   -1.25 KCAL/MOL
REMARK 927      BINDING AFFINITY PREDICTED BY RF-SCORE:    0.00 PKD
ROOT
HETATM    1  C   UNL     1     -12.659  14.172  65.213  1.00  0.00    -0.460 C  
HETATM    2  C   UNL     1     -11.309  14.789  64.838  1.00  0.00    -0.410 C  
HETATM    3  C   UNL     1     -10.584  15.241  66.108  1.00  0.00    -0.318 C  
ENDROOT
BRANCH   2   4
HETATM    4  N   UNL     1     -10.533  13.793  64.096  1.00  0.00    -0.605 NA 
HETATM    5  H   UNL     1      -9.719  13.494  64.633  1.00  0.00     0.000 HD 
BRANCH   4   6
HETATM    6  C   UNL     1     -11.331  12.633  63.669  1.00  0.00    -0.481 C  
BRANCH   6   7
HETATM    7  C   UNL     1     -10.430  11.394  63.520  1.00  0.00    -0.417 C  
HETATM    8  O   UNL     1      -9.146  11.790  63.009  1.00  0.00    -0.625 OA 
HETATM    9  H   UNL     1      -8.590  11.025  62.917  1.00  0.00     0.000 HD 
BRANCH   7  10
HETATM   10  C   UNL     1     -10.244  10.673  64.862  1.00  0.00    -0.324 C  
BRANCH  10  11
HETATM   11  O   UNL     1     -10.090  11.651  65.900  1.00  0.00    -0.215 OA 
BRANCH  11  12
HETATM   12  C   UNL     1     -10.582  11.279  67.122  1.00  0.00    -0.235 A  
HETATM   13  C   UNL     1     -11.433  12.054  67.903  1.00  0.00    -0.396 A  
HETATM   14  C   UNL     1     -11.879  11.581  69.138  1.00  0.00    -0.406 A  
HETATM   15  C   UNL     1     -11.501  10.312  69.603  1.00  0.00    -0.297 A  
HETATM   16  C   UNL     1     -10.661   9.530  68.802  1.00  0.00    -0.240 A  
HETATM   17  C   UNL     1     -10.209  10.009  67.567  1.00  0.00    -0.260 A  
BRANCH  15  18
HETATM   18  C   UNL     1     -11.990   9.812  70.940  1.00  0.00    -0.413 C  
BRANCH  18  19
HETATM   19  C   UNL     1     -10.880   9.147  71.755  1.00  0.00    -0.345 C  
BRANCH  19  20
HETATM   20  O   UNL     1     -11.427   8.093  72.552  1.00  0.00    -0.370 OA 
BRANCH  20  21
HETATM   21  C   UNL     1     -11.978   7.071  71.720  1.00  0.00    -0.326 C  
BRANCH  21  22
HETATM   22  C   UNL     1     -11.168   5.825  71.874  1.00  0.00    -0.289 C  
HETATM   23  C   UNL     1     -10.084   5.772  72.921  1.00  0.00    -0.205 C  
HETATM   24  C   UNL     1     -11.325   4.941  73.085  1.00  0.00    -0.395 C  
ENDBRANCH  21  22
ENDBRANCH  20  21
ENDBRANCH  19  20
ENDBRANCH  18  19
ENDBRANCH  15  18
ENDBRANCH  11  12
ENDBRANCH  10  11
ENDBRANCH   7  10
ENDBRANCH   6   7
ENDBRANCH   4   6
ENDBRANCH   2   4
TORSDOF 11
ENDMDL
MODEL       58
REMARK 921   NORMALIZED FREE ENERGY PREDICTED BY IDOCK:   -4.84 KCAL/MOL
REMARK 922        TOTAL FREE ENERGY PREDICTED BY IDOCK:   -9.27 KCAL/MOL
REMARK 923 INTER-LIGAND FREE ENERGY PREDICTED BY IDOCK:   -8.18 KCAL/MOL
REMARK 924 INTRA-LIGAND FREE ENERGY PREDICTED BY IDOCK:   -1.10 KCAL/MOL
REMARK 927      BINDING AFFINITY PREDICTED BY RF-SCORE:    0.00 PKD
ROOT
HETATM    1  C   UNL     1      -9.681   8.827  66.240  1.00  0.00    -0.342 C  
HETATM    2  C   UNL     1      -9.122   9.945  65.356  1.00  0.00    -0.196 C  
HETATM    3  C   UNL     1      -7.991   9.390  64.487  1.00  0.00    -0.126 C  
ENDROOT
BRANCH   2   4
HETATM    4  N   UNL     1     -10.215  10.486  64.544  1.00  0.00    -0.337 NA 
HETATM    5  H   UNL     1     -11.104  10.406  65.036  1.00  0.00     0.000 HD 
BRANCH   4   6
HETATM    6  C   UNL     1      -9.983  11.870  64.104  1.00  0.00    -0.262 C  
BRANCH   6   7
HETATM    7  C   UNL     1     -11.257  12.443  63.460  1.00  0.00    -0.469 C  
HETATM    8  O   UNL     1     -11.963  11.396  62.772  1.00  0.00    -0.745 OA 
HETATM    9  H   UNL     1     -12.750  11.751  62.375  1.00  0.00     0.000 HD 
BRANCH   7  10
HETATM   10  C   UNL     1     -12.180  13.075  64.511  1.00  0.00    -0.416 C  
BRANCH  10  11
HETATM   11  O   UNL     1     -11.964  12.427  65.772  1.00  0.00    -0.481 OA 
BRANCH  11  12
HETATM   12  C   UNL     1     -11.541  13.250  66.781  1.00  0.00    -0.365 A  
HETATM   13  C   UNL     1     -11.104  14.559  66.605  1.00  0.00    -0.333 A  
HETATM   14  C   UNL     1     -10.692  15.316  67.703  1.00  0.00    -0.282 A  
HETATM   15  C   UNL     1     -10.735  14.785  69.001  1.00  0.00    -0.251 A  
HETATM   16  C   UNL     1     -11.195  13.474  69.172  1.00  0.00    -0.310 A  
HETATM   17  C   UNL     1     -11.601  12.714  68.069  1.00  0.00    -0.394 A  
BRANCH  15  18
HETATM   18  C   UNL     1     -10.287  15.614  70.180  1.00  0.00    -0.268 C  
BRANCH  18  19
HETATM   19  C   UNL     1     -11.399  16.519  70.712  1.00  0.00    -0.036 C  
BRANCH  19  20
HETATM   20  O   UNL     1     -12.472  15.723  71.220  1.00  0.00    -0.418 OA 
BRANCH  20  21
HETATM   21  C   UNL     1     -12.157  15.232  72.524  1.00  0.00    -0.407 C  
BRANCH  21  22
HETATM   22  C   UNL     1     -13.213  14.265  72.951  1.00  0.00    -0.593 C  
HETATM   23  C   UNL     1     -14.374  13.982  72.030  1.00  0.00    -0.548 C  
HETATM   24  C   UNL     1     -13.345  12.917  72.289  1.00  0.00    -0.597 C  
ENDBRANCH  21  22
ENDBRANCH  20  21
ENDBRANCH  19  20
ENDBRANCH  18  19
ENDBRANCH  15  18
ENDBRANCH  11  12
ENDBRANCH  10  11
ENDBRANCH   7  10
ENDBRANCH   6   7
ENDBRANCH   4   6
ENDBRANCH   2   4
TORSDOF 11
ENDMDL
MODEL       59
REMARK 921   NORMALIZED FREE ENERGY PREDICTED BY IDOCK:   -4.83 KCAL/MOL
REMARK 922        TOTAL FREE ENERGY PREDICTED BY IDOCK:   -9.26 KCAL/MOL
REMARK 923 INTER-LIGAND FREE ENERGY PREDICTED BY IDOCK:   -8.54 KCAL/MOL
REMARK 924 INTRA-LIGAND FREE ENERGY PREDICTED BY IDOCK:   -0.72 KCAL/MOL
REMARK 927      BINDING AFFINITY PREDICTED BY RF-SCORE:    0.00 PKD
ROOT
HETATM    1  C   UNL     1     -13.618   7.164  71.496  1.00  0.00    -0.408 C  
HETATM    2  C   UNL     1     -12.121   7.075  71.188  1.00  0.00    -0.369 C  
HETATM    3  C   UNL     1     -11.476   6.023  72.092  1.00  0.00    -0.356 C  
ENDROOT
BRANCH   2   4
HETATM    4  N   UNL     1     -11.957   6.747  69.769  1.00  0.00    -0.647 NA 
HETATM    5  H   UNL     1     -12.483   7.396  69.184  1.00  0.00     0.000 HD 
BRANCH   4   6
HETATM    6  C   UNL     1     -10.550   6.684  69.346  1.00  0.00    -0.240 C  
BRANCH   6   7
HETATM    7  C   UNL     1     -10.443   6.905  67.826  1.00  0.00    -0.223 C  
HETATM    8  O   UNL     1     -11.609   6.371  67.177  1.00  0.00    -0.708 OA 
HETATM    9  H   UNL     1     -11.542   6.508  66.239  1.00  0.00     0.000 HD 
BRANCH   7  10
HETATM   10  C   UNL     1     -10.308   8.396  67.487  1.00  0.00    -0.265 C  
BRANCH  10  11
HETATM   11  O   UNL     1     -10.698   9.172  68.629  1.00  0.00    -0.197 OA 
BRANCH  11  12
HETATM   12  C   UNL     1     -10.997  10.482  68.364  1.00  0.00    -0.261 A  
HETATM   13  C   UNL     1     -11.006  11.051  67.094  1.00  0.00    -0.344 A  
HETATM   14  C   UNL     1     -11.325  12.400  66.932  1.00  0.00    -0.392 A  
HETATM   15  C   UNL     1     -11.666  13.198  68.035  1.00  0.00    -0.394 A  
HETATM   16  C   UNL     1     -11.673  12.613  69.306  1.00  0.00    -0.379 A  
HETATM   17  C   UNL     1     -11.347  11.262  69.468  1.00  0.00    -0.362 A  
BRANCH  15  18
HETATM   18  C   UNL     1     -12.009  14.655  67.845  1.00  0.00    -0.299 C  
BRANCH  18  19
HETATM   19  C   UNL     1     -10.858  15.449  67.226  1.00  0.00    -0.316 C  
BRANCH  19  20
HETATM   20  O   UNL     1     -10.784  16.745  67.825  1.00  0.00    -0.337 OA 
BRANCH  20  21
HETATM   21  C   UNL     1     -10.325  17.709  66.877  1.00  0.00    -0.329 C  
BRANCH  21  22
HETATM   22  C   UNL     1     -10.729  19.074  67.332  1.00  0.00    -0.559 C  
HETATM   23  C   UNL     1      -9.941  19.753  68.424  1.00  0.00    -0.549 C  
HETATM   24  C   UNL     1      -9.881  20.280  67.018  1.00  0.00    -0.607 C  
ENDBRANCH  21  22
ENDBRANCH  20  21
ENDBRANCH  19  20
ENDBRANCH  18  19
ENDBRANCH  15  18
ENDBRANCH  11  12
ENDBRANCH  10  11
ENDBRANCH   7  10
ENDBRANCH   6   7
ENDBRANCH   4   6
ENDBRANCH   2   4
TORSDOF 11
ENDMDL
MODEL       60
REMARK 921   NORMALIZED FREE ENERGY PREDICTED BY IDOCK:   -4.82 KCAL/MOL
REMARK 922        TOTAL FREE ENERGY PREDICTED BY IDOCK:   -9.23 KCAL/MOL
REMARK 923 INTER-LIGAND FREE ENERGY PREDICTED BY IDOCK:   -8.12 KCAL/MOL
REMARK 924 INTRA-LIGAND FREE ENERGY PREDICTED BY IDOCK:   -1.12 KCAL/MOL
REMARK 927      BINDING AFFINITY PREDICTED BY RF-SCORE:    0.00 PKD
ROOT
HETATM    1  C   UNL     1      -9.378   6.664  69.699  1.00  0.00    -0.143 C  
HETATM    2  C   UNL     1     -10.630   7.102  68.934  1.00  0.00    -0.201 C  
HETATM    3  C   UNL     1     -10.853   6.168  67.742  1.00  0.00    -0.413 C  
ENDROOT
BRANCH   2   4
HETATM    4  N   UNL     1     -11.768   7.085  69.857  1.00  0.00    -0.587 NA 
HETATM    5  H   UNL     1     -12.508   6.478  69.507  1.00  0.00     0.000 HD 
BRANCH   4   6
HETATM    6  C   UNL     1     -11.397   6.718  71.232  1.00  0.00    -0.289 C  
BRANCH   6   7
HETATM    7  C   UNL     1     -11.914   7.777  72.222  1.00  0.00    -0.309 C  
HETATM    8  O   UNL     1     -11.336   7.548  73.519  1.00  0.00    -0.620 OA 
HETATM    9  H   UNL     1     -11.656   8.201  74.130  1.00  0.00     0.000 HD 
BRANCH   7  10
HETATM   10  C   UNL     1     -11.569   9.197  71.754  1.00  0.00    -0.387 C  
BRANCH  10  11
HETATM   11  O   UNL     1     -12.734   9.790  71.163  1.00  0.00    -0.320 OA 
BRANCH  11  12
HETATM   12  C   UNL     1     -12.717  11.158  71.100  1.00  0.00    -0.408 A  
HETATM   13  C   UNL     1     -13.307  12.002  72.035  1.00  0.00    -0.447 A  
HETATM   14  C   UNL     1     -13.233  13.387  71.877  1.00  0.00    -0.522 A  
HETATM   15  C   UNL     1     -12.544  13.952  70.793  1.00  0.00    -0.424 A  
HETATM   16  C   UNL     1     -11.937  13.097  69.867  1.00  0.00    -0.387 A  
HETATM   17  C   UNL     1     -12.018  11.708  70.024  1.00  0.00    -0.429 A  
BRANCH  15  18
HETATM   18  C   UNL     1     -12.471  15.451  70.634  1.00  0.00    -0.478 C  
BRANCH  18  19
HETATM   19  C   UNL     1     -11.647  15.868  69.416  1.00  0.00    -0.349 C  
BRANCH  19  20
HETATM   20  O   UNL     1     -10.336  16.263  69.828  1.00  0.00    -0.267 OA 
BRANCH  20  21
HETATM   21  C   UNL     1      -9.371  15.904  68.838  1.00  0.00    -0.233 C  
BRANCH  21  22
HETATM   22  C   UNL     1     -10.074  15.604  67.555  1.00  0.00    -0.253 C  
HETATM   23  C   UNL     1      -9.374  15.872  66.246  1.00  0.00    -0.357 C  
HETATM   24  C   UNL     1      -9.637  14.457  66.679  1.00  0.00    -0.295 C  
ENDBRANCH  21  22
ENDBRANCH  20  21
ENDBRANCH  19  20
ENDBRANCH  18  19
ENDBRANCH  15  18
ENDBRANCH  11  12
ENDBRANCH  10  11
ENDBRANCH   7  10
ENDBRANCH   6   7
ENDBRANCH   4   6
ENDBRANCH   2   4
TORSDOF 11
ENDMDL
MODEL       61
REMARK 921   NORMALIZED FREE ENERGY PREDICTED BY IDOCK:   -4.79 KCAL/MOL
REMARK 922        TOTAL FREE ENERGY PREDICTED BY IDOCK:   -9.20 KCAL/MOL
REMARK 923 INTER-LIGAND FREE ENERGY PREDICTED BY IDOCK:   -7.56 KCAL/MOL
REMARK 924 INTRA-LIGAND FREE ENERGY PREDICTED BY IDOCK:   -1.63 KCAL/MOL
REMARK 927      BINDING AFFINITY PREDICTED BY RF-SCORE:    0.00 PKD
ROOT
HETATM    1  C   UNL     1     -14.379  14.107  72.166  1.00  0.00    -0.606 C  
HETATM    2  C   UNL     1     -13.598  15.423  72.209  1.00  0.00    -0.503 C  
HETATM    3  C   UNL     1     -12.350  15.248  73.077  1.00  0.00    -0.525 C  
ENDROOT
BRANCH   2   4
HETATM    4  N   UNL     1     -13.255  15.804  70.836  1.00  0.00    -0.694 NA 
HETATM    5  H   UNL     1     -13.658  16.711  70.601  1.00  0.00     0.000 HD 
BRANCH   4   6
HETATM    6  C   UNL     1     -11.808  15.792  70.574  1.00  0.00    -0.375 C  
BRANCH   6   7
HETATM    7  C   UNL     1     -11.511  16.431  69.205  1.00  0.00    -0.165 C  
HETATM    8  O   UNL     1     -10.239  17.100  69.251  1.00  0.00    -0.293 OA 
HETATM    9  H   UNL     1     -10.056  17.494  68.407  1.00  0.00     0.000 HD 
BRANCH   7  10
HETATM   10  C   UNL     1     -11.492  15.379  68.088  1.00  0.00    -0.343 C  
BRANCH  10  11
HETATM   11  O   UNL     1     -11.903  14.115  68.630  1.00  0.00    -0.320 OA 
BRANCH  11  12
HETATM   12  C   UNL     1     -11.162  13.040  68.218  1.00  0.00    -0.275 A  
HETATM   13  C   UNL     1      -9.773  13.006  68.171  1.00  0.00    -0.228 A  
HETATM   14  C   UNL     1      -9.112  11.858  67.733  1.00  0.00    -0.180 A  
HETATM   15  C   UNL     1      -9.830  10.713  67.357  1.00  0.00    -0.198 A  
HETATM   16  C   UNL     1     -11.227  10.748  67.425  1.00  0.00    -0.315 A  
HETATM   17  C   UNL     1     -11.889  11.903  67.858  1.00  0.00    -0.308 A  
BRANCH  15  18
HETATM   18  C   UNL     1      -9.104   9.477  66.885  1.00  0.00    -0.158 C  
BRANCH  18  19
HETATM   19  C   UNL     1      -9.179   9.301  65.368  1.00  0.00    -0.222 C  
BRANCH  19  20
HETATM   20  O   UNL     1      -9.016  10.566  64.723  1.00  0.00    -0.187 OA 
BRANCH  20  21
HETATM   21  C   UNL     1      -9.823  10.636  63.547  1.00  0.00    -0.326 C  
BRANCH  21  22
HETATM   22  C   UNL     1     -10.333  12.031  63.385  1.00  0.00    -0.468 C  
HETATM   23  C   UNL     1     -11.652  12.414  64.010  1.00  0.00    -0.488 C  
HETATM   24  C   UNL     1     -10.371  12.984  64.552  1.00  0.00    -0.386 C  
ENDBRANCH  21  22
ENDBRANCH  20  21
ENDBRANCH  19  20
ENDBRANCH  18  19
ENDBRANCH  15  18
ENDBRANCH  11  12
ENDBRANCH  10  11
ENDBRANCH   7  10
ENDBRANCH   6   7
ENDBRANCH   4   6
ENDBRANCH   2   4
TORSDOF 11
ENDMDL
MODEL       62
REMARK 921   NORMALIZED FREE ENERGY PREDICTED BY IDOCK:   -4.79 KCAL/MOL
REMARK 922        TOTAL FREE ENERGY PREDICTED BY IDOCK:   -9.19 KCAL/MOL
REMARK 923 INTER-LIGAND FREE ENERGY PREDICTED BY IDOCK:   -8.13 KCAL/MOL
REMARK 924 INTRA-LIGAND FREE ENERGY PREDICTED BY IDOCK:   -1.07 KCAL/MOL
REMARK 927      BINDING AFFINITY PREDICTED BY RF-SCORE:    0.00 PKD
ROOT
HETATM    1  C   UNL     1      -9.887  11.073  63.526  1.00  0.00    -0.403 C  
HETATM    2  C   UNL     1     -10.706  12.364  63.456  1.00  0.00    -0.430 C  
HETATM    3  C   UNL     1     -12.195  12.020  63.377  1.00  0.00    -0.627 C  
ENDROOT
BRANCH   2   4
HETATM    4  N   UNL     1     -10.398  13.175  64.637  1.00  0.00    -0.473 NA 
HETATM    5  H   UNL     1      -9.398  13.366  64.694  1.00  0.00     0.000 HD 
BRANCH   4   6
HETATM    6  C   UNL     1     -11.174  14.423  64.704  1.00  0.00    -0.360 C  
BRANCH   6   7
HETATM    7  C   UNL     1     -12.013  14.458  65.994  1.00  0.00    -0.367 C  
HETATM    8  O   UNL     1     -13.356  14.030  65.707  1.00  0.00    -0.675 OA 
HETATM    9  H   UNL     1     -13.874  14.051  66.503  1.00  0.00     0.000 HD 
BRANCH   7  10
HETATM   10  C   UNL     1     -11.411  13.554  67.078  1.00  0.00    -0.340 C  
BRANCH  10  11
HETATM   11  O   UNL     1     -12.040  12.266  67.014  1.00  0.00    -0.575 OA 
BRANCH  11  12
HETATM   12  C   UNL     1     -11.621  11.371  67.961  1.00  0.00    -0.286 A  
HETATM   13  C   UNL     1     -11.958  11.426  69.310  1.00  0.00    -0.400 A  
HETATM   14  C   UNL     1     -11.476  10.461  70.195  1.00  0.00    -0.396 A  
HETATM   15  C   UNL     1     -10.668   9.408  69.742  1.00  0.00    -0.250 A  
HETATM   16  C   UNL     1     -10.348   9.347  68.382  1.00  0.00    -0.238 A  
HETATM   17  C   UNL     1     -10.827  10.320  67.496  1.00  0.00    -0.355 A  
BRANCH  15  18
HETATM   18  C   UNL     1     -10.152   8.370  70.711  1.00  0.00    -0.226 C  
BRANCH  18  19
HETATM   19  C   UNL     1     -10.564   8.665  72.153  1.00  0.00    -0.341 C  
BRANCH  19  20
HETATM   20  O   UNL     1     -11.359   7.591  72.662  1.00  0.00    -0.317 OA 
BRANCH  20  21
HETATM   21  C   UNL     1     -10.629   6.846  73.638  1.00  0.00    -0.340 C  
BRANCH  21  22
HETATM   22  C   UNL     1     -10.777   5.387  73.352  1.00  0.00    -0.321 C  
HETATM   23  C   UNL     1     -10.272   4.835  72.041  1.00  0.00    -0.261 C  
HETATM   24  C   UNL     1      -9.576   4.475  73.324  1.00  0.00    -0.144 C  
ENDBRANCH  21  22
ENDBRANCH  20  21
ENDBRANCH  19  20
ENDBRANCH  18  19
ENDBRANCH  15  18
ENDBRANCH  11  12
ENDBRANCH  10  11
ENDBRANCH   7  10
ENDBRANCH   6   7
ENDBRANCH   4   6
ENDBRANCH   2   4
TORSDOF 11
ENDMDL
MODEL       63
REMARK 921   NORMALIZED FREE ENERGY PREDICTED BY IDOCK:   -4.77 KCAL/MOL
REMARK 922        TOTAL FREE ENERGY PREDICTED BY IDOCK:   -9.16 KCAL/MOL
REMARK 923 INTER-LIGAND FREE ENERGY PREDICTED BY IDOCK:   -7.25 KCAL/MOL
REMARK 924 INTRA-LIGAND FREE ENERGY PREDICTED BY IDOCK:   -1.91 KCAL/MOL
REMARK 927      BINDING AFFINITY PREDICTED BY RF-SCORE:    0.00 PKD
ROOT
HETATM    1  C   UNL     1     -11.230  14.189  68.788  1.00  0.00    -0.294 C  
HETATM    2  C   UNL     1     -11.748  15.078  67.655  1.00  0.00    -0.262 C  
HETATM    3  C   UNL     1     -10.596  15.917  67.096  1.00  0.00    -0.316 C  
ENDROOT
BRANCH   2   4
HETATM    4  N   UNL     1     -12.343  14.221  66.626  1.00  0.00    -0.541 NA 
HETATM    5  H   UNL     1     -13.361  14.252  66.675  1.00  0.00     0.000 HD 
BRANCH   4   6
HETATM    6  C   UNL     1     -11.875  14.532  65.267  1.00  0.00    -0.358 C  
BRANCH   6   7
HETATM    7  C   UNL     1     -12.125  13.336  64.332  1.00  0.00    -0.415 C  
HETATM    8  O   UNL     1     -12.387  13.811  63.000  1.00  0.00    -1.089 OA 
HETATM    9  H   UNL     1     -12.541  13.072  62.423  1.00  0.00     0.000 HD 
BRANCH   7  10
HETATM   10  C   UNL     1     -10.921  12.384  64.306  1.00  0.00    -0.351 C  
BRANCH  10  11
HETATM   11  O   UNL     1     -10.127  12.604  65.482  1.00  0.00    -0.273 OA 
BRANCH  11  12
HETATM   12  C   UNL     1      -9.873  11.483  66.225  1.00  0.00    -0.217 A  
HETATM   13  C   UNL     1     -10.347  10.209  65.926  1.00  0.00    -0.221 A  
HETATM   14  C   UNL     1     -10.029   9.130  66.752  1.00  0.00    -0.322 A  
HETATM   15  C   UNL     1      -9.210   9.301  67.878  1.00  0.00    -0.140 A  
HETATM   16  C   UNL     1      -8.722  10.581  68.161  1.00  0.00    -0.130 A  
HETATM   17  C   UNL     1      -9.046  11.664  67.336  1.00  0.00    -0.169 A  
BRANCH  15  18
HETATM   18  C   UNL     1      -8.874   8.125  68.764  1.00  0.00    -0.138 C  
BRANCH  18  19
HETATM   19  C   UNL     1     -10.122   7.417  69.290  1.00  0.00    -0.186 C  
BRANCH  19  20
HETATM   20  O   UNL     1     -10.339   7.767  70.659  1.00  0.00    -0.200 OA 
BRANCH  20  21
HETATM   21  C   UNL     1     -11.626   8.364  70.826  1.00  0.00    -0.232 C  
BRANCH  21  22
HETATM   22  C   UNL     1     -11.460   9.833  71.043  1.00  0.00    -0.458 C  
HETATM   23  C   UNL     1     -12.089  10.800  70.071  1.00  0.00    -0.423 C  
HETATM   24  C   UNL     1     -12.624  10.691  71.472  1.00  0.00    -0.517 C  
ENDBRANCH  21  22
ENDBRANCH  20  21
ENDBRANCH  19  20
ENDBRANCH  18  19
ENDBRANCH  15  18
ENDBRANCH  11  12
ENDBRANCH  10  11
ENDBRANCH   7  10
ENDBRANCH   6   7
ENDBRANCH   4   6
ENDBRANCH   2   4
TORSDOF 11
ENDMDL
MODEL       64
REMARK 921   NORMALIZED FREE ENERGY PREDICTED BY IDOCK:   -4.75 KCAL/MOL
REMARK 922        TOTAL FREE ENERGY PREDICTED BY IDOCK:   -9.13 KCAL/MOL
REMARK 923 INTER-LIGAND FREE ENERGY PREDICTED BY IDOCK:   -7.78 KCAL/MOL
REMARK 924 INTRA-LIGAND FREE ENERGY PREDICTED BY IDOCK:   -1.34 KCAL/MOL
REMARK 927      BINDING AFFINITY PREDICTED BY RF-SCORE:    0.00 PKD
ROOT
HETATM    1  C   UNL     1      -9.614  13.403  68.171  1.00  0.00    -0.222 C  
HETATM    2  C   UNL     1      -9.795  14.842  68.661  1.00  0.00    -0.225 C  
HETATM    3  C   UNL     1     -10.451  15.678  67.560  1.00  0.00    -0.285 C  
ENDROOT
BRANCH   2   4
HETATM    4  N   UNL     1     -10.606  14.818  69.881  1.00  0.00    -0.448 NA 
HETATM    5  H   UNL     1     -10.275  15.514  70.549  1.00  0.00     0.000 HD 
BRANCH   4   6
HETATM    6  C   UNL     1     -12.046  14.983  69.625  1.00  0.00    -0.300 C  
BRANCH   6   7
HETATM    7  C   UNL     1     -12.828  14.944  70.950  1.00  0.00    -0.373 C  
HETATM    8  O   UNL     1     -14.132  15.518  70.757  1.00  0.00    -0.871 OA 
HETATM    9  H   UNL     1     -14.615  15.494  71.575  1.00  0.00     0.000 HD 
BRANCH   7  10
HETATM   10  C   UNL     1     -12.976  13.508  71.471  1.00  0.00    -0.355 C  
BRANCH  10  11
HETATM   11  O   UNL     1     -12.204  12.628  70.640  1.00  0.00    -0.374 OA 
BRANCH  11  12
HETATM   12  C   UNL     1     -12.324  11.298  70.940  1.00  0.00    -0.388 A  
HETATM   13  C   UNL     1     -13.285  10.760  71.790  1.00  0.00    -0.523 A  
HETATM   14  C   UNL     1     -13.320   9.385  72.030  1.00  0.00    -0.525 A  
HETATM   15  C   UNL     1     -12.410   8.521  71.403  1.00  0.00    -0.332 A  
HETATM   16  C   UNL     1     -11.458   9.068  70.535  1.00  0.00    -0.248 A  
HETATM   17  C   UNL     1     -11.420  10.447  70.300  1.00  0.00    -0.406 A  
BRANCH  15  18
HETATM   18  C   UNL     1     -12.459   7.036  71.671  1.00  0.00    -0.413 C  
BRANCH  18  19
HETATM   19  C   UNL     1     -11.353   6.275  70.939  1.00  0.00    -0.325 C  
BRANCH  19  20
HETATM   20  O   UNL     1     -10.697   5.382  71.842  1.00  0.00    -0.226 OA 
BRANCH  20  21
HETATM   21  C   UNL     1     -10.475   6.018  73.101  1.00  0.00    -0.230 C  
BRANCH  21  22
HETATM   22  C   UNL     1      -9.125   6.659  73.096  1.00  0.00    -0.141 C  
HETATM   23  C   UNL     1      -9.018   8.161  73.183  1.00  0.00    -0.330 C  
HETATM   24  C   UNL     1      -8.569   7.309  74.337  1.00  0.00    -0.242 C  
ENDBRANCH  21  22
ENDBRANCH  20  21
ENDBRANCH  19  20
ENDBRANCH  18  19
ENDBRANCH  15  18
ENDBRANCH  11  12
ENDBRANCH  10  11
ENDBRANCH   7  10
ENDBRANCH   6   7
ENDBRANCH   4   6
ENDBRANCH   2   4
TORSDOF 11
ENDMDL
MODEL       65
REMARK 921   NORMALIZED FREE ENERGY PREDICTED BY IDOCK:   -4.74 KCAL/MOL
REMARK 922        TOTAL FREE ENERGY PREDICTED BY IDOCK:   -9.11 KCAL/MOL
REMARK 923 INTER-LIGAND FREE ENERGY PREDICTED BY IDOCK:   -7.50 KCAL/MOL
REMARK 924 INTRA-LIGAND FREE ENERGY PREDICTED BY IDOCK:   -1.61 KCAL/MOL
REMARK 927      BINDING AFFINITY PREDICTED BY RF-SCORE:    0.00 PKD
ROOT
HETATM    1  C   UNL     1     -10.764  16.883  67.434  1.00  0.00    -0.241 C  
HETATM    2  C   UNL     1      -9.872  16.775  66.194  1.00  0.00    -0.309 C  
HETATM    3  C   UNL     1      -8.870  15.634  66.384  1.00  0.00    -0.365 C  
ENDROOT
BRANCH   2   4
HETATM    4  N   UNL     1     -10.726  16.559  65.024  1.00  0.00    -0.692 NA 
HETATM    5  H   UNL     1     -10.447  17.166  64.254  1.00  0.00     0.000 HD 
BRANCH   4   6
HETATM    6  C   UNL     1     -10.773  15.154  64.590  1.00  0.00    -0.208 C  
BRANCH   6   7
HETATM    7  C   UNL     1     -12.234  14.688  64.456  1.00  0.00    -0.456 C  
HETATM    8  O   UNL     1     -12.442  14.123  63.150  1.00  0.00    -1.126 OA 
HETATM    9  H   UNL     1     -13.344  13.836  63.068  1.00  0.00     0.000 HD 
BRANCH   7  10
HETATM   10  C   UNL     1     -12.588  13.644  65.524  1.00  0.00    -0.496 C  
BRANCH  10  11
HETATM   11  O   UNL     1     -11.420  12.868  65.825  1.00  0.00    -0.311 OA 
BRANCH  11  12
HETATM   12  C   UNL     1     -11.437  12.245  67.044  1.00  0.00    -0.354 A  
HETATM   13  C   UNL     1     -11.744  12.869  68.249  1.00  0.00    -0.390 A  
HETATM   14  C   UNL     1     -11.733  12.141  69.440  1.00  0.00    -0.391 A  
HETATM   15  C   UNL     1     -11.440  10.769  69.443  1.00  0.00    -0.366 A  
HETATM   16  C   UNL     1     -11.152  10.145  68.225  1.00  0.00    -0.285 A  
HETATM   17  C   UNL     1     -11.157  10.877  67.032  1.00  0.00    -0.271 A  
BRANCH  15  18
HETATM   18  C   UNL     1     -11.432   9.994  70.738  1.00  0.00    -0.438 C  
BRANCH  18  19
HETATM   19  C   UNL     1     -10.475   8.802  70.697  1.00  0.00    -0.210 C  
BRANCH  19  20
HETATM   20  O   UNL     1      -9.149   9.232  71.013  1.00  0.00    -0.239 OA 
BRANCH  20  21
HETATM   21  C   UNL     1      -8.199   8.592  70.160  1.00  0.00    -0.121 C  
BRANCH  21  22
HETATM   22  C   UNL     1      -7.312   9.628  69.551  1.00  0.00    -0.084 C  
HETATM   23  C   UNL     1      -7.599  10.119  68.153  1.00  0.00    -0.087 C  
HETATM   24  C   UNL     1      -7.802  11.036  69.326  1.00  0.00    -0.056 C  
ENDBRANCH  21  22
ENDBRANCH  20  21
ENDBRANCH  19  20
ENDBRANCH  18  19
ENDBRANCH  15  18
ENDBRANCH  11  12
ENDBRANCH  10  11
ENDBRANCH   7  10
ENDBRANCH   6   7
ENDBRANCH   4   6
ENDBRANCH   2   4
TORSDOF 11
ENDMDL
MODEL       66
REMARK 921   NORMALIZED FREE ENERGY PREDICTED BY IDOCK:   -4.74 KCAL/MOL
REMARK 922        TOTAL FREE ENERGY PREDICTED BY IDOCK:   -9.10 KCAL/MOL
REMARK 923 INTER-LIGAND FREE ENERGY PREDICTED BY IDOCK:   -8.07 KCAL/MOL
REMARK 924 INTRA-LIGAND FREE ENERGY PREDICTED BY IDOCK:   -1.03 KCAL/MOL
REMARK 927      BINDING AFFINITY PREDICTED BY RF-SCORE:    0.00 PKD
ROOT
HETATM    1  C   UNL     1     -13.243   7.189  71.375  1.00  0.00    -0.391 C  
HETATM    2  C   UNL     1     -11.839   7.186  71.985  1.00  0.00    -0.295 C  
HETATM    3  C   UNL     1     -10.893   6.387  71.086  1.00  0.00    -0.308 C  
ENDROOT
BRANCH   2   4
HETATM    4  N   UNL     1     -11.398   8.573  72.142  1.00  0.00    -0.352 NA 
HETATM    5  H   UNL     1     -10.422   8.676  71.864  1.00  0.00     0.000 HD 
BRANCH   4   6
HETATM    6  C   UNL     1     -12.248   9.539  71.429  1.00  0.00    -0.371 C  
BRANCH   6   7
HETATM    7  C   UNL     1     -11.435  10.261  70.340  1.00  0.00    -0.335 C  
HETATM    8  O   UNL     1     -11.440   9.477  69.134  1.00  0.00    -0.450 OA 
HETATM    9  H   UNL     1     -10.938   9.924  68.463  1.00  0.00     0.000 HD 
BRANCH   7  10
HETATM   10  C   UNL     1     -12.008  11.654  70.045  1.00  0.00    -0.351 C  
BRANCH  10  11
HETATM   11  O   UNL     1     -12.262  11.765  68.637  1.00  0.00    -0.405 OA 
BRANCH  11  12
HETATM   12  C   UNL     1     -11.725  12.872  68.038  1.00  0.00    -0.356 A  
HETATM   13  C   UNL     1     -11.080  13.904  68.713  1.00  0.00    -0.291 A  
HETATM   14  C   UNL     1     -10.566  14.992  68.006  1.00  0.00    -0.250 A  
HETATM   15  C   UNL     1     -10.665  15.055  66.607  1.00  0.00    -0.312 A  
HETATM   16  C   UNL     1     -11.297  14.004  65.934  1.00  0.00    -0.317 A  
HETATM   17  C   UNL     1     -11.818  12.916  66.645  1.00  0.00    -0.461 A  
BRANCH  15  18
HETATM   18  C   UNL     1     -10.104  16.237  65.855  1.00  0.00    -0.381 C  
BRANCH  18  19
HETATM   19  C   UNL     1      -8.610  16.436  66.111  1.00  0.00    -0.308 C  
BRANCH  19  20
HETATM   20  O   UNL     1      -8.332  17.823  66.315  1.00  0.00    -0.364 OA 
BRANCH  20  21
HETATM   21  C   UNL     1      -8.544  18.181  67.682  1.00  0.00    -0.251 C  
BRANCH  21  22
HETATM   22  C   UNL     1      -9.418  19.391  67.741  1.00  0.00    -0.406 C  
HETATM   23  C   UNL     1     -10.019  19.933  66.468  1.00  0.00    -0.591 C  
HETATM   24  C   UNL     1     -10.903  19.290  67.500  1.00  0.00    -0.524 C  
ENDBRANCH  21  22
ENDBRANCH  20  21
ENDBRANCH  19  20
ENDBRANCH  18  19
ENDBRANCH  15  18
ENDBRANCH  11  12
ENDBRANCH  10  11
ENDBRANCH   7  10
ENDBRANCH   6   7
ENDBRANCH   4   6
ENDBRANCH   2   4
TORSDOF 11
ENDMDL
MODEL       67
REMARK 921   NORMALIZED FREE ENERGY PREDICTED BY IDOCK:   -4.72 KCAL/MOL
REMARK 922        TOTAL FREE ENERGY PREDICTED BY IDOCK:   -9.09 KCAL/MOL
REMARK 923 INTER-LIGAND FREE ENERGY PREDICTED BY IDOCK:   -8.31 KCAL/MOL
REMARK 924 INTRA-LIGAND FREE ENERGY PREDICTED BY IDOCK:   -0.77 KCAL/MOL
REMARK 927      BINDING AFFINITY PREDICTED BY RF-SCORE:    0.00 PKD
ROOT
HETATM    1  C   UNL     1     -10.064   5.151  69.035  1.00  0.00    -0.257 C  
HETATM    2  C   UNL     1     -10.328   6.541  68.450  1.00  0.00    -0.189 C  
HETATM    3  C   UNL     1     -10.999   6.401  67.082  1.00  0.00    -0.476 C  
ENDROOT
BRANCH   2   4
HETATM    4  N   UNL     1     -11.164   7.290  69.391  1.00  0.00    -0.462 NA 
HETATM    5  H   UNL     1     -11.883   7.817  68.896  1.00  0.00     0.000 HD 
BRANCH   4   6
HETATM    6  C   UNL     1     -11.763   6.446  70.437  1.00  0.00    -0.321 C  
BRANCH   6   7
HETATM    7  C   UNL     1     -12.317   7.322  71.574  1.00  0.00    -0.362 C  
HETATM    8  O   UNL     1     -11.992   6.729  72.843  1.00  0.00    -0.474 OA 
HETATM    9  H   UNL     1     -12.335   7.270  73.544  1.00  0.00     0.000 HD 
BRANCH   7  10
HETATM   10  C   UNL     1     -11.743   8.745  71.515  1.00  0.00    -0.309 C  
BRANCH  10  11
HETATM   11  O   UNL     1     -12.766   9.677  71.897  1.00  0.00    -0.374 OA 
BRANCH  11  12
HETATM   12  C   UNL     1     -12.621  10.937  71.382  1.00  0.00    -0.403 A  
HETATM   13  C   UNL     1     -13.084  12.100  71.989  1.00  0.00    -0.462 A  
HETATM   14  C   UNL     1     -12.883  13.339  71.378  1.00  0.00    -0.411 A  
HETATM   15  C   UNL     1     -12.193  13.439  70.161  1.00  0.00    -0.385 A  
HETATM   16  C   UNL     1     -11.714  12.267  69.566  1.00  0.00    -0.398 A  
HETATM   17  C   UNL     1     -11.921  11.024  70.176  1.00  0.00    -0.443 A  
BRANCH  15  18
HETATM   18  C   UNL     1     -11.984  14.785  69.510  1.00  0.00    -0.351 C  
BRANCH  18  19
HETATM   19  C   UNL     1     -10.950  14.734  68.385  1.00  0.00    -0.252 C  
BRANCH  19  20
HETATM   20  O   UNL     1     -11.609  14.570  67.127  1.00  0.00    -0.359 OA 
BRANCH  20  21
HETATM   21  C   UNL     1     -10.662  14.274  66.100  1.00  0.00    -0.295 C  
BRANCH  21  22
HETATM   22  C   UNL     1     -11.028  12.978  65.454  1.00  0.00    -0.297 C  
HETATM   23  C   UNL     1     -12.434  12.777  64.944  1.00  0.00    -0.563 C  
HETATM   24  C   UNL     1     -11.295  12.897  63.972  1.00  0.00    -0.466 C  
ENDBRANCH  21  22
ENDBRANCH  20  21
ENDBRANCH  19  20
ENDBRANCH  18  19
ENDBRANCH  15  18
ENDBRANCH  11  12
ENDBRANCH  10  11
ENDBRANCH   7  10
ENDBRANCH   6   7
ENDBRANCH   4   6
ENDBRANCH   2   4
TORSDOF 11
ENDMDL
MODEL       68
REMARK 921   NORMALIZED FREE ENERGY PREDICTED BY IDOCK:   -4.72 KCAL/MOL
REMARK 922        TOTAL FREE ENERGY PREDICTED BY IDOCK:   -9.08 KCAL/MOL
REMARK 923 INTER-LIGAND FREE ENERGY PREDICTED BY IDOCK:   -7.81 KCAL/MOL
REMARK 924 INTRA-LIGAND FREE ENERGY PREDICTED BY IDOCK:   -1.27 KCAL/MOL
REMARK 927      BINDING AFFINITY PREDICTED BY RF-SCORE:    0.00 PKD
ROOT
HETATM    1  C   UNL     1     -13.738   7.358  71.581  1.00  0.00    -0.468 C  
HETATM    2  C   UNL     1     -12.240   7.339  71.268  1.00  0.00    -0.354 C  
HETATM    3  C   UNL     1     -11.515   6.464  72.293  1.00  0.00    -0.339 C  
ENDROOT
BRANCH   2   4
HETATM    4  N   UNL     1     -12.056   6.841  69.903  1.00  0.00    -0.625 NA 
HETATM    5  H   UNL     1     -12.242   7.576  69.221  1.00  0.00     0.000 HD 
BRANCH   4   6
HETATM    6  C   UNL     1     -10.733   6.240  69.675  1.00  0.00    -0.306 C  
BRANCH   6   7
HETATM    7  C   UNL     1     -10.317   6.414  68.204  1.00  0.00    -0.192 C  
HETATM    8  O   UNL     1     -11.487   6.424  67.369  1.00  0.00    -0.705 OA 
HETATM    9  H   UNL     1     -11.229   6.531  66.461  1.00  0.00     0.000 HD 
BRANCH   7  10
HETATM   10  C   UNL     1      -9.531   7.715  67.995  1.00  0.00    -0.143 C  
BRANCH  10  11
HETATM   11  O   UNL     1     -10.328   8.820  68.447  1.00  0.00    -0.202 OA 
BRANCH  11  12
HETATM   12  C   UNL     1     -10.573   9.780  67.503  1.00  0.00    -0.275 A  
HETATM   13  C   UNL     1     -11.338  10.923  67.714  1.00  0.00    -0.366 A  
HETATM   14  C   UNL     1     -11.527  11.842  66.682  1.00  0.00    -0.382 A  
HETATM   15  C   UNL     1     -10.933  11.648  65.426  1.00  0.00    -0.328 A  
HETATM   16  C   UNL     1     -10.150  10.506  65.226  1.00  0.00    -0.369 A  
HETATM   17  C   UNL     1      -9.966   9.581  66.261  1.00  0.00    -0.344 A  
BRANCH  15  18
HETATM   18  C   UNL     1     -11.146  12.650  64.317  1.00  0.00    -0.405 C  
BRANCH  18  19
HETATM   19  C   UNL     1     -11.947  13.868  64.779  1.00  0.00    -0.406 C  
BRANCH  19  20
HETATM   20  O   UNL     1     -11.204  15.063  64.525  1.00  0.00    -0.343 OA 
BRANCH  20  21
HETATM   21  C   UNL     1     -10.222  15.268  65.542  1.00  0.00    -0.388 C  
BRANCH  21  22
HETATM   22  C   UNL     1     -10.903  15.348  66.870  1.00  0.00    -0.313 C  
HETATM   23  C   UNL     1     -10.074  15.304  68.130  1.00  0.00    -0.229 C  
HETATM   24  C   UNL     1     -10.773  16.575  67.736  1.00  0.00    -0.329 C  
ENDBRANCH  21  22
ENDBRANCH  20  21
ENDBRANCH  19  20
ENDBRANCH  18  19
ENDBRANCH  15  18
ENDBRANCH  11  12
ENDBRANCH  10  11
ENDBRANCH   7  10
ENDBRANCH   6   7
ENDBRANCH   4   6
ENDBRANCH   2   4
TORSDOF 11
ENDMDL
MODEL       69
REMARK 921   NORMALIZED FREE ENERGY PREDICTED BY IDOCK:   -4.72 KCAL/MOL
REMARK 922        TOTAL FREE ENERGY PREDICTED BY IDOCK:   -9.07 KCAL/MOL
REMARK 923 INTER-LIGAND FREE ENERGY PREDICTED BY IDOCK:   -8.45 KCAL/MOL
REMARK 924 INTRA-LIGAND FREE ENERGY PREDICTED BY IDOCK:   -0.63 KCAL/MOL
REMARK 927      BINDING AFFINITY PREDICTED BY RF-SCORE:    0.00 PKD
ROOT
HETATM    1  C   UNL     1      -6.758  20.877  67.039  1.00  0.00    -0.396 C  
HETATM    2  C   UNL     1      -7.385  20.092  65.884  1.00  0.00    -0.309 C  
HETATM    3  C   UNL     1      -7.060  18.604  66.043  1.00  0.00    -0.302 C  
ENDROOT
BRANCH   2   4
HETATM    4  N   UNL     1      -8.830  20.335  65.886  1.00  0.00    -0.555 NA 
HETATM    5  H   UNL     1      -9.285  19.816  65.136  1.00  0.00     0.000 HD 
BRANCH   4   6
HETATM    6  C   UNL     1      -9.466  20.049  67.181  1.00  0.00    -0.386 C  
BRANCH   6   7
HETATM    7  C   UNL     1     -10.667  19.107  66.986  1.00  0.00    -0.448 C  
HETATM    8  O   UNL     1     -10.655  18.580  65.648  1.00  0.00    -0.616 OA 
HETATM    9  H   UNL     1     -11.397  17.998  65.528  1.00  0.00     0.000 HD 
BRANCH   7  10
HETATM   10  C   UNL     1     -10.637  17.946  67.990  1.00  0.00    -0.356 C  
BRANCH  10  11
HETATM   11  O   UNL     1     -10.835  16.713  67.285  1.00  0.00    -0.273 OA 
BRANCH  11  12
HETATM   12  C   UNL     1     -11.224  15.657  68.064  1.00  0.00    -0.339 A  
HETATM   13  C   UNL     1     -11.461  14.369  67.595  1.00  0.00    -0.369 A  
HETATM   14  C   UNL     1     -11.855  13.361  68.476  1.00  0.00    -0.401 A  
HETATM   15  C   UNL     1     -11.994  13.618  69.848  1.00  0.00    -0.415 A  
HETATM   16  C   UNL     1     -11.736  14.911  70.316  1.00  0.00    -0.352 A  
HETATM   17  C   UNL     1     -11.347  15.922  69.430  1.00  0.00    -0.349 A  
BRANCH  15  18
HETATM   18  C   UNL     1     -12.421  12.519  70.791  1.00  0.00    -0.357 C  
BRANCH  18  19
HETATM   19  C   UNL     1     -12.128  11.126  70.233  1.00  0.00    -0.377 C  
BRANCH  19  20
HETATM   20  O   UNL     1     -11.581  10.295  71.260  1.00  0.00    -0.344 OA 
BRANCH  20  21
HETATM   21  C   UNL     1     -12.617   9.562  71.915  1.00  0.00    -0.396 C  
BRANCH  21  22
HETATM   22  C   UNL     1     -12.173   8.147  72.100  1.00  0.00    -0.398 C  
HETATM   23  C   UNL     1     -12.938   7.036  71.424  1.00  0.00    -0.395 C  
HETATM   24  C   UNL     1     -11.547   7.375  70.967  1.00  0.00    -0.315 C  
ENDBRANCH  21  22
ENDBRANCH  20  21
ENDBRANCH  19  20
ENDBRANCH  18  19
ENDBRANCH  15  18
ENDBRANCH  11  12
ENDBRANCH  10  11
ENDBRANCH   7  10
ENDBRANCH   6   7
ENDBRANCH   4   6
ENDBRANCH   2   4
TORSDOF 11
ENDMDL
MODEL       70
REMARK 921   NORMALIZED FREE ENERGY PREDICTED BY IDOCK:   -4.71 KCAL/MOL
REMARK 922        TOTAL FREE ENERGY PREDICTED BY IDOCK:   -9.07 KCAL/MOL
REMARK 923 INTER-LIGAND FREE ENERGY PREDICTED BY IDOCK:   -8.21 KCAL/MOL
REMARK 924 INTRA-LIGAND FREE ENERGY PREDICTED BY IDOCK:   -0.86 KCAL/MOL
REMARK 927      BINDING AFFINITY PREDICTED BY RF-SCORE:    0.00 PKD
ROOT
HETATM    1  C   UNL     1     -11.818   7.926  72.327  1.00  0.00    -0.404 C  
HETATM    2  C   UNL     1     -12.863   7.162  71.510  1.00  0.00    -0.391 C  
HETATM    3  C   UNL     1     -14.212   7.877  71.610  1.00  0.00    -0.564 C  
ENDROOT
BRANCH   2   4
HETATM    4  N   UNL     1     -12.397   7.075  70.124  1.00  0.00    -0.531 NA 
HETATM    5  H   UNL     1     -12.720   7.876  69.582  1.00  0.00     0.000 HD 
BRANCH   4   6
HETATM    6  C   UNL     1     -10.938   6.921  70.009  1.00  0.00    -0.279 C  
BRANCH   6   7
HETATM    7  C   UNL     1     -10.397   7.813  68.877  1.00  0.00    -0.213 C  
HETATM    8  O   UNL     1     -11.203   7.639  67.699  1.00  0.00    -0.480 OA 
HETATM    9  H   UNL     1     -10.869   8.189  67.000  1.00  0.00     0.000 HD 
BRANCH   7  10
HETATM   10  C   UNL     1     -10.400   9.293  69.282  1.00  0.00    -0.215 C  
BRANCH  10  11
HETATM   11  O   UNL     1     -11.541   9.935  68.695  1.00  0.00     0.015 OA 
BRANCH  11  12
HETATM   12  C   UNL     1     -11.738  11.233  69.085  1.00  0.00    -0.341 A  
HETATM   13  C   UNL     1     -12.093  11.630  70.370  1.00  0.00    -0.462 A  
HETATM   14  C   UNL     1     -12.269  12.983  70.664  1.00  0.00    -0.390 A  
HETATM   15  C   UNL     1     -12.069  13.965  69.683  1.00  0.00    -0.404 A  
HETATM   16  C   UNL     1     -11.694  13.560  68.398  1.00  0.00    -0.393 A  
HETATM   17  C   UNL     1     -11.523  12.202  68.103  1.00  0.00    -0.375 A  
BRANCH  15  18
HETATM   18  C   UNL     1     -12.264  15.425  70.014  1.00  0.00    -0.392 C  
BRANCH  18  19
HETATM   19  C   UNL     1     -10.950  16.207  69.997  1.00  0.00    -0.364 C  
BRANCH  19  20
HETATM   20  O   UNL     1     -10.882  17.018  68.821  1.00  0.00    -0.322 OA 
BRANCH  20  21
HETATM   21  C   UNL     1      -9.548  17.481  68.608  1.00  0.00    -0.303 C  
BRANCH  21  22
HETATM   22  C   UNL     1      -9.572  18.608  67.629  1.00  0.00    -0.325 C  
HETATM   23  C   UNL     1     -10.895  19.207  67.221  1.00  0.00    -0.529 C  
HETATM   24  C   UNL     1      -9.938  20.005  68.061  1.00  0.00    -0.550 C  
ENDBRANCH  21  22
ENDBRANCH  20  21
ENDBRANCH  19  20
ENDBRANCH  18  19
ENDBRANCH  15  18
ENDBRANCH  11  12
ENDBRANCH  10  11
ENDBRANCH   7  10
ENDBRANCH   6   7
ENDBRANCH   4   6
ENDBRANCH   2   4
TORSDOF 11
ENDMDL
MODEL       71
REMARK 921   NORMALIZED FREE ENERGY PREDICTED BY IDOCK:   -4.71 KCAL/MOL
REMARK 922        TOTAL FREE ENERGY PREDICTED BY IDOCK:   -9.07 KCAL/MOL
REMARK 923 INTER-LIGAND FREE ENERGY PREDICTED BY IDOCK:   -7.69 KCAL/MOL
REMARK 924 INTRA-LIGAND FREE ENERGY PREDICTED BY IDOCK:   -1.38 KCAL/MOL
REMARK 927      BINDING AFFINITY PREDICTED BY RF-SCORE:    0.00 PKD
ROOT
HETATM    1  C   UNL     1     -10.789  15.177  67.583  1.00  0.00    -0.295 C  
HETATM    2  C   UNL     1     -10.489  15.683  66.170  1.00  0.00    -0.317 C  
HETATM    3  C   UNL     1      -9.054  16.212  66.111  1.00  0.00    -0.382 C  
ENDROOT
BRANCH   2   4
HETATM    4  N   UNL     1     -10.699  14.581  65.227  1.00  0.00    -0.349 NA 
HETATM    5  H   UNL     1     -10.268  13.723  65.571  1.00  0.00     0.000 HD 
BRANCH   4   6
HETATM    6  C   UNL     1     -12.116  14.358  64.900  1.00  0.00    -0.436 C  
BRANCH   6   7
HETATM    7  C   UNL     1     -12.318  12.933  64.356  1.00  0.00    -0.398 C  
HETATM    8  O   UNL     1     -11.812  12.853  63.012  1.00  0.00    -0.827 OA 
HETATM    9  H   UNL     1     -11.937  11.973  62.677  1.00  0.00     0.000 HD 
BRANCH   7  10
HETATM   10  C   UNL     1     -11.604  11.893  65.231  1.00  0.00    -0.216 C  
BRANCH  10  11
HETATM   11  O   UNL     1     -11.945  12.127  66.605  1.00  0.00    -0.616 OA 
BRANCH  11  12
HETATM   12  C   UNL     1     -11.238  11.382  67.511  1.00  0.00    -0.292 A  
HETATM   13  C   UNL     1     -10.289  10.420  67.178  1.00  0.00    -0.290 A  
HETATM   14  C   UNL     1      -9.623   9.715  68.181  1.00  0.00    -0.159 A  
HETATM   15  C   UNL     1      -9.874   9.978  69.536  1.00  0.00    -0.249 A  
HETATM   16  C   UNL     1     -10.815  10.960  69.863  1.00  0.00    -0.205 A  
HETATM   17  C   UNL     1     -11.488  11.662  68.856  1.00  0.00    -0.349 A  
BRANCH  15  18
HETATM   18  C   UNL     1      -9.146   9.207  70.611  1.00  0.00    -0.307 C  
BRANCH  18  19
HETATM   19  C   UNL     1      -9.937   9.142  71.918  1.00  0.00    -0.094 C  
BRANCH  19  20
HETATM   20  O   UNL     1     -10.277   7.785  72.213  1.00  0.00    -0.200 OA 
BRANCH  20  21
HETATM   21  C   UNL     1     -11.616   7.699  72.701  1.00  0.00    -0.317 C  
BRANCH  21  22
HETATM   22  C   UNL     1     -12.545   8.288  71.690  1.00  0.00    -0.355 C  
HETATM   23  C   UNL     1     -13.925   7.703  71.522  1.00  0.00    -0.500 C  
HETATM   24  C   UNL     1     -13.759   9.074  72.115  1.00  0.00    -0.536 C  
ENDBRANCH  21  22
ENDBRANCH  20  21
ENDBRANCH  19  20
ENDBRANCH  18  19
ENDBRANCH  15  18
ENDBRANCH  11  12
ENDBRANCH  10  11
ENDBRANCH   7  10
ENDBRANCH   6   7
ENDBRANCH   4   6
ENDBRANCH   2   4
TORSDOF 11
ENDMDL
MODEL       72
REMARK 921   NORMALIZED FREE ENERGY PREDICTED BY IDOCK:   -4.71 KCAL/MOL
REMARK 922        TOTAL FREE ENERGY PREDICTED BY IDOCK:   -9.06 KCAL/MOL
REMARK 923 INTER-LIGAND FREE ENERGY PREDICTED BY IDOCK:   -7.59 KCAL/MOL
REMARK 924 INTRA-LIGAND FREE ENERGY PREDICTED BY IDOCK:   -1.47 KCAL/MOL
REMARK 927      BINDING AFFINITY PREDICTED BY RF-SCORE:    0.00 PKD
ROOT
HETATM    1  C   UNL     1     -11.233  10.138  70.742  1.00  0.00    -0.414 C  
HETATM    2  C   UNL     1     -12.403  11.118  70.631  1.00  0.00    -0.388 C  
HETATM    3  C   UNL     1     -13.320  10.957  71.846  1.00  0.00    -0.429 C  
ENDROOT
BRANCH   2   4
HETATM    4  N   UNL     1     -11.864  12.476  70.533  1.00  0.00    -0.529 NA 
HETATM    5  H   UNL     1     -11.801  12.771  69.559  1.00  0.00     0.000 HD 
BRANCH   4   6
HETATM    6  C   UNL     1     -12.615  13.459  71.329  1.00  0.00    -0.322 C  
BRANCH   6   7
HETATM    7  C   UNL     1     -12.204  14.888  70.935  1.00  0.00    -0.326 C  
HETATM    8  O   UNL     1     -10.834  15.117  71.309  1.00  0.00    -0.540 OA 
HETATM    9  H   UNL     1     -10.580  15.999  71.066  1.00  0.00     0.000 HD 
BRANCH   7  10
HETATM   10  C   UNL     1     -12.365  15.121  69.427  1.00  0.00    -0.130 C  
BRANCH  10  11
HETATM   11  O   UNL     1     -11.076  15.041  68.801  1.00  0.00    -0.239 OA 
BRANCH  11  12
HETATM   12  C   UNL     1     -11.084  14.562  67.519  1.00  0.00    -0.307 A  
HETATM   13  C   UNL     1     -10.225  14.984  66.509  1.00  0.00    -0.281 A  
HETATM   14  C   UNL     1     -10.317  14.428  65.232  1.00  0.00    -0.427 A  
HETATM   15  C   UNL     1     -11.253  13.422  64.949  1.00  0.00    -0.347 A  
HETATM   16  C   UNL     1     -12.100  12.990  65.975  1.00  0.00    -0.493 A  
HETATM   17  C   UNL     1     -12.011  13.551  67.254  1.00  0.00    -0.408 A  
BRANCH  15  18
HETATM   18  C   UNL     1     -11.342  12.831  63.563  1.00  0.00    -0.480 C  
BRANCH  18  19
HETATM   19  C   UNL     1     -10.886  11.372  63.522  1.00  0.00    -0.353 C  
BRANCH  19  20
HETATM   20  O   UNL     1      -9.558  11.263  64.040  1.00  0.00    -0.233 OA 
BRANCH  20  21
HETATM   21  C   UNL     1      -9.125   9.902  64.027  1.00  0.00    -0.259 C  
BRANCH  21  22
HETATM   22  C   UNL     1      -8.757   9.491  65.415  1.00  0.00    -0.190 C  
HETATM   23  C   UNL     1      -8.948  10.466  66.551  1.00  0.00    -0.161 C  
HETATM   24  C   UNL     1      -9.816   9.242  66.459  1.00  0.00    -0.331 C  
ENDBRANCH  21  22
ENDBRANCH  20  21
ENDBRANCH  19  20
ENDBRANCH  18  19
ENDBRANCH  15  18
ENDBRANCH  11  12
ENDBRANCH  10  11
ENDBRANCH   7  10
ENDBRANCH   6   7
ENDBRANCH   4   6
ENDBRANCH   2   4
TORSDOF 11
ENDMDL
MODEL       73
REMARK 921   NORMALIZED FREE ENERGY PREDICTED BY IDOCK:   -4.69 KCAL/MOL
REMARK 922        TOTAL FREE ENERGY PREDICTED BY IDOCK:   -9.03 KCAL/MOL
REMARK 923 INTER-LIGAND FREE ENERGY PREDICTED BY IDOCK:   -7.58 KCAL/MOL
REMARK 924 INTRA-LIGAND FREE ENERGY PREDICTED BY IDOCK:   -1.45 KCAL/MOL
REMARK 927      BINDING AFFINITY PREDICTED BY RF-SCORE:    0.00 PKD
ROOT
HETATM    1  C   UNL     1     -13.433  13.926  72.369  1.00  0.00    -0.661 C  
HETATM    2  C   UNL     1     -12.683  15.145  71.828  1.00  0.00    -0.349 C  
HETATM    3  C   UNL     1     -12.284  16.056  72.992  1.00  0.00    -0.637 C  
ENDROOT
BRANCH   2   4
HETATM    4  N   UNL     1     -11.513  14.677  71.080  1.00  0.00    -0.510 NA 
HETATM    5  H   UNL     1     -11.762  13.900  70.468  1.00  0.00     0.000 HD 
BRANCH   4   6
HETATM    6  C   UNL     1     -10.843  15.745  70.322  1.00  0.00    -0.351 C  
BRANCH   6   7
HETATM    7  C   UNL     1     -11.547  15.960  68.970  1.00  0.00    -0.389 C  
HETATM    8  O   UNL     1     -11.028  17.142  68.338  1.00  0.00    -0.337 OA 
HETATM    9  H   UNL     1     -11.463  17.274  67.504  1.00  0.00     0.000 HD 
BRANCH   7  10
HETATM   10  C   UNL     1     -11.349  14.756  68.039  1.00  0.00    -0.316 C  
BRANCH  10  11
HETATM   11  O   UNL     1     -12.256  13.712  68.425  1.00  0.00    -0.332 OA 
BRANCH  11  12
HETATM   12  C   UNL     1     -11.777  12.441  68.260  1.00  0.00    -0.345 A  
HETATM   13  C   UNL     1     -11.219  11.950  67.085  1.00  0.00    -0.377 A  
HETATM   14  C   UNL     1     -10.759  10.633  67.021  1.00  0.00    -0.317 A  
HETATM   15  C   UNL     1     -10.827   9.792  68.142  1.00  0.00    -0.264 A  
HETATM   16  C   UNL     1     -11.372  10.299  69.326  1.00  0.00    -0.253 A  
HETATM   17  C   UNL     1     -11.838  11.617  69.387  1.00  0.00    -0.408 A  
BRANCH  15  18
HETATM   18  C   UNL     1     -10.326   8.370  68.059  1.00  0.00    -0.270 C  
BRANCH  18  19
HETATM   19  C   UNL     1      -9.024   8.165  68.834  1.00  0.00    -0.141 C  
BRANCH  19  20
HETATM   20  O   UNL     1      -9.215   7.183  69.855  1.00  0.00    -0.142 OA 
BRANCH  20  21
HETATM   21  C   UNL     1      -9.578   7.806  71.088  1.00  0.00    -0.158 C  
BRANCH  21  22
HETATM   22  C   UNL     1     -10.710   7.049  71.704  1.00  0.00    -0.244 C  
HETATM   23  C   UNL     1     -11.838   7.807  72.358  1.00  0.00    -0.371 C  
HETATM   24  C   UNL     1     -12.082   7.057  71.078  1.00  0.00    -0.413 C  
ENDBRANCH  21  22
ENDBRANCH  20  21
ENDBRANCH  19  20
ENDBRANCH  18  19
ENDBRANCH  15  18
ENDBRANCH  11  12
ENDBRANCH  10  11
ENDBRANCH   7  10
ENDBRANCH   6   7
ENDBRANCH   4   6
ENDBRANCH   2   4
TORSDOF 11
ENDMDL
MODEL       74
REMARK 921   NORMALIZED FREE ENERGY PREDICTED BY IDOCK:   -4.68 KCAL/MOL
REMARK 922        TOTAL FREE ENERGY PREDICTED BY IDOCK:   -9.01 KCAL/MOL
REMARK 923 INTER-LIGAND FREE ENERGY PREDICTED BY IDOCK:   -8.07 KCAL/MOL
REMARK 924 INTRA-LIGAND FREE ENERGY PREDICTED BY IDOCK:   -0.94 KCAL/MOL
REMARK 927      BINDING AFFINITY PREDICTED BY RF-SCORE:    0.00 PKD
ROOT
HETATM    1  C   UNL     1     -12.903   9.035  72.416  1.00  0.00    -0.454 C  
HETATM    2  C   UNL     1     -13.180   9.988  71.252  1.00  0.00    -0.383 C  
HETATM    3  C   UNL     1     -13.113  11.434  71.749  1.00  0.00    -0.523 C  
ENDROOT
BRANCH   2   4
HETATM    4  N   UNL     1     -12.198   9.731  70.196  1.00  0.00    -0.472 NA 
HETATM    5  H   UNL     1     -12.660   9.595  69.297  1.00  0.00     0.000 HD 
BRANCH   4   6
HETATM    6  C   UNL     1     -11.163  10.771  70.098  1.00  0.00    -0.267 C  
BRANCH   6   7
HETATM    7  C   UNL     1     -11.070  11.294  68.654  1.00  0.00    -0.232 C  
HETATM    8  O   UNL     1     -11.785  10.410  67.774  1.00  0.00    -0.677 OA 
HETATM    9  H   UNL     1     -11.727  10.734  66.882  1.00  0.00     0.000 HD 
BRANCH   7  10
HETATM   10  C   UNL     1     -11.648  12.711  68.533  1.00  0.00    -0.323 C  
BRANCH  10  11
HETATM   11  O   UNL     1     -11.738  13.062  67.144  1.00  0.00    -0.346 OA 
BRANCH  11  12
HETATM   12  C   UNL     1     -11.376  14.348  66.849  1.00  0.00    -0.348 A  
HETATM   13  C   UNL     1     -11.232  14.856  65.561  1.00  0.00    -0.348 A  
HETATM   14  C   UNL     1     -10.858  16.186  65.368  1.00  0.00    -0.319 A  
HETATM   15  C   UNL     1     -10.644  17.041  66.461  1.00  0.00    -0.172 A  
HETATM   16  C   UNL     1     -10.809  16.528  67.752  1.00  0.00    -0.304 A  
HETATM   17  C   UNL     1     -11.179  15.192  67.944  1.00  0.00    -0.334 A  
BRANCH  15  18
HETATM   18  C   UNL     1     -10.239  18.478  66.238  1.00  0.00    -0.446 C  
BRANCH  18  19
HETATM   19  C   UNL     1     -10.781  19.410  67.322  1.00  0.00    -0.490 C  
BRANCH  19  20
HETATM   20  O   UNL     1      -9.777  20.356  67.696  1.00  0.00    -0.406 OA 
BRANCH  20  21
HETATM   21  C   UNL     1      -8.620  20.211  66.871  1.00  0.00    -0.324 C  
BRANCH  21  22
HETATM   22  C   UNL     1      -7.414  20.061  67.741  1.00  0.00    -0.330 C  
HETATM   23  C   UNL     1      -7.434  19.058  68.867  1.00  0.00    -0.364 C  
HETATM   24  C   UNL     1      -6.555  18.824  67.671  1.00  0.00    -0.212 C  
ENDBRANCH  21  22
ENDBRANCH  20  21
ENDBRANCH  19  20
ENDBRANCH  18  19
ENDBRANCH  15  18
ENDBRANCH  11  12
ENDBRANCH  10  11
ENDBRANCH   7  10
ENDBRANCH   6   7
ENDBRANCH   4   6
ENDBRANCH   2   4
TORSDOF 11
ENDMDL
MODEL       75
REMARK 921   NORMALIZED FREE ENERGY PREDICTED BY IDOCK:   -4.68 KCAL/MOL
REMARK 922        TOTAL FREE ENERGY PREDICTED BY IDOCK:   -9.01 KCAL/MOL
REMARK 923 INTER-LIGAND FREE ENERGY PREDICTED BY IDOCK:   -7.77 KCAL/MOL
REMARK 924 INTRA-LIGAND FREE ENERGY PREDICTED BY IDOCK:   -1.24 KCAL/MOL
REMARK 927      BINDING AFFINITY PREDICTED BY RF-SCORE:    0.00 PKD
ROOT
HETATM    1  C   UNL     1      -5.988  18.526  69.234  1.00  0.00    -0.245 C  
HETATM    2  C   UNL     1      -6.767  19.759  68.769  1.00  0.00    -0.318 C  
HETATM    3  C   UNL     1      -5.807  20.941  68.615  1.00  0.00    -0.373 C  
ENDROOT
BRANCH   2   4
HETATM    4  N   UNL     1      -7.437  19.437  67.507  1.00  0.00    -0.237 NA 
HETATM    5  H   UNL     1      -7.394  18.435  67.320  1.00  0.00     0.000 HD 
BRANCH   4   6
HETATM    6  C   UNL     1      -8.825  19.920  67.446  1.00  0.00    -0.336 C  
BRANCH   6   7
HETATM    7  C   UNL     1      -9.710  19.122  68.419  1.00  0.00    -0.388 C  
HETATM    8  O   UNL     1     -10.519  20.027  69.189  1.00  0.00    -0.609 OA 
HETATM    9  H   UNL     1     -11.066  19.533  69.790  1.00  0.00     0.000 HD 
BRANCH   7  10
HETATM   10  C   UNL     1     -10.619  18.138  67.670  1.00  0.00    -0.406 C  
BRANCH  10  11
HETATM   11  O   UNL     1     -10.288  16.800  68.070  1.00  0.00    -0.288 OA 
BRANCH  11  12
HETATM   12  C   UNL     1     -10.826  15.813  67.288  1.00  0.00    -0.298 A  
HETATM   13  C   UNL     1     -11.537  14.719  67.769  1.00  0.00    -0.378 A  
HETATM   14  C   UNL     1     -12.045  13.766  66.885  1.00  0.00    -0.454 A  
HETATM   15  C   UNL     1     -11.872  13.905  65.499  1.00  0.00    -0.372 A  
HETATM   16  C   UNL     1     -11.173  15.019  65.021  1.00  0.00    -0.413 A  
HETATM   17  C   UNL     1     -10.658  15.970  65.910  1.00  0.00    -0.338 A  
BRANCH  15  18
HETATM   18  C   UNL     1     -12.427  12.868  64.553  1.00  0.00    -0.468 C  
BRANCH  18  19
HETATM   19  C   UNL     1     -11.421  12.466  63.475  1.00  0.00    -0.483 C  
BRANCH  19  20
HETATM   20  O   UNL     1     -10.194  12.054  64.083  1.00  0.00    -0.299 OA 
BRANCH  20  21
HETATM   21  C   UNL     1     -10.192  10.642  64.297  1.00  0.00    -0.320 C  
BRANCH  21  22
HETATM   22  C   UNL     1      -9.533  10.346  65.605  1.00  0.00    -0.262 C  
HETATM   23  C   UNL     1      -9.213  11.481  66.546  1.00  0.00    -0.203 C  
HETATM   24  C   UNL     1     -10.285  10.491  66.904  1.00  0.00    -0.280 C  
ENDBRANCH  21  22
ENDBRANCH  20  21
ENDBRANCH  19  20
ENDBRANCH  18  19
ENDBRANCH  15  18
ENDBRANCH  11  12
ENDBRANCH  10  11
ENDBRANCH   7  10
ENDBRANCH   6   7
ENDBRANCH   4   6
ENDBRANCH   2   4
TORSDOF 11
ENDMDL
MODEL       76
REMARK 921   NORMALIZED FREE ENERGY PREDICTED BY IDOCK:   -4.67 KCAL/MOL
REMARK 922        TOTAL FREE ENERGY PREDICTED BY IDOCK:   -8.99 KCAL/MOL
REMARK 923 INTER-LIGAND FREE ENERGY PREDICTED BY IDOCK:   -8.50 KCAL/MOL
REMARK 924 INTRA-LIGAND FREE ENERGY PREDICTED BY IDOCK:   -0.48 KCAL/MOL
REMARK 927      BINDING AFFINITY PREDICTED BY RF-SCORE:    0.00 PKD
ROOT
HETATM    1  C   UNL     1      -7.972   9.068  67.076  1.00  0.00    -0.102 C  
HETATM    2  C   UNL     1      -9.115   8.401  66.307  1.00  0.00    -0.194 C  
HETATM    3  C   UNL     1     -10.436   8.650  67.038  1.00  0.00    -0.354 C  
ENDROOT
BRANCH   2   4
HETATM    4  N   UNL     1      -9.137   8.942  64.946  1.00  0.00    -0.432 NA 
HETATM    5  H   UNL     1      -9.367   8.213  64.270  1.00  0.00     0.000 HD 
BRANCH   4   6
HETATM    6  C   UNL     1     -10.034  10.098  64.794  1.00  0.00    -0.264 C  
BRANCH   6   7
HETATM    7  C   UNL     1      -9.678  10.882  63.518  1.00  0.00    -0.342 C  
HETATM    8  O   UNL     1      -9.789  10.019  62.374  1.00  0.00    -0.630 OA 
HETATM    9  H   UNL     1      -9.569  10.504  61.587  1.00  0.00     0.000 HD 
BRANCH   7  10
HETATM   10  C   UNL     1     -10.600  12.095  63.332  1.00  0.00    -0.410 C  
BRANCH  10  11
HETATM   11  O   UNL     1     -11.539  12.139  64.417  1.00  0.00    -0.332 OA 
BRANCH  11  12
HETATM   12  C   UNL     1     -11.349  13.164  65.304  1.00  0.00    -0.296 A  
HETATM   13  C   UNL     1     -10.649  14.333  65.026  1.00  0.00    -0.444 A  
HETATM   14  C   UNL     1     -10.513  15.320  66.004  1.00  0.00    -0.328 A  
HETATM   15  C   UNL     1     -11.098  15.165  67.270  1.00  0.00    -0.332 A  
HETATM   16  C   UNL     1     -11.818  13.995  67.535  1.00  0.00    -0.442 A  
HETATM   17  C   UNL     1     -11.948  13.004  66.556  1.00  0.00    -0.457 A  
BRANCH  15  18
HETATM   18  C   UNL     1     -10.944  16.240  68.319  1.00  0.00    -0.348 C  
BRANCH  18  19
HETATM   19  C   UNL     1     -11.837  15.998  69.536  1.00  0.00    -0.237 C  
BRANCH  19  20
HETATM   20  O   UNL     1     -11.030  15.833  70.705  1.00  0.00    -0.326 OA 
BRANCH  20  21
HETATM   21  C   UNL     1     -11.738  15.095  71.702  1.00  0.00    -0.398 C  
BRANCH  21  22
HETATM   22  C   UNL     1     -12.198  16.032  72.771  1.00  0.00    -0.617 C  
HETATM   23  C   UNL     1     -13.533  15.801  73.434  1.00  0.00    -0.491 C  
HETATM   24  C   UNL     1     -12.264  15.594  74.212  1.00  0.00    -0.729 C  
ENDBRANCH  21  22
ENDBRANCH  20  21
ENDBRANCH  19  20
ENDBRANCH  18  19
ENDBRANCH  15  18
ENDBRANCH  11  12
ENDBRANCH  10  11
ENDBRANCH   7  10
ENDBRANCH   6   7
ENDBRANCH   4   6
ENDBRANCH   2   4
TORSDOF 11
ENDMDL
MODEL       77
REMARK 921   NORMALIZED FREE ENERGY PREDICTED BY IDOCK:   -4.65 KCAL/MOL
REMARK 922        TOTAL FREE ENERGY PREDICTED BY IDOCK:   -8.96 KCAL/MOL
REMARK 923 INTER-LIGAND FREE ENERGY PREDICTED BY IDOCK:   -7.83 KCAL/MOL
REMARK 924 INTRA-LIGAND FREE ENERGY PREDICTED BY IDOCK:   -1.14 KCAL/MOL
REMARK 927      BINDING AFFINITY PREDICTED BY RF-SCORE:    0.00 PKD
ROOT
HETATM    1  C   UNL     1     -10.529  19.869  65.975  1.00  0.00    -0.580 C  
HETATM    2  C   UNL     1      -9.886  20.416  67.252  1.00  0.00    -0.456 C  
HETATM    3  C   UNL     1     -10.097  19.422  68.396  1.00  0.00    -0.538 C  
ENDROOT
BRANCH   2   4
HETATM    4  N   UNL     1      -8.463  20.651  66.992  1.00  0.00    -0.551 NA 
HETATM    5  H   UNL     1      -7.917  20.541  67.846  1.00  0.00     0.000 HD 
BRANCH   4   6
HETATM    6  C   UNL     1      -7.922  19.810  65.914  1.00  0.00    -0.280 C  
BRANCH   6   7
HETATM    7  C   UNL     1      -6.797  18.911  66.454  1.00  0.00    -0.211 C  
HETATM    8  O   UNL     1      -6.618  19.155  67.860  1.00  0.00    -0.219 OA 
HETATM    9  H   UNL     1      -5.923  18.599  68.194  1.00  0.00     0.000 HD 
BRANCH   7  10
HETATM   10  C   UNL     1      -7.111  17.426  66.231  1.00  0.00    -0.295 C  
BRANCH  10  11
HETATM   11  O   UNL     1      -8.481  17.294  65.824  1.00  0.00    -0.532 OA 
BRANCH  11  12
HETATM   12  C   UNL     1      -9.183  16.310  66.466  1.00  0.00    -0.269 A  
HETATM   13  C   UNL     1     -10.492  15.946  66.168  1.00  0.00    -0.336 A  
HETATM   14  C   UNL     1     -11.119  14.926  66.885  1.00  0.00    -0.337 A  
HETATM   15  C   UNL     1     -10.437  14.234  67.898  1.00  0.00    -0.240 A  
HETATM   16  C   UNL     1      -9.115  14.593  68.179  1.00  0.00    -0.187 A  
HETATM   17  C   UNL     1      -8.490  15.620  67.463  1.00  0.00    -0.182 A  
BRANCH  15  18
HETATM   18  C   UNL     1     -11.127  13.133  68.667  1.00  0.00    -0.304 C  
BRANCH  18  19
HETATM   19  C   UNL     1     -11.647  12.023  67.753  1.00  0.00    -0.330 C  
BRANCH  19  20
HETATM   20  O   UNL     1     -12.369  11.059  68.523  1.00  0.00    -0.536 OA 
BRANCH  20  21
HETATM   21  C   UNL     1     -11.965  11.106  69.892  1.00  0.00    -0.363 C  
BRANCH  21  22
HETATM   22  C   UNL     1     -11.818   9.711  70.407  1.00  0.00    -0.219 C  
HETATM   23  C   UNL     1     -10.813   9.426  71.495  1.00  0.00    -0.398 C  
HETATM   24  C   UNL     1     -12.284   9.342  71.793  1.00  0.00    -0.465 C  
ENDBRANCH  21  22
ENDBRANCH  20  21
ENDBRANCH  19  20
ENDBRANCH  18  19
ENDBRANCH  15  18
ENDBRANCH  11  12
ENDBRANCH  10  11
ENDBRANCH   7  10
ENDBRANCH   6   7
ENDBRANCH   4   6
ENDBRANCH   2   4
TORSDOF 11
ENDMDL
MODEL       78
REMARK 921   NORMALIZED FREE ENERGY PREDICTED BY IDOCK:   -4.63 KCAL/MOL
REMARK 922        TOTAL FREE ENERGY PREDICTED BY IDOCK:   -8.94 KCAL/MOL
REMARK 923 INTER-LIGAND FREE ENERGY PREDICTED BY IDOCK:   -7.44 KCAL/MOL
REMARK 924 INTRA-LIGAND FREE ENERGY PREDICTED BY IDOCK:   -1.50 KCAL/MOL
REMARK 927      BINDING AFFINITY PREDICTED BY RF-SCORE:    0.00 PKD
ROOT
HETATM    1  C   UNL     1      -6.791  17.348  68.972  1.00  0.00    -0.244 C  
HETATM    2  C   UNL     1      -6.173  17.994  67.730  1.00  0.00    -0.174 C  
HETATM    3  C   UNL     1      -6.512  17.155  66.496  1.00  0.00    -0.268 C  
ENDROOT
BRANCH   2   4
HETATM    4  N   UNL     1      -6.687  19.362  67.614  1.00  0.00    -0.213 NA 
HETATM    5  H   UNL     1      -6.790  19.628  66.635  1.00  0.00     0.000 HD 
BRANCH   4   6
HETATM    6  C   UNL     1      -7.943  19.576  68.348  1.00  0.00    -0.339 C  
BRANCH   6   7
HETATM    7  C   UNL     1      -8.944  20.351  67.474  1.00  0.00    -0.305 C  
HETATM    8  O   UNL     1      -8.534  20.286  66.097  1.00  0.00    -0.535 OA 
HETATM    9  H   UNL     1      -9.152  20.764  65.557  1.00  0.00     0.000 HD 
BRANCH   7  10
HETATM   10  C   UNL     1     -10.363  19.781  67.609  1.00  0.00    -0.441 C  
BRANCH  10  11
HETATM   11  O   UNL     1     -10.593  18.844  66.547  1.00  0.00    -0.403 OA 
BRANCH  11  12
HETATM   12  C   UNL     1     -10.521  17.527  66.913  1.00  0.00    -0.285 A  
HETATM   13  C   UNL     1     -10.903  17.026  68.153  1.00  0.00    -0.338 A  
HETATM   14  C   UNL     1     -10.788  15.662  68.425  1.00  0.00    -0.290 A  
HETATM   15  C   UNL     1     -10.312  14.770  67.452  1.00  0.00    -0.242 A  
HETATM   16  C   UNL     1      -9.948  15.278  66.201  1.00  0.00    -0.325 A  
HETATM   17  C   UNL     1     -10.058  16.647  65.931  1.00  0.00    -0.341 A  
BRANCH  15  18
HETATM   18  C   UNL     1     -10.193  13.297  67.760  1.00  0.00    -0.228 C  
BRANCH  18  19
HETATM   19  C   UNL     1     -11.555  12.610  67.855  1.00  0.00    -0.349 C  
BRANCH  19  20
HETATM   20  O   UNL     1     -11.795  11.839  66.675  1.00  0.00    -0.569 OA 
BRANCH  20  21
HETATM   21  C   UNL     1     -12.401  12.647  65.665  1.00  0.00    -0.323 C  
BRANCH  21  22
HETATM   22  C   UNL     1     -12.031  12.109  64.321  1.00  0.00    -0.466 C  
HETATM   23  C   UNL     1     -10.949  12.793  63.522  1.00  0.00    -0.325 C  
HETATM   24  C   UNL     1     -10.706  11.425  64.096  1.00  0.00    -0.434 C  
ENDBRANCH  21  22
ENDBRANCH  20  21
ENDBRANCH  19  20
ENDBRANCH  18  19
ENDBRANCH  15  18
ENDBRANCH  11  12
ENDBRANCH  10  11
ENDBRANCH   7  10
ENDBRANCH   6   7
ENDBRANCH   4   6
ENDBRANCH   2   4
TORSDOF 11
ENDMDL
MODEL       79
REMARK 921   NORMALIZED FREE ENERGY PREDICTED BY IDOCK:   -4.63 KCAL/MOL
REMARK 922        TOTAL FREE ENERGY PREDICTED BY IDOCK:   -8.93 KCAL/MOL
REMARK 923 INTER-LIGAND FREE ENERGY PREDICTED BY IDOCK:   -7.23 KCAL/MOL
REMARK 924 INTRA-LIGAND FREE ENERGY PREDICTED BY IDOCK:   -1.70 KCAL/MOL
REMARK 927      BINDING AFFINITY PREDICTED BY RF-SCORE:    0.00 PKD
ROOT
HETATM    1  C   UNL     1     -10.556  19.772  66.124  1.00  0.00    -0.569 C  
HETATM    2  C   UNL     1      -9.836  20.298  67.369  1.00  0.00    -0.446 C  
HETATM    3  C   UNL     1      -9.957  19.274  68.500  1.00  0.00    -0.513 C  
ENDROOT
BRANCH   2   4
HETATM    4  N   UNL     1      -8.436  20.558  67.021  1.00  0.00    -0.515 NA 
HETATM    5  H   UNL     1      -7.842  20.506  67.848  1.00  0.00     0.000 HD 
BRANCH   4   6
HETATM    6  C   UNL     1      -7.928  19.679  65.956  1.00  0.00    -0.328 C  
BRANCH   6   7
HETATM    7  C   UNL     1      -6.807  18.777  66.502  1.00  0.00    -0.204 C  
HETATM    8  O   UNL     1      -6.510  19.145  67.860  1.00  0.00    -0.221 OA 
HETATM    9  H   UNL     1      -5.818  18.588  68.197  1.00  0.00     0.000 HD 
BRANCH   7  10
HETATM   10  C   UNL     1      -7.207  17.296  66.452  1.00  0.00    -0.292 C  
BRANCH  10  11
HETATM   11  O   UNL     1      -8.417  17.164  65.692  1.00  0.00    -0.460 OA 
BRANCH  11  12
HETATM   12  C   UNL     1      -9.288  16.214  66.152  1.00  0.00    -0.336 A  
HETATM   13  C   UNL     1     -10.304  15.637  65.397  1.00  0.00    -0.421 A  
HETATM   14  C   UNL     1     -11.140  14.674  65.964  1.00  0.00    -0.332 A  
HETATM   15  C   UNL     1     -10.959  14.253  67.290  1.00  0.00    -0.302 A  
HETATM   16  C   UNL     1      -9.923  14.824  68.037  1.00  0.00    -0.218 A  
HETATM   17  C   UNL     1      -9.089  15.794  67.469  1.00  0.00    -0.201 A  
BRANCH  15  18
HETATM   18  C   UNL     1     -11.871  13.210  67.891  1.00  0.00    -0.390 C  
BRANCH  18  19
HETATM   19  C   UNL     1     -11.113  12.203  68.757  1.00  0.00    -0.250 C  
BRANCH  19  20
HETATM   20  O   UNL     1     -10.198  11.459  67.948  1.00  0.00    -0.176 OA 
BRANCH  20  21
HETATM   21  C   UNL     1     -10.898  10.506  67.147  1.00  0.00    -0.259 C  
BRANCH  21  22
HETATM   22  C   UNL     1     -10.164  10.316  65.860  1.00  0.00    -0.293 C  
HETATM   23  C   UNL     1      -9.982  11.491  64.931  1.00  0.00    -0.303 C  
HETATM   24  C   UNL     1      -8.796  10.913  65.650  1.00  0.00    -0.201 C  
ENDBRANCH  21  22
ENDBRANCH  20  21
ENDBRANCH  19  20
ENDBRANCH  18  19
ENDBRANCH  15  18
ENDBRANCH  11  12
ENDBRANCH  10  11
ENDBRANCH   7  10
ENDBRANCH   6   7
ENDBRANCH   4   6
ENDBRANCH   2   4
TORSDOF 11
ENDMDL
MODEL       80
REMARK 921   NORMALIZED FREE ENERGY PREDICTED BY IDOCK:   -4.62 KCAL/MOL
REMARK 922        TOTAL FREE ENERGY PREDICTED BY IDOCK:   -8.91 KCAL/MOL
REMARK 923 INTER-LIGAND FREE ENERGY PREDICTED BY IDOCK:   -7.61 KCAL/MOL
REMARK 924 INTRA-LIGAND FREE ENERGY PREDICTED BY IDOCK:   -1.30 KCAL/MOL
REMARK 927      BINDING AFFINITY PREDICTED BY RF-SCORE:    0.00 PKD
ROOT
HETATM    1  C   UNL     1      -8.585   9.875  64.223  1.00  0.00    -0.199 C  
HETATM    2  C   UNL     1      -9.706   9.755  65.259  1.00  0.00    -0.300 C  
HETATM    3  C   UNL     1      -9.104   9.772  66.666  1.00  0.00    -0.174 C  
ENDROOT
BRANCH   2   4
HETATM    4  N   UNL     1     -10.645  10.861  65.057  1.00  0.00    -0.259 NA 
HETATM    5  H   UNL     1     -10.862  11.317  65.943  1.00  0.00     0.000 HD 
BRANCH   4   6
HETATM    6  C   UNL     1     -10.183  11.843  64.064  1.00  0.00    -0.361 C  
BRANCH   6   7
HETATM    7  C   UNL     1     -11.388  12.510  63.377  1.00  0.00    -0.422 C  
HETATM    8  O   UNL     1     -12.374  11.513  63.057  1.00  0.00    -0.975 OA 
HETATM    9  H   UNL     1     -13.117  11.926  62.633  1.00  0.00     0.000 HD 
BRANCH   7  10
HETATM   10  C   UNL     1     -12.020  13.583  64.273  1.00  0.00    -0.432 C  
BRANCH  10  11
HETATM   11  O   UNL     1     -11.412  13.524  65.572  1.00  0.00    -0.300 OA 
BRANCH  11  12
HETATM   12  C   UNL     1     -11.126  14.740  66.132  1.00  0.00    -0.339 A  
HETATM   13  C   UNL     1     -10.555  15.811  65.452  1.00  0.00    -0.441 A  
HETATM   14  C   UNL     1     -10.303  17.012  66.118  1.00  0.00    -0.326 A  
HETATM   15  C   UNL     1     -10.642  17.171  67.470  1.00  0.00    -0.323 A  
HETATM   16  C   UNL     1     -11.234  16.096  68.142  1.00  0.00    -0.311 A  
HETATM   17  C   UNL     1     -11.480  14.890  67.475  1.00  0.00    -0.361 A  
BRANCH  15  18
HETATM   18  C   UNL     1     -10.365  18.475  68.178  1.00  0.00    -0.391 C  
BRANCH  18  19
HETATM   19  C   UNL     1     -10.126  19.628  67.203  1.00  0.00    -0.411 C  
BRANCH  19  20
HETATM   20  O   UNL     1      -8.760  20.043  67.266  1.00  0.00    -0.319 OA 
BRANCH  20  21
HETATM   21  C   UNL     1      -8.144  19.931  65.982  1.00  0.00    -0.304 C  
BRANCH  21  22
HETATM   22  C   UNL     1      -6.977  19.001  66.078  1.00  0.00    -0.287 C  
HETATM   23  C   UNL     1      -5.907  19.261  67.110  1.00  0.00    -0.174 C  
HETATM   24  C   UNL     1      -6.818  18.075  67.257  1.00  0.00    -0.203 C  
ENDBRANCH  21  22
ENDBRANCH  20  21
ENDBRANCH  19  20
ENDBRANCH  18  19
ENDBRANCH  15  18
ENDBRANCH  11  12
ENDBRANCH  10  11
ENDBRANCH   7  10
ENDBRANCH   6   7
ENDBRANCH   4   6
ENDBRANCH   2   4
TORSDOF 11
ENDMDL
MODEL       81
REMARK 921   NORMALIZED FREE ENERGY PREDICTED BY IDOCK:   -4.61 KCAL/MOL
REMARK 922        TOTAL FREE ENERGY PREDICTED BY IDOCK:   -8.90 KCAL/MOL
REMARK 923 INTER-LIGAND FREE ENERGY PREDICTED BY IDOCK:   -7.55 KCAL/MOL
REMARK 924 INTRA-LIGAND FREE ENERGY PREDICTED BY IDOCK:   -1.34 KCAL/MOL
REMARK 927      BINDING AFFINITY PREDICTED BY RF-SCORE:    0.00 PKD
ROOT
HETATM    1  C   UNL     1     -13.814  14.415  72.175  1.00  0.00    -0.572 C  
HETATM    2  C   UNL     1     -13.214  15.537  71.323  1.00  0.00    -0.515 C  
HETATM    3  C   UNL     1     -11.891  15.996  71.940  1.00  0.00    -0.619 C  
ENDROOT
BRANCH   2   4
HETATM    4  N   UNL     1     -13.032  15.037  69.958  1.00  0.00    -0.620 NA 
HETATM    5  H   UNL     1     -13.323  15.736  69.275  1.00  0.00     0.000 HD 
BRANCH   4   6
HETATM    6  C   UNL     1     -11.661  14.579  69.685  1.00  0.00    -0.307 C  
BRANCH   6   7
HETATM    7  C   UNL     1     -11.635  13.708  68.416  1.00  0.00    -0.342 C  
HETATM    8  O   UNL     1     -10.402  13.923  67.708  1.00  0.00    -0.235 OA 
HETATM    9  H   UNL     1     -10.387  13.385  66.925  1.00  0.00     0.000 HD 
BRANCH   7  10
HETATM   10  C   UNL     1     -11.773  12.218  68.758  1.00  0.00    -0.340 C  
BRANCH  10  11
HETATM   11  O   UNL     1     -12.306  12.090  70.084  1.00  0.00    -0.240 OA 
BRANCH  11  12
HETATM   12  C   UNL     1     -12.059  10.889  70.693  1.00  0.00    -0.371 A  
HETATM   13  C   UNL     1     -10.915  10.122  70.498  1.00  0.00    -0.380 A  
HETATM   14  C   UNL     1     -10.760   8.909  71.170  1.00  0.00    -0.333 A  
HETATM   15  C   UNL     1     -11.735   8.453  72.069  1.00  0.00    -0.417 A  
HETATM   16  C   UNL     1     -12.874   9.239  72.274  1.00  0.00    -0.459 A  
HETATM   17  C   UNL     1     -13.032  10.453  71.595  1.00  0.00    -0.581 A  
BRANCH  15  18
HETATM   18  C   UNL     1     -11.555   7.139  72.789  1.00  0.00    -0.180 C  
BRANCH  18  19
HETATM   19  C   UNL     1     -11.002   6.045  71.875  1.00  0.00    -0.264 C  
BRANCH  19  20
HETATM   20  O   UNL     1      -9.872   5.422  72.491  1.00  0.00    -0.161 OA 
BRANCH  20  21
HETATM   21  C   UNL     1      -8.658   6.001  72.010  1.00  0.00    -0.136 C  
BRANCH  21  22
HETATM   22  C   UNL     1      -7.887   6.552  73.165  1.00  0.00    -0.100 C  
HETATM   23  C   UNL     1      -7.129   7.846  72.998  1.00  0.00    -0.107 C  
HETATM   24  C   UNL     1      -8.345   7.797  73.881  1.00  0.00    -0.277 C  
ENDBRANCH  21  22
ENDBRANCH  20  21
ENDBRANCH  19  20
ENDBRANCH  18  19
ENDBRANCH  15  18
ENDBRANCH  11  12
ENDBRANCH  10  11
ENDBRANCH   7  10
ENDBRANCH   6   7
ENDBRANCH   4   6
ENDBRANCH   2   4
TORSDOF 11
ENDMDL
MODEL       82
REMARK 921   NORMALIZED FREE ENERGY PREDICTED BY IDOCK:   -4.60 KCAL/MOL
REMARK 922        TOTAL FREE ENERGY PREDICTED BY IDOCK:   -8.88 KCAL/MOL
REMARK 923 INTER-LIGAND FREE ENERGY PREDICTED BY IDOCK:   -7.59 KCAL/MOL
REMARK 924 INTRA-LIGAND FREE ENERGY PREDICTED BY IDOCK:   -1.30 KCAL/MOL
REMARK 927      BINDING AFFINITY PREDICTED BY RF-SCORE:    0.00 PKD
ROOT
HETATM    1  C   UNL     1     -13.619   7.373  71.556  1.00  0.00    -0.454 C  
HETATM    2  C   UNL     1     -12.137   7.230  71.199  1.00  0.00    -0.340 C  
HETATM    3  C   UNL     1     -11.473   6.241  72.161  1.00  0.00    -0.354 C  
ENDROOT
BRANCH   2   4
HETATM    4  N   UNL     1     -12.035   6.784  69.807  1.00  0.00    -0.647 NA 
HETATM    5  H   UNL     1     -12.212   7.557  69.166  1.00  0.00     0.000 HD 
BRANCH   4   6
HETATM    6  C   UNL     1     -10.755   6.130  69.498  1.00  0.00    -0.320 C  
BRANCH   6   7
HETATM    7  C   UNL     1     -10.283   6.525  68.087  1.00  0.00    -0.168 C  
HETATM    8  O   UNL     1     -11.420   6.647  67.215  1.00  0.00    -0.766 OA 
HETATM    9  H   UNL     1     -11.128   6.891  66.344  1.00  0.00     0.000 HD 
BRANCH   7  10
HETATM   10  C   UNL     1      -9.512   7.852  68.107  1.00  0.00    -0.147 C  
BRANCH  10  11
HETATM   11  O   UNL     1     -10.371   8.884  68.614  1.00  0.00    -0.200 OA 
BRANCH  11  12
HETATM   12  C   UNL     1     -10.615   9.912  67.744  1.00  0.00    -0.261 A  
HETATM   13  C   UNL     1     -10.146   9.972  66.435  1.00  0.00    -0.307 A  
HETATM   14  C   UNL     1     -10.454  11.068  65.628  1.00  0.00    -0.293 A  
HETATM   15  C   UNL     1     -11.258  12.113  66.108  1.00  0.00    -0.386 A  
HETATM   16  C   UNL     1     -11.742  12.036  67.418  1.00  0.00    -0.352 A  
HETATM   17  C   UNL     1     -11.428  10.939  68.229  1.00  0.00    -0.376 A  
BRANCH  15  18
HETATM   18  C   UNL     1     -11.583  13.293  65.224  1.00  0.00    -0.335 C  
BRANCH  18  19
HETATM   19  C   UNL     1     -10.365  14.181  64.968  1.00  0.00    -0.418 C  
BRANCH  19  20
HETATM   20  O   UNL     1      -9.816  14.623  66.211  1.00  0.00    -0.271 OA 
BRANCH  20  21
HETATM   21  C   UNL     1     -10.312  15.920  66.545  1.00  0.00    -0.300 C  
BRANCH  21  22
HETATM   22  C   UNL     1     -11.122  15.827  67.797  1.00  0.00    -0.313 C  
HETATM   23  C   UNL     1     -10.562  15.091  68.989  1.00  0.00    -0.245 C  
HETATM   24  C   UNL     1     -10.724  16.585  69.038  1.00  0.00    -0.332 C  
ENDBRANCH  21  22
ENDBRANCH  20  21
ENDBRANCH  19  20
ENDBRANCH  18  19
ENDBRANCH  15  18
ENDBRANCH  11  12
ENDBRANCH  10  11
ENDBRANCH   7  10
ENDBRANCH   6   7
ENDBRANCH   4   6
ENDBRANCH   2   4
TORSDOF 11
ENDMDL
MODEL       83
REMARK 921   NORMALIZED FREE ENERGY PREDICTED BY IDOCK:   -4.57 KCAL/MOL
REMARK 922        TOTAL FREE ENERGY PREDICTED BY IDOCK:   -8.83 KCAL/MOL
REMARK 923 INTER-LIGAND FREE ENERGY PREDICTED BY IDOCK:   -7.85 KCAL/MOL
REMARK 924 INTRA-LIGAND FREE ENERGY PREDICTED BY IDOCK:   -0.98 KCAL/MOL
REMARK 927      BINDING AFFINITY PREDICTED BY RF-SCORE:    0.00 PKD
ROOT
HETATM    1  C   UNL     1     -12.819  10.353  71.657  1.00  0.00    -0.579 C  
HETATM    2  C   UNL     1     -11.705   9.311  71.533  1.00  0.00    -0.380 C  
HETATM    3  C   UNL     1     -11.982   8.151  72.493  1.00  0.00    -0.410 C  
ENDROOT
BRANCH   2   4
HETATM    4  N   UNL     1     -11.643   8.859  70.141  1.00  0.00    -0.462 NA 
HETATM    5  H   UNL     1     -11.533   9.651  69.508  1.00  0.00     0.000 HD 
BRANCH   4   6
HETATM    6  C   UNL     1     -10.601   7.850  69.902  1.00  0.00    -0.242 C  
BRANCH   6   7
HETATM    7  C   UNL     1     -10.100   7.936  68.449  1.00  0.00    -0.194 C  
HETATM    8  O   UNL     1     -11.078   7.359  67.567  1.00  0.00    -0.531 OA 
HETATM    9  H   UNL     1     -10.769   7.412  66.670  1.00  0.00     0.000 HD 
BRANCH   7  10
HETATM   10  C   UNL     1      -9.835   9.390  68.034  1.00  0.00    -0.164 C  
BRANCH  10  11
HETATM   11  O   UNL     1     -11.065   9.979  67.587  1.00  0.00    -0.285 OA 
BRANCH  11  12
HETATM   12  C   UNL     1     -11.056  11.346  67.511  1.00  0.00    -0.281 A  
HETATM   13  C   UNL     1     -10.769  12.197  68.574  1.00  0.00    -0.257 A  
HETATM   14  C   UNL     1     -10.788  13.580  68.390  1.00  0.00    -0.286 A  
HETATM   15  C   UNL     1     -11.070  14.137  67.134  1.00  0.00    -0.315 A  
HETATM   16  C   UNL     1     -11.338  13.274  66.066  1.00  0.00    -0.329 A  
HETATM   17  C   UNL     1     -11.325  11.887  66.252  1.00  0.00    -0.394 A  
BRANCH  15  18
HETATM   18  C   UNL     1     -11.087  15.635  66.949  1.00  0.00    -0.181 C  
BRANCH  18  19
HETATM   19  C   UNL     1     -10.960  16.387  68.274  1.00  0.00    -0.355 C  
BRANCH  19  20
HETATM   20  O   UNL     1     -10.413  17.688  68.045  1.00  0.00    -0.366 OA 
BRANCH  20  21
HETATM   21  C   UNL     1     -10.282  17.936  66.644  1.00  0.00    -0.371 C  
BRANCH  21  22
HETATM   22  C   UNL     1      -9.976  19.382  66.430  1.00  0.00    -0.498 C  
HETATM   23  C   UNL     1      -9.968  20.320  67.611  1.00  0.00    -0.551 C  
HETATM   24  C   UNL     1      -8.680  19.982  66.914  1.00  0.00    -0.417 C  
ENDBRANCH  21  22
ENDBRANCH  20  21
ENDBRANCH  19  20
ENDBRANCH  18  19
ENDBRANCH  15  18
ENDBRANCH  11  12
ENDBRANCH  10  11
ENDBRANCH   7  10
ENDBRANCH   6   7
ENDBRANCH   4   6
ENDBRANCH   2   4
TORSDOF 11
ENDMDL
MODEL       84
REMARK 921   NORMALIZED FREE ENERGY PREDICTED BY IDOCK:   -4.54 KCAL/MOL
REMARK 922        TOTAL FREE ENERGY PREDICTED BY IDOCK:   -8.79 KCAL/MOL
REMARK 923 INTER-LIGAND FREE ENERGY PREDICTED BY IDOCK:   -7.89 KCAL/MOL
REMARK 924 INTRA-LIGAND FREE ENERGY PREDICTED BY IDOCK:   -0.89 KCAL/MOL
REMARK 927      BINDING AFFINITY PREDICTED BY RF-SCORE:    0.00 PKD
ROOT
HETATM    1  C   UNL     1     -12.439  12.015  63.514  1.00  0.00    -0.654 C  
HETATM    2  C   UNL     1     -11.588  13.235  63.875  1.00  0.00    -0.400 C  
HETATM    3  C   UNL     1     -12.109  13.855  65.173  1.00  0.00    -0.415 C  
ENDROOT
BRANCH   2   4
HETATM    4  N   UNL     1     -10.192  12.808  63.999  1.00  0.00    -0.557 NA 
HETATM    5  H   UNL     1      -9.791  13.133  64.878  1.00  0.00     0.000 HD 
BRANCH   4   6
HETATM    6  C   UNL     1     -10.012  11.356  63.848  1.00  0.00    -0.315 C  
BRANCH   6   7
HETATM    7  C   UNL     1      -9.298  10.778  65.083  1.00  0.00    -0.217 C  
HETATM    8  O   UNL     1      -7.876  10.943  64.939  1.00  0.00    -0.353 OA 
HETATM    9  H   UNL     1      -7.436  10.586  65.702  1.00  0.00     0.000 HD 
BRANCH   7  10
HETATM   10  C   UNL     1      -9.763  11.468  66.372  1.00  0.00    -0.207 C  
BRANCH  10  11
HETATM   11  O   UNL     1      -9.217  10.767  67.500  1.00  0.00    -0.143 OA 
BRANCH  11  12
HETATM   12  C   UNL     1     -10.046  10.686  68.586  1.00  0.00    -0.183 A  
HETATM   13  C   UNL     1      -9.931   9.743  69.603  1.00  0.00    -0.244 A  
HETATM   14  C   UNL     1     -10.830   9.747  70.669  1.00  0.00    -0.396 A  
HETATM   15  C   UNL     1     -11.848  10.710  70.751  1.00  0.00    -0.459 A  
HETATM   16  C   UNL     1     -11.946  11.666  69.734  1.00  0.00    -0.402 A  
HETATM   17  C   UNL     1     -11.046  11.658  68.662  1.00  0.00    -0.287 A  
BRANCH  15  18
HETATM   18  C   UNL     1     -12.815  10.702  71.910  1.00  0.00    -0.487 C  
BRANCH  18  19
HETATM   19  C   UNL     1     -13.786  11.882  71.866  1.00  0.00     0.170 C  
BRANCH  19  20
HETATM   20  O   UNL     1     -13.210  13.010  72.530  1.00  0.00    -0.453 OA 
BRANCH  20  21
HETATM   21  C   UNL     1     -13.907  14.207  72.181  1.00  0.00    -0.518 C  
BRANCH  21  22
HETATM   22  C   UNL     1     -12.962  15.362  72.248  1.00  0.00    -0.481 C  
HETATM   23  C   UNL     1     -11.476  15.107  72.184  1.00  0.00    -0.430 C  
HETATM   24  C   UNL     1     -12.170  15.789  71.039  1.00  0.00    -0.466 C  
ENDBRANCH  21  22
ENDBRANCH  20  21
ENDBRANCH  19  20
ENDBRANCH  18  19
ENDBRANCH  15  18
ENDBRANCH  11  12
ENDBRANCH  10  11
ENDBRANCH   7  10
ENDBRANCH   6   7
ENDBRANCH   4   6
ENDBRANCH   2   4
TORSDOF 11
ENDMDL
MODEL       85
REMARK 921   NORMALIZED FREE ENERGY PREDICTED BY IDOCK:   -4.53 KCAL/MOL
REMARK 922        TOTAL FREE ENERGY PREDICTED BY IDOCK:   -8.76 KCAL/MOL
REMARK 923 INTER-LIGAND FREE ENERGY PREDICTED BY IDOCK:   -8.26 KCAL/MOL
REMARK 924 INTRA-LIGAND FREE ENERGY PREDICTED BY IDOCK:   -0.51 KCAL/MOL
REMARK 927      BINDING AFFINITY PREDICTED BY RF-SCORE:    0.00 PKD
ROOT
HETATM    1  C   UNL     1      -9.392  15.941  66.540  1.00  0.00    -0.306 C  
HETATM    2  C   UNL     1     -10.636  16.544  65.883  1.00  0.00    -0.270 C  
HETATM    3  C   UNL     1     -10.460  18.059  65.752  1.00  0.00    -0.202 C  
ENDROOT
BRANCH   2   4
HETATM    4  N   UNL     1     -10.828  15.906  64.578  1.00  0.00    -0.855 NA 
HETATM    5  H   UNL     1     -10.075  16.158  63.938  1.00  0.00     0.000 HD 
BRANCH   4   6
HETATM    6  C   UNL     1     -10.975  14.444  64.662  1.00  0.00    -0.354 C  
BRANCH   6   7
HETATM    7  C   UNL     1     -12.271  14.083  65.410  1.00  0.00    -0.439 C  
HETATM    8  O   UNL     1     -13.050  13.175  64.613  1.00  0.00    -0.699 OA 
HETATM    9  H   UNL     1     -13.850  12.952  65.076  1.00  0.00     0.000 HD 
BRANCH   7  10
HETATM   10  C   UNL     1     -11.971  13.439  66.770  1.00  0.00    -0.394 C  
BRANCH  10  11
HETATM   11  O   UNL     1     -11.877  12.017  66.603  1.00  0.00    -0.583 OA 
BRANCH  11  12
HETATM   12  C   UNL     1     -11.581  11.319  67.742  1.00  0.00    -0.230 A  
HETATM   13  C   UNL     1     -10.898  10.107  67.776  1.00  0.00    -0.346 A  
HETATM   14  C   UNL     1     -10.646   9.476  68.995  1.00  0.00    -0.238 A  
HETATM   15  C   UNL     1     -11.052  10.058  70.205  1.00  0.00    -0.371 A  
HETATM   16  C   UNL     1     -11.721  11.286  70.165  1.00  0.00    -0.429 A  
HETATM   17  C   UNL     1     -11.978  11.915  68.941  1.00  0.00    -0.313 A  
BRANCH  15  18
HETATM   18  C   UNL     1     -10.774   9.364  71.516  1.00  0.00    -0.367 C  
BRANCH  18  19
HETATM   19  C   UNL     1     -11.994   8.610  72.047  1.00  0.00    -0.372 C  
BRANCH  19  20
HETATM   20  O   UNL     1     -11.630   7.848  73.200  1.00  0.00    -0.292 OA 
BRANCH  20  21
HETATM   21  C   UNL     1     -10.472   7.056  72.932  1.00  0.00    -0.254 C  
BRANCH  21  22
HETATM   22  C   UNL     1     -10.900   5.723  72.411  1.00  0.00    -0.294 C  
HETATM   23  C   UNL     1      -9.974   4.540  72.553  1.00  0.00    -0.225 C  
HETATM   24  C   UNL     1     -11.246   4.596  73.352  1.00  0.00    -0.423 C  
ENDBRANCH  21  22
ENDBRANCH  20  21
ENDBRANCH  19  20
ENDBRANCH  18  19
ENDBRANCH  15  18
ENDBRANCH  11  12
ENDBRANCH  10  11
ENDBRANCH   7  10
ENDBRANCH   6   7
ENDBRANCH   4   6
ENDBRANCH   2   4
TORSDOF 11
ENDMDL
MODEL       86
REMARK 921   NORMALIZED FREE ENERGY PREDICTED BY IDOCK:   -4.52 KCAL/MOL
REMARK 922        TOTAL FREE ENERGY PREDICTED BY IDOCK:   -8.74 KCAL/MOL
REMARK 923 INTER-LIGAND FREE ENERGY PREDICTED BY IDOCK:   -7.76 KCAL/MOL
REMARK 924 INTRA-LIGAND FREE ENERGY PREDICTED BY IDOCK:   -0.98 KCAL/MOL
REMARK 927      BINDING AFFINITY PREDICTED BY RF-SCORE:    0.00 PKD
ROOT
HETATM    1  C   UNL     1     -10.534   5.807  66.717  1.00  0.00    -0.350 C  
HETATM    2  C   UNL     1     -10.374   6.901  67.777  1.00  0.00    -0.203 C  
HETATM    3  C   UNL     1     -10.525   8.274  67.120  1.00  0.00    -0.386 C  
ENDROOT
BRANCH   2   4
HETATM    4  N   UNL     1     -11.378   6.686  68.822  1.00  0.00    -0.584 NA 
HETATM    5  H   UNL     1     -12.252   6.347  68.420  1.00  0.00     0.000 HD 
BRANCH   4   6
HETATM    6  C   UNL     1     -10.916   5.794  69.897  1.00  0.00    -0.319 C  
BRANCH   6   7
HETATM    7  C   UNL     1     -11.446   6.283  71.257  1.00  0.00    -0.291 C  
HETATM    8  O   UNL     1     -10.369   6.861  72.015  1.00  0.00    -0.198 OA 
HETATM    9  H   UNL     1     -10.697   7.163  72.854  1.00  0.00     0.000 HD 
BRANCH   7  10
HETATM   10  C   UNL     1     -12.561   7.324  71.082  1.00  0.00    -0.323 C  
BRANCH  10  11
HETATM   11  O   UNL     1     -12.341   8.403  72.002  1.00  0.00    -0.320 OA 
BRANCH  11  12
HETATM   12  C   UNL     1     -12.245   9.642  71.428  1.00  0.00    -0.385 A  
HETATM   13  C   UNL     1     -11.459   9.944  70.321  1.00  0.00    -0.349 A  
HETATM   14  C   UNL     1     -11.433  11.244  69.813  1.00  0.00    -0.386 A  
HETATM   15  C   UNL     1     -12.212  12.259  70.388  1.00  0.00    -0.371 A  
HETATM   16  C   UNL     1     -13.015  11.942  71.489  1.00  0.00    -0.427 A  
HETATM   17  C   UNL     1     -13.036  10.640  72.002  1.00  0.00    -0.501 A  
BRANCH  15  18
HETATM   18  C   UNL     1     -12.174  13.660  69.828  1.00  0.00    -0.350 C  
BRANCH  18  19
HETATM   19  C   UNL     1     -11.591  13.708  68.415  1.00  0.00    -0.342 C  
BRANCH  19  20
HETATM   20  O   UNL     1     -10.288  14.295  68.447  1.00  0.00    -0.234 OA 
BRANCH  20  21
HETATM   21  C   UNL     1      -9.743  14.376  67.129  1.00  0.00    -0.248 C  
BRANCH  21  22
HETATM   22  C   UNL     1     -10.861  14.465  66.142  1.00  0.00    -0.309 C  
HETATM   23  C   UNL     1     -10.817  15.522  65.067  1.00  0.00    -0.468 C  
HETATM   24  C   UNL     1     -10.658  14.073  64.700  1.00  0.00    -0.416 C  
ENDBRANCH  21  22
ENDBRANCH  20  21
ENDBRANCH  19  20
ENDBRANCH  18  19
ENDBRANCH  15  18
ENDBRANCH  11  12
ENDBRANCH  10  11
ENDBRANCH   7  10
ENDBRANCH   6   7
ENDBRANCH   4   6
ENDBRANCH   2   4
TORSDOF 11
ENDMDL
MODEL       87
REMARK 921   NORMALIZED FREE ENERGY PREDICTED BY IDOCK:   -4.50 KCAL/MOL
REMARK 922        TOTAL FREE ENERGY PREDICTED BY IDOCK:   -8.72 KCAL/MOL
REMARK 923 INTER-LIGAND FREE ENERGY PREDICTED BY IDOCK:   -7.64 KCAL/MOL
REMARK 924 INTRA-LIGAND FREE ENERGY PREDICTED BY IDOCK:   -1.08 KCAL/MOL
REMARK 927      BINDING AFFINITY PREDICTED BY RF-SCORE:    0.00 PKD
ROOT
HETATM    1  C   UNL     1      -8.380   7.649  65.275  1.00  0.00    -0.121 C  
HETATM    2  C   UNL     1      -9.324   8.349  66.256  1.00  0.00    -0.219 C  
HETATM    3  C   UNL     1      -9.877   9.623  65.612  1.00  0.00    -0.369 C  
ENDROOT
BRANCH   2   4
HETATM    4  N   UNL     1     -10.393   7.416  66.618  1.00  0.00    -0.488 NA 
HETATM    5  H   UNL     1     -11.158   7.463  65.946  1.00  0.00     0.000 HD 
BRANCH   4   6
HETATM    6  C   UNL     1      -9.926   6.031  66.781  1.00  0.00    -0.174 C  
BRANCH   6   7
HETATM    7  C   UNL     1     -10.290   5.509  68.183  1.00  0.00    -0.176 C  
HETATM    8  O   UNL     1      -9.087   5.245  68.926  1.00  0.00    -0.108 OA 
HETATM    9  H   UNL     1      -9.313   4.923  69.791  1.00  0.00     0.000 HD 
BRANCH   7  10
HETATM   10  C   UNL     1     -11.152   6.520  68.950  1.00  0.00    -0.301 C  
BRANCH  10  11
HETATM   11  O   UNL     1     -10.292   7.398  69.691  1.00  0.00    -0.211 OA 
BRANCH  11  12
HETATM   12  C   UNL     1     -10.810   8.641  69.938  1.00  0.00    -0.208 A  
HETATM   13  C   UNL     1     -10.588   9.764  69.147  1.00  0.00    -0.237 A  
HETATM   14  C   UNL     1     -11.164  10.989  69.487  1.00  0.00    -0.343 A  
HETATM   15  C   UNL     1     -11.995  11.106  70.611  1.00  0.00    -0.459 A  
HETATM   16  C   UNL     1     -12.230   9.969  71.391  1.00  0.00    -0.510 A  
HETATM   17  C   UNL     1     -11.646   8.743  71.052  1.00  0.00    -0.337 A  
BRANCH  15  18
HETATM   18  C   UNL     1     -12.612  12.437  70.968  1.00  0.00    -0.349 C  
BRANCH  18  19
HETATM   19  C   UNL     1     -11.918  13.607  70.271  1.00  0.00    -0.327 C  
BRANCH  19  20
HETATM   20  O   UNL     1     -12.473  14.843  70.727  1.00  0.00    -0.296 OA 
BRANCH  20  21
HETATM   21  C   UNL     1     -11.499  15.590  71.458  1.00  0.00    -0.421 C  
BRANCH  21  22
HETATM   22  C   UNL     1     -12.108  16.068  72.736  1.00  0.00    -0.635 C  
HETATM   23  C   UNL     1     -13.565  15.788  73.012  1.00  0.00    -0.638 C  
HETATM   24  C   UNL     1     -12.502  15.097  73.820  1.00  0.00    -0.718 C  
ENDBRANCH  21  22
ENDBRANCH  20  21
ENDBRANCH  19  20
ENDBRANCH  18  19
ENDBRANCH  15  18
ENDBRANCH  11  12
ENDBRANCH  10  11
ENDBRANCH   7  10
ENDBRANCH   6   7
ENDBRANCH   4   6
ENDBRANCH   2   4
TORSDOF 11
ENDMDL
MODEL       88
REMARK 921   NORMALIZED FREE ENERGY PREDICTED BY IDOCK:   -4.50 KCAL/MOL
REMARK 922        TOTAL FREE ENERGY PREDICTED BY IDOCK:   -8.72 KCAL/MOL
REMARK 923 INTER-LIGAND FREE ENERGY PREDICTED BY IDOCK:   -7.55 KCAL/MOL
REMARK 924 INTRA-LIGAND FREE ENERGY PREDICTED BY IDOCK:   -1.17 KCAL/MOL
REMARK 927      BINDING AFFINITY PREDICTED BY RF-SCORE:    0.00 PKD
ROOT
HETATM    1  C   UNL     1     -13.245   6.964  71.415  1.00  0.00    -0.287 C  
HETATM    2  C   UNL     1     -11.802   6.877  70.914  1.00  0.00    -0.376 C  
HETATM    3  C   UNL     1     -11.065   5.768  71.668  1.00  0.00    -0.290 C  
ENDROOT
BRANCH   2   4
HETATM    4  N   UNL     1     -11.826   6.629  69.470  1.00  0.00    -0.632 NA 
HETATM    5  H   UNL     1     -12.375   7.341  68.989  1.00  0.00     0.000 HD 
BRANCH   4   6
HETATM    6  C   UNL     1     -10.485   6.514  68.877  1.00  0.00    -0.215 C  
BRANCH   6   7
HETATM    7  C   UNL     1     -10.455   7.190  67.495  1.00  0.00    -0.260 C  
HETATM    8  O   UNL     1     -11.520   6.670  66.680  1.00  0.00    -0.709 OA 
HETATM    9  H   UNL     1     -11.502   7.088  65.827  1.00  0.00     0.000 HD 
BRANCH   7  10
HETATM   10  C   UNL     1     -10.603   8.713  67.614  1.00  0.00    -0.203 C  
BRANCH  10  11
HETATM   11  O   UNL     1     -10.358   9.101  68.974  1.00  0.00    -0.206 OA 
BRANCH  11  12
HETATM   12  C   UNL     1     -10.882  10.314  69.332  1.00  0.00    -0.245 A  
HETATM   13  C   UNL     1     -10.773  11.479  68.580  1.00  0.00    -0.242 A  
HETATM   14  C   UNL     1     -11.346  12.667  69.037  1.00  0.00    -0.345 A  
HETATM   15  C   UNL     1     -12.061  12.704  70.243  1.00  0.00    -0.372 A  
HETATM   16  C   UNL     1     -12.182  11.524  70.985  1.00  0.00    -0.368 A  
HETATM   17  C   UNL     1     -11.602  10.335  70.529  1.00  0.00    -0.424 A  
BRANCH  15  18
HETATM   18  C   UNL     1     -12.676  13.996  70.726  1.00  0.00    -0.396 C  
BRANCH  18  19
HETATM   19  C   UNL     1     -11.660  14.898  71.428  1.00  0.00    -0.307 C  
BRANCH  19  20
HETATM   20  O   UNL     1     -11.530  16.130  70.714  1.00  0.00    -0.393 OA 
BRANCH  20  21
HETATM   21  C   UNL     1     -10.475  16.044  69.756  1.00  0.00    -0.300 C  
BRANCH  21  22
HETATM   22  C   UNL     1     -10.998  16.446  68.415  1.00  0.00    -0.353 C  
HETATM   23  C   UNL     1     -10.134  17.283  67.504  1.00  0.00    -0.315 C  
HETATM   24  C   UNL     1     -10.430  15.853  67.150  1.00  0.00    -0.313 C  
ENDBRANCH  21  22
ENDBRANCH  20  21
ENDBRANCH  19  20
ENDBRANCH  18  19
ENDBRANCH  15  18
ENDBRANCH  11  12
ENDBRANCH  10  11
ENDBRANCH   7  10
ENDBRANCH   6   7
ENDBRANCH   4   6
ENDBRANCH   2   4
TORSDOF 11
ENDMDL
MODEL       89
REMARK 921   NORMALIZED FREE ENERGY PREDICTED BY IDOCK:   -4.50 KCAL/MOL
REMARK 922        TOTAL FREE ENERGY PREDICTED BY IDOCK:   -8.71 KCAL/MOL
REMARK 923 INTER-LIGAND FREE ENERGY PREDICTED BY IDOCK:   -7.51 KCAL/MOL
REMARK 924 INTRA-LIGAND FREE ENERGY PREDICTED BY IDOCK:   -1.20 KCAL/MOL
REMARK 927      BINDING AFFINITY PREDICTED BY RF-SCORE:    0.00 PKD
ROOT
HETATM    1  C   UNL     1      -6.991  19.472  68.237  1.00  0.00    -0.328 C  
HETATM    2  C   UNL     1      -7.396  20.751  67.500  1.00  0.00    -0.313 C  
HETATM    3  C   UNL     1      -6.178  21.331  66.776  1.00  0.00    -0.392 C  
ENDROOT
BRANCH   2   4
HETATM    4  N   UNL     1      -8.478  20.426  66.567  1.00  0.00    -0.540 NA 
HETATM    5  H   UNL     1      -8.233  19.617  65.996  1.00  0.00     0.000 HD 
BRANCH   4   6
HETATM    6  C   UNL     1      -9.776  20.226  67.228  1.00  0.00    -0.450 C  
BRANCH   6   7
HETATM    7  C   UNL     1     -10.602  19.173  66.468  1.00  0.00    -0.435 C  
HETATM    8  O   UNL     1     -11.014  19.707  65.198  1.00  0.00    -0.373 OA 
HETATM    9  H   UNL     1     -11.524  19.056  64.729  1.00  0.00     0.000 HD 
BRANCH   7  10
HETATM   10  C   UNL     1      -9.797  17.886  66.242  1.00  0.00    -0.301 C  
BRANCH  10  11
HETATM   11  O   UNL     1     -10.467  17.082  65.260  1.00  0.00    -0.649 OA 
BRANCH  11  12
HETATM   12  C   UNL     1     -10.787  15.816  65.669  1.00  0.00    -0.307 A  
HETATM   13  C   UNL     1     -10.972  14.730  64.819  1.00  0.00    -0.393 A  
HETATM   14  C   UNL     1     -11.297  13.477  65.340  1.00  0.00    -0.302 A  
HETATM   15  C   UNL     1     -11.418  13.282  66.724  1.00  0.00    -0.387 A  
HETATM   16  C   UNL     1     -11.211  14.374  67.574  1.00  0.00    -0.329 A  
HETATM   17  C   UNL     1     -10.891  15.631  67.050  1.00  0.00    -0.294 A  
BRANCH  15  18
HETATM   18  C   UNL     1     -11.770  11.921  67.275  1.00  0.00    -0.319 C  
BRANCH  18  19
HETATM   19  C   UNL     1     -10.704  11.386  68.232  1.00  0.00    -0.204 C  
BRANCH  19  20
HETATM   20  O   UNL     1      -9.654  10.761  67.490  1.00  0.00    -0.157 OA 
BRANCH  20  21
HETATM   21  C   UNL     1     -10.171   9.693  66.695  1.00  0.00    -0.232 C  
BRANCH  21  22
HETATM   22  C   UNL     1      -9.403   9.621  65.414  1.00  0.00    -0.320 C  
HETATM   23  C   UNL     1      -9.897  10.386  64.212  1.00  0.00    -0.388 C  
HETATM   24  C   UNL     1      -8.632  10.811  64.903  1.00  0.00    -0.097 C  
ENDBRANCH  21  22
ENDBRANCH  20  21
ENDBRANCH  19  20
ENDBRANCH  18  19
ENDBRANCH  15  18
ENDBRANCH  11  12
ENDBRANCH  10  11
ENDBRANCH   7  10
ENDBRANCH   6   7
ENDBRANCH   4   6
ENDBRANCH   2   4
TORSDOF 11
ENDMDL
MODEL       90
REMARK 921   NORMALIZED FREE ENERGY PREDICTED BY IDOCK:   -4.50 KCAL/MOL
REMARK 922        TOTAL FREE ENERGY PREDICTED BY IDOCK:   -8.71 KCAL/MOL
REMARK 923 INTER-LIGAND FREE ENERGY PREDICTED BY IDOCK:   -7.87 KCAL/MOL
REMARK 924 INTRA-LIGAND FREE ENERGY PREDICTED BY IDOCK:   -0.84 KCAL/MOL
REMARK 927      BINDING AFFINITY PREDICTED BY RF-SCORE:    0.00 PKD
ROOT
HETATM    1  C   UNL     1     -12.382  14.988  70.695  1.00  0.00    -0.404 C  
HETATM    2  C   UNL     1     -12.829  14.672  72.124  1.00  0.00    -0.333 C  
HETATM    3  C   UNL     1     -14.142  15.400  72.421  1.00  0.00    -0.645 C  
ENDROOT
BRANCH   2   4
HETATM    4  N   UNL     1     -12.972  13.220  72.255  1.00  0.00    -0.305 NA 
HETATM    5  H   UNL     1     -13.749  12.987  72.873  1.00  0.00     0.000 HD 
BRANCH   4   6
HETATM    6  C   UNL     1     -13.106  12.529  70.964  1.00  0.00     0.050 C  
BRANCH   6   7
HETATM    7  C   UNL     1     -12.421  11.153  71.024  1.00  0.00    -0.403 C  
HETATM    8  O   UNL     1     -13.404  10.116  70.862  1.00  0.00    -0.467 OA 
HETATM    9  H   UNL     1     -12.980   9.266  70.899  1.00  0.00     0.000 HD 
BRANCH   7  10
HETATM   10  C   UNL     1     -11.350  11.013  69.933  1.00  0.00    -0.287 C  
BRANCH  10  11
HETATM   11  O   UNL     1     -11.948  11.278  68.655  1.00  0.00    -0.472 OA 
BRANCH  11  12
HETATM   12  C   UNL     1     -11.326  12.247  67.915  1.00  0.00    -0.298 A  
HETATM   13  C   UNL     1      -9.969  12.261  67.609  1.00  0.00    -0.199 A  
HETATM   14  C   UNL     1      -9.432  13.299  66.845  1.00  0.00    -0.249 A  
HETATM   15  C   UNL     1     -10.249  14.329  66.353  1.00  0.00    -0.295 A  
HETATM   16  C   UNL     1     -11.616  14.297  66.650  1.00  0.00    -0.397 A  
HETATM   17  C   UNL     1     -12.152  13.259  67.421  1.00  0.00    -0.327 A  
BRANCH  15  18
HETATM   18  C   UNL     1      -9.656  15.445  65.529  1.00  0.00    -0.253 C  
BRANCH  18  19
HETATM   19  C   UNL     1      -8.640  16.274  66.316  1.00  0.00    -0.339 C  
BRANCH  19  20
HETATM   20  O   UNL     1      -8.738  17.650  65.938  1.00  0.00    -0.520 OA 
BRANCH  20  21
HETATM   21  C   UNL     1      -8.004  18.472  66.847  1.00  0.00    -0.239 C  
BRANCH  21  22
HETATM   22  C   UNL     1      -8.963  19.253  67.685  1.00  0.00    -0.346 C  
HETATM   23  C   UNL     1      -9.795  20.335  67.042  1.00  0.00    -0.607 C  
HETATM   24  C   UNL     1     -10.452  19.075  67.531  1.00  0.00    -0.537 C  
ENDBRANCH  21  22
ENDBRANCH  20  21
ENDBRANCH  19  20
ENDBRANCH  18  19
ENDBRANCH  15  18
ENDBRANCH  11  12
ENDBRANCH  10  11
ENDBRANCH   7  10
ENDBRANCH   6   7
ENDBRANCH   4   6
ENDBRANCH   2   4
TORSDOF 11
ENDMDL
MODEL       91
REMARK 921   NORMALIZED FREE ENERGY PREDICTED BY IDOCK:   -4.48 KCAL/MOL
REMARK 922        TOTAL FREE ENERGY PREDICTED BY IDOCK:   -8.69 KCAL/MOL
REMARK 923 INTER-LIGAND FREE ENERGY PREDICTED BY IDOCK:   -7.51 KCAL/MOL
REMARK 924 INTRA-LIGAND FREE ENERGY PREDICTED BY IDOCK:   -1.18 KCAL/MOL
REMARK 927      BINDING AFFINITY PREDICTED BY RF-SCORE:    0.00 PKD
ROOT
HETATM    1  C   UNL     1      -8.634  18.522  67.923  1.00  0.00    -0.304 C  
HETATM    2  C   UNL     1     -10.146  18.285  67.871  1.00  0.00    -0.361 C  
HETATM    3  C   UNL     1     -10.816  19.432  67.112  1.00  0.00    -0.561 C  
ENDROOT
BRANCH   2   4
HETATM    4  N   UNL     1     -10.391  16.992  67.229  1.00  0.00    -0.308 NA 
HETATM    5  H   UNL     1     -11.314  16.634  67.476  1.00  0.00     0.000 HD 
BRANCH   4   6
HETATM    6  C   UNL     1     -10.218  17.024  65.769  1.00  0.00    -0.245 C  
BRANCH   6   7
HETATM    7  C   UNL     1     -11.110  15.961  65.104  1.00  0.00    -0.311 C  
HETATM    8  O   UNL     1     -11.412  16.360  63.756  1.00  0.00    -1.590 OA 
HETATM    9  H   UNL     1     -11.963  15.703  63.345  1.00  0.00     0.000 HD 
BRANCH   7  10
HETATM   10  C   UNL     1     -10.425  14.588  65.087  1.00  0.00    -0.416 C  
BRANCH  10  11
HETATM   11  O   UNL     1     -11.423  13.571  64.914  1.00  0.00    -0.316 OA 
BRANCH  11  12
HETATM   12  C   UNL     1     -11.124  12.364  65.486  1.00  0.00    -0.300 A  
HETATM   13  C   UNL     1     -10.445  11.331  64.848  1.00  0.00    -0.375 A  
HETATM   14  C   UNL     1     -10.190  10.136  65.523  1.00  0.00    -0.288 A  
HETATM   15  C   UNL     1     -10.587   9.963  66.858  1.00  0.00    -0.248 A  
HETATM   16  C   UNL     1     -11.252  11.014  67.498  1.00  0.00    -0.372 A  
HETATM   17  C   UNL     1     -11.513  12.209  66.818  1.00  0.00    -0.418 A  
BRANCH  15  18
HETATM   18  C   UNL     1     -10.305   8.666  67.576  1.00  0.00    -0.336 C  
BRANCH  18  19
HETATM   19  C   UNL     1      -9.965   8.879  69.052  1.00  0.00    -0.190 C  
BRANCH  19  20
HETATM   20  O   UNL     1      -8.555   9.053  69.206  1.00  0.00    -0.130 OA 
BRANCH  20  21
HETATM   21  C   UNL     1      -8.240  10.429  69.419  1.00  0.00    -0.151 C  
BRANCH  21  22
HETATM   22  C   UNL     1      -7.191  10.849  68.440  1.00  0.00    -0.087 C  
HETATM   23  C   UNL     1      -7.444  12.040  67.550  1.00  0.00    -0.140 C  
HETATM   24  C   UNL     1      -6.410  12.123  68.637  1.00  0.00    -0.063 C  
ENDBRANCH  21  22
ENDBRANCH  20  21
ENDBRANCH  19  20
ENDBRANCH  18  19
ENDBRANCH  15  18
ENDBRANCH  11  12
ENDBRANCH  10  11
ENDBRANCH   7  10
ENDBRANCH   6   7
ENDBRANCH   4   6
ENDBRANCH   2   4
TORSDOF 11
ENDMDL
MODEL       92
REMARK 921   NORMALIZED FREE ENERGY PREDICTED BY IDOCK:   -4.48 KCAL/MOL
REMARK 922        TOTAL FREE ENERGY PREDICTED BY IDOCK:   -8.69 KCAL/MOL
REMARK 923 INTER-LIGAND FREE ENERGY PREDICTED BY IDOCK:   -7.72 KCAL/MOL
REMARK 924 INTRA-LIGAND FREE ENERGY PREDICTED BY IDOCK:   -0.97 KCAL/MOL
REMARK 927      BINDING AFFINITY PREDICTED BY RF-SCORE:    0.00 PKD
ROOT
HETATM    1  C   UNL     1      -7.683  19.921  66.452  1.00  0.00    -0.323 C  
HETATM    2  C   UNL     1      -8.787  19.454  67.404  1.00  0.00    -0.301 C  
HETATM    3  C   UNL     1     -10.125  20.056  66.969  1.00  0.00    -0.594 C  
ENDROOT
BRANCH   2   4
HETATM    4  N   UNL     1      -8.821  17.989  67.393  1.00  0.00    -0.244 NA 
HETATM    5  H   UNL     1      -8.228  17.608  68.129  1.00  0.00     0.000 HD 
BRANCH   4   6
HETATM    6  C   UNL     1     -10.182  17.439  67.479  1.00  0.00    -0.332 C  
BRANCH   6   7
HETATM    7  C   UNL     1     -10.445  16.484  66.301  1.00  0.00    -0.281 C  
HETATM    8  O   UNL     1      -9.202  16.163  65.653  1.00  0.00    -0.407 OA 
HETATM    9  H   UNL     1      -9.365  15.574  64.926  1.00  0.00     0.000 HD 
BRANCH   7  10
HETATM   10  C   UNL     1     -11.124  15.190  66.770  1.00  0.00    -0.307 C  
BRANCH  10  11
HETATM   11  O   UNL     1     -10.313  14.579  67.784  1.00  0.00    -0.235 OA 
BRANCH  11  12
HETATM   12  C   UNL     1     -11.007  13.897  68.747  1.00  0.00    -0.263 A  
HETATM   13  C   UNL     1     -11.711  14.494  69.789  1.00  0.00    -0.356 A  
HETATM   14  C   UNL     1     -12.388  13.706  70.721  1.00  0.00    -0.446 A  
HETATM   15  C   UNL     1     -12.394  12.307  70.613  1.00  0.00    -0.375 A  
HETATM   16  C   UNL     1     -11.700  11.716  69.552  1.00  0.00    -0.410 A  
HETATM   17  C   UNL     1     -11.017  12.506  68.621  1.00  0.00    -0.291 A  
BRANCH  15  18
HETATM   18  C   UNL     1     -13.130  11.467  71.629  1.00  0.00    -0.498 C  
BRANCH  18  19
HETATM   19  C   UNL     1     -13.111   9.979  71.277  1.00  0.00    -0.402 C  
BRANCH  19  20
HETATM   20  O   UNL     1     -12.762   9.211  72.432  1.00  0.00    -0.382 OA 
BRANCH  20  21
HETATM   21  C   UNL     1     -11.713   8.292  72.125  1.00  0.00    -0.365 C  
BRANCH  21  22
HETATM   22  C   UNL     1     -10.514   9.055  71.664  1.00  0.00    -0.426 C  
HETATM   23  C   UNL     1      -9.143   8.446  71.823  1.00  0.00    -0.283 C  
HETATM   24  C   UNL     1      -9.733   8.616  70.451  1.00  0.00    -0.200 C  
ENDBRANCH  21  22
ENDBRANCH  20  21
ENDBRANCH  19  20
ENDBRANCH  18  19
ENDBRANCH  15  18
ENDBRANCH  11  12
ENDBRANCH  10  11
ENDBRANCH   7  10
ENDBRANCH   6   7
ENDBRANCH   4   6
ENDBRANCH   2   4
TORSDOF 11
ENDMDL
MODEL       93
REMARK 921   NORMALIZED FREE ENERGY PREDICTED BY IDOCK:   -4.48 KCAL/MOL
REMARK 922        TOTAL FREE ENERGY PREDICTED BY IDOCK:   -8.68 KCAL/MOL
REMARK 923 INTER-LIGAND FREE ENERGY PREDICTED BY IDOCK:   -7.88 KCAL/MOL
REMARK 924 INTRA-LIGAND FREE ENERGY PREDICTED BY IDOCK:   -0.80 KCAL/MOL
REMARK 927      BINDING AFFINITY PREDICTED BY RF-SCORE:    0.00 PKD
ROOT
HETATM    1  C   UNL     1      -6.005  20.133  69.779  1.00  0.00    -0.387 C  
HETATM    2  C   UNL     1      -7.232  20.080  68.865  1.00  0.00    -0.194 C  
HETATM    3  C   UNL     1      -6.863  20.629  67.484  1.00  0.00    -0.389 C  
ENDROOT
BRANCH   2   4
HETATM    4  N   UNL     1      -7.697  18.693  68.791  1.00  0.00    -0.317 NA 
HETATM    5  H   UNL     1      -8.059  18.385  69.693  1.00  0.00     0.000 HD 
BRANCH   4   6
HETATM    6  C   UNL     1      -8.686  18.468  67.726  1.00  0.00    -0.275 C  
BRANCH   6   7
HETATM    7  C   UNL     1     -10.100  18.805  68.233  1.00  0.00    -0.383 C  
HETATM    8  O   UNL     1     -10.764  19.653  67.280  1.00  0.00    -0.474 OA 
HETATM    9  H   UNL     1     -11.637  19.861  67.594  1.00  0.00     0.000 HD 
BRANCH   7  10
HETATM   10  C   UNL     1     -10.933  17.536  68.454  1.00  0.00    -0.054 C  
BRANCH  10  11
HETATM   11  O   UNL     1     -10.204  16.641  69.307  1.00  0.00    -0.283 OA 
BRANCH  11  12
HETATM   12  C   UNL     1     -10.975  15.751  70.005  1.00  0.00    -0.338 A  
HETATM   13  C   UNL     1     -11.510  15.986  71.267  1.00  0.00    -0.475 A  
HETATM   14  C   UNL     1     -12.286  15.009  71.895  1.00  0.00    -0.427 A  
HETATM   15  C   UNL     1     -12.560  13.789  71.259  1.00  0.00    -0.444 A  
HETATM   16  C   UNL     1     -12.035  13.568  69.981  1.00  0.00    -0.410 A  
HETATM   17  C   UNL     1     -11.252  14.546  69.356  1.00  0.00    -0.312 A  
BRANCH  15  18
HETATM   18  C   UNL     1     -13.400  12.741  71.948  1.00  0.00    -0.510 C  
BRANCH  18  19
HETATM   19  C   UNL     1     -12.884  11.324  71.698  1.00  0.00    -0.405 C  
BRANCH  19  20
HETATM   20  O   UNL     1     -13.762  10.373  72.304  1.00  0.00    -0.213 OA 
BRANCH  20  21
HETATM   21  C   UNL     1     -13.331   9.041  72.020  1.00  0.00    -0.438 C  
BRANCH  21  22
HETATM   22  C   UNL     1     -11.856   9.044  71.784  1.00  0.00    -0.442 C  
HETATM   23  C   UNL     1     -10.964   8.202  72.663  1.00  0.00    -0.440 C  
HETATM   24  C   UNL     1     -11.157   7.834  71.218  1.00  0.00    -0.271 C  
ENDBRANCH  21  22
ENDBRANCH  20  21
ENDBRANCH  19  20
ENDBRANCH  18  19
ENDBRANCH  15  18
ENDBRANCH  11  12
ENDBRANCH  10  11
ENDBRANCH   7  10
ENDBRANCH   6   7
ENDBRANCH   4   6
ENDBRANCH   2   4
TORSDOF 11
ENDMDL
MODEL       94
REMARK 921   NORMALIZED FREE ENERGY PREDICTED BY IDOCK:   -4.47 KCAL/MOL
REMARK 922        TOTAL FREE ENERGY PREDICTED BY IDOCK:   -8.66 KCAL/MOL
REMARK 923 INTER-LIGAND FREE ENERGY PREDICTED BY IDOCK:   -7.21 KCAL/MOL
REMARK 924 INTRA-LIGAND FREE ENERGY PREDICTED BY IDOCK:   -1.46 KCAL/MOL
REMARK 927      BINDING AFFINITY PREDICTED BY RF-SCORE:    0.00 PKD
ROOT
HETATM    1  C   UNL     1      -7.040  16.586  68.872  1.00  0.00    -0.200 C  
HETATM    2  C   UNL     1      -6.435  17.979  68.679  1.00  0.00    -0.223 C  
HETATM    3  C   UNL     1      -5.530  17.976  67.445  1.00  0.00    -0.145 C  
ENDROOT
BRANCH   2   4
HETATM    4  N   UNL     1      -7.528  18.946  68.548  1.00  0.00    -0.295 NA 
HETATM    5  H   UNL     1      -7.854  19.249  69.465  1.00  0.00     0.000 HD 
BRANCH   4   6
HETATM    6  C   UNL     1      -7.184  20.103  67.707  1.00  0.00    -0.294 C  
BRANCH   6   7
HETATM    7  C   UNL     1      -8.209  20.257  66.570  1.00  0.00    -0.207 C  
HETATM    8  O   UNL     1      -7.560  20.056  65.303  1.00  0.00    -0.392 OA 
HETATM    9  H   UNL     1      -8.194  20.152  64.602  1.00  0.00     0.000 HD 
BRANCH   7  10
HETATM   10  C   UNL     1      -9.362  19.254  66.716  1.00  0.00    -0.329 C  
BRANCH  10  11
HETATM   11  O   UNL     1      -9.012  18.040  66.035  1.00  0.00    -0.502 OA 
BRANCH  11  12
HETATM   12  C   UNL     1      -9.652  16.918  66.490  1.00  0.00    -0.278 A  
HETATM   13  C   UNL     1     -10.478  16.874  67.608  1.00  0.00    -0.332 A  
HETATM   14  C   UNL     1     -11.084  15.675  67.988  1.00  0.00    -0.335 A  
HETATM   15  C   UNL     1     -10.894  14.504  67.240  1.00  0.00    -0.297 A  
HETATM   16  C   UNL     1     -10.078  14.560  66.105  1.00  0.00    -0.319 A  
HETATM   17  C   UNL     1      -9.466  15.761  65.729  1.00  0.00    -0.334 A  
BRANCH  15  18
HETATM   18  C   UNL     1     -11.555  13.214  67.661  1.00  0.00    -0.392 C  
BRANCH  18  19
HETATM   19  C   UNL     1     -11.431  12.960  69.164  1.00  0.00    -0.306 C  
BRANCH  19  20
HETATM   20  O   UNL     1     -12.599  13.439  69.836  1.00  0.00    -0.151 OA 
BRANCH  20  21
HETATM   21  C   UNL     1     -12.339  13.612  71.229  1.00  0.00    -0.271 C  
BRANCH  21  22
HETATM   22  C   UNL     1     -12.739  14.993  71.634  1.00  0.00    -0.413 C  
HETATM   23  C   UNL     1     -12.843  15.334  73.100  1.00  0.00    -0.606 C  
HETATM   24  C   UNL     1     -11.747  15.936  72.266  1.00  0.00    -0.586 C  
ENDBRANCH  21  22
ENDBRANCH  20  21
ENDBRANCH  19  20
ENDBRANCH  18  19
ENDBRANCH  15  18
ENDBRANCH  11  12
ENDBRANCH  10  11
ENDBRANCH   7  10
ENDBRANCH   6   7
ENDBRANCH   4   6
ENDBRANCH   2   4
TORSDOF 11
ENDMDL
MODEL       95
REMARK 921   NORMALIZED FREE ENERGY PREDICTED BY IDOCK:   -4.45 KCAL/MOL
REMARK 922        TOTAL FREE ENERGY PREDICTED BY IDOCK:   -8.64 KCAL/MOL
REMARK 923 INTER-LIGAND FREE ENERGY PREDICTED BY IDOCK:   -6.41 KCAL/MOL
REMARK 924 INTRA-LIGAND FREE ENERGY PREDICTED BY IDOCK:   -2.23 KCAL/MOL
REMARK 927      BINDING AFFINITY PREDICTED BY RF-SCORE:    0.00 PKD
ROOT
HETATM    1  C   UNL     1     -11.809  12.236  63.695  1.00  0.00    -0.610 C  
HETATM    2  C   UNL     1     -12.092  13.689  64.085  1.00  0.00    -0.435 C  
HETATM    3  C   UNL     1     -12.939  13.719  65.359  1.00  0.00    -0.361 C  
ENDROOT
BRANCH   2   4
HETATM    4  N   UNL     1     -10.813  14.379  64.267  1.00  0.00    -0.561 NA 
HETATM    5  H   UNL     1     -10.290  14.410  63.392  1.00  0.00     0.000 HD 
BRANCH   4   6
HETATM    6  C   UNL     1     -10.955  15.727  64.839  1.00  0.00    -0.427 C  
BRANCH   6   7
HETATM    7  C   UNL     1     -10.000  15.901  66.034  1.00  0.00    -0.334 C  
HETATM    8  O   UNL     1     -10.739  16.357  67.180  1.00  0.00    -0.307 OA 
HETATM    9  H   UNL     1     -10.149  16.464  67.917  1.00  0.00     0.000 HD 
BRANCH   7  10
HETATM   10  C   UNL     1      -9.288  14.585  66.377  1.00  0.00    -0.273 C  
BRANCH  10  11
HETATM   11  O   UNL     1     -10.040  13.898  67.389  1.00  0.00    -0.240 OA 
BRANCH  11  12
HETATM   12  C   UNL     1     -10.103  12.539  67.238  1.00  0.00    -0.213 A  
HETATM   13  C   UNL     1      -9.298  11.798  66.379  1.00  0.00    -0.229 A  
HETATM   14  C   UNL     1      -9.443  10.412  66.301  1.00  0.00    -0.215 A  
HETATM   15  C   UNL     1     -10.379   9.739  67.100  1.00  0.00    -0.311 A  
HETATM   16  C   UNL     1     -11.172  10.489  67.976  1.00  0.00    -0.361 A  
HETATM   17  C   UNL     1     -11.030  11.880  68.049  1.00  0.00    -0.271 A  
BRANCH  15  18
HETATM   18  C   UNL     1     -10.526   8.240  67.006  1.00  0.00    -0.384 C  
BRANCH  18  19
HETATM   19  C   UNL     1     -10.453   7.560  68.373  1.00  0.00    -0.175 C  
BRANCH  19  20
HETATM   20  O   UNL     1      -9.141   7.711  68.921  1.00  0.00    -0.141 OA 
BRANCH  20  21
HETATM   21  C   UNL     1      -9.212   8.029  70.311  1.00  0.00    -0.155 C  
BRANCH  21  22
HETATM   22  C   UNL     1      -8.157   9.036  70.638  1.00  0.00    -0.184 C  
HETATM   23  C   UNL     1      -6.864   9.031  69.860  1.00  0.00    -0.047 C  
HETATM   24  C   UNL     1      -7.838  10.162  69.688  1.00  0.00    -0.181 C  
ENDBRANCH  21  22
ENDBRANCH  20  21
ENDBRANCH  19  20
ENDBRANCH  18  19
ENDBRANCH  15  18
ENDBRANCH  11  12
ENDBRANCH  10  11
ENDBRANCH   7  10
ENDBRANCH   6   7
ENDBRANCH   4   6
ENDBRANCH   2   4
TORSDOF 11
ENDMDL
MODEL       96
REMARK 921   NORMALIZED FREE ENERGY PREDICTED BY IDOCK:   -4.45 KCAL/MOL
REMARK 922        TOTAL FREE ENERGY PREDICTED BY IDOCK:   -8.64 KCAL/MOL
REMARK 923 INTER-LIGAND FREE ENERGY PREDICTED BY IDOCK:   -6.87 KCAL/MOL
REMARK 924 INTRA-LIGAND FREE ENERGY PREDICTED BY IDOCK:   -1.77 KCAL/MOL
REMARK 927      BINDING AFFINITY PREDICTED BY RF-SCORE:    0.00 PKD
ROOT
HETATM    1  C   UNL     1     -13.204  11.338  71.907  1.00  0.00    -0.491 C  
HETATM    2  C   UNL     1     -12.978  10.486  70.655  1.00  0.00    -0.285 C  
HETATM    3  C   UNL     1     -11.602  10.800  70.065  1.00  0.00    -0.417 C  
ENDROOT
BRANCH   2   4
HETATM    4  N   UNL     1     -13.099   9.074  71.026  1.00  0.00    -0.531 NA 
HETATM    5  H   UNL     1     -13.035   8.476  70.202  1.00  0.00     0.000 HD 
BRANCH   4   6
HETATM    6  C   UNL     1     -12.131   8.656  72.052  1.00  0.00    -0.375 C  
BRANCH   6   7
HETATM    7  C   UNL     1     -11.680   7.207  71.798  1.00  0.00    -0.290 C  
HETATM    8  O   UNL     1     -12.624   6.298  72.390  1.00  0.00    -0.549 OA 
HETATM    9  H   UNL     1     -12.345   5.403  72.233  1.00  0.00     0.000 HD 
BRANCH   7  10
HETATM   10  C   UNL     1     -11.562   6.912  70.297  1.00  0.00    -0.311 C  
BRANCH  10  11
HETATM   11  O   UNL     1     -10.173   6.859  69.939  1.00  0.00    -0.192 OA 
BRANCH  11  12
HETATM   12  C   UNL     1      -9.800   7.718  68.941  1.00  0.00    -0.166 A  
HETATM   13  C   UNL     1      -8.727   8.601  69.014  1.00  0.00    -0.134 A  
HETATM   14  C   UNL     1      -8.430   9.437  67.937  1.00  0.00    -0.116 A  
HETATM   15  C   UNL     1      -9.187   9.387  66.756  1.00  0.00    -0.179 A  
HETATM   16  C   UNL     1     -10.253   8.484  66.683  1.00  0.00    -0.345 A  
HETATM   17  C   UNL     1     -10.553   7.650  67.767  1.00  0.00    -0.265 A  
BRANCH  15  18
HETATM   18  C   UNL     1      -8.856  10.297  65.598  1.00  0.00    -0.186 C  
BRANCH  18  19
HETATM   19  C   UNL     1     -10.076  10.601  64.729  1.00  0.00    -0.344 C  
BRANCH  19  20
HETATM   20  O   UNL     1     -10.359  12.003  64.761  1.00  0.00    -0.262 OA 
BRANCH  20  21
HETATM   21  C   UNL     1     -11.651  12.240  65.320  1.00  0.00    -0.355 C  
BRANCH  21  22
HETATM   22  C   UNL     1     -11.529  12.344  66.806  1.00  0.00    -0.423 C  
HETATM   23  C   UNL     1     -10.429  13.187  67.401  1.00  0.00    -0.243 C  
HETATM   24  C   UNL     1     -11.860  13.627  67.524  1.00  0.00    -0.416 C  
ENDBRANCH  21  22
ENDBRANCH  20  21
ENDBRANCH  19  20
ENDBRANCH  18  19
ENDBRANCH  15  18
ENDBRANCH  11  12
ENDBRANCH  10  11
ENDBRANCH   7  10
ENDBRANCH   6   7
ENDBRANCH   4   6
ENDBRANCH   2   4
TORSDOF 11
ENDMDL
MODEL       97
REMARK 921   NORMALIZED FREE ENERGY PREDICTED BY IDOCK:   -4.44 KCAL/MOL
REMARK 922        TOTAL FREE ENERGY PREDICTED BY IDOCK:   -8.62 KCAL/MOL
REMARK 923 INTER-LIGAND FREE ENERGY PREDICTED BY IDOCK:   -7.78 KCAL/MOL
REMARK 924 INTRA-LIGAND FREE ENERGY PREDICTED BY IDOCK:   -0.84 KCAL/MOL
REMARK 927      BINDING AFFINITY PREDICTED BY RF-SCORE:    0.00 PKD
ROOT
HETATM    1  C   UNL     1     -13.177  10.229  71.641  1.00  0.00    -0.509 C  
HETATM    2  C   UNL     1     -12.167   9.078  71.645  1.00  0.00    -0.348 C  
HETATM    3  C   UNL     1     -12.882   7.772  72.000  1.00  0.00    -0.265 C  
ENDROOT
BRANCH   2   4
HETATM    4  N   UNL     1     -11.535   9.010  70.325  1.00  0.00    -0.430 NA 
HETATM    5  H   UNL     1     -11.262   9.939  70.006  1.00  0.00     0.000 HD 
BRANCH   4   6
HETATM    6  C   UNL     1     -10.393   8.083  70.274  1.00  0.00    -0.212 C  
BRANCH   6   7
HETATM    7  C   UNL     1      -9.989   7.819  68.813  1.00  0.00    -0.176 C  
HETATM    8  O   UNL     1     -11.088   7.215  68.109  1.00  0.00    -0.469 OA 
HETATM    9  H   UNL     1     -10.837   7.052  67.207  1.00  0.00     0.000 HD 
BRANCH   7  10
HETATM   10  C   UNL     1      -9.582   9.117  68.102  1.00  0.00    -0.144 C  
BRANCH  10  11
HETATM   11  O   UNL     1     -10.613   9.485  67.174  1.00  0.00    -0.257 OA 
BRANCH  11  12
HETATM   12  C   UNL     1     -10.707  10.826  66.917  1.00  0.00    -0.252 A  
HETATM   13  C   UNL     1     -10.461  11.415  65.681  1.00  0.00    -0.316 A  
HETATM   14  C   UNL     1     -10.586  12.797  65.524  1.00  0.00    -0.303 A  
HETATM   15  C   UNL     1     -10.985  13.610  66.595  1.00  0.00    -0.295 A  
HETATM   16  C   UNL     1     -11.250  13.008  67.829  1.00  0.00    -0.313 A  
HETATM   17  C   UNL     1     -11.118  11.623  67.987  1.00  0.00    -0.299 A  
BRANCH  15  18
HETATM   18  C   UNL     1     -11.116  15.103  66.412  1.00  0.00    -0.312 C  
BRANCH  18  19
HETATM   19  C   UNL     1     -10.720  15.554  65.005  1.00  0.00    -0.441 C  
BRANCH  19  20
HETATM   20  O   UNL     1     -10.540  16.972  64.983  1.00  0.00    -0.703 OA 
BRANCH  20  21
HETATM   21  C   UNL     1     -10.334  17.472  66.305  1.00  0.00    -0.335 C  
BRANCH  21  22
HETATM   22  C   UNL     1     -10.123  18.950  66.242  1.00  0.00    -0.460 C  
HETATM   23  C   UNL     1     -10.563  19.810  67.401  1.00  0.00    -0.553 C  
HETATM   24  C   UNL     1      -9.099  19.626  67.118  1.00  0.00    -0.393 C  
ENDBRANCH  21  22
ENDBRANCH  20  21
ENDBRANCH  19  20
ENDBRANCH  18  19
ENDBRANCH  15  18
ENDBRANCH  11  12
ENDBRANCH  10  11
ENDBRANCH   7  10
ENDBRANCH   6   7
ENDBRANCH   4   6
ENDBRANCH   2   4
TORSDOF 11
ENDMDL
MODEL       98
REMARK 921   NORMALIZED FREE ENERGY PREDICTED BY IDOCK:   -4.43 KCAL/MOL
REMARK 922        TOTAL FREE ENERGY PREDICTED BY IDOCK:   -8.61 KCAL/MOL
REMARK 923 INTER-LIGAND FREE ENERGY PREDICTED BY IDOCK:   -7.62 KCAL/MOL
REMARK 924 INTRA-LIGAND FREE ENERGY PREDICTED BY IDOCK:   -0.99 KCAL/MOL
REMARK 927      BINDING AFFINITY PREDICTED BY RF-SCORE:    0.00 PKD
ROOT
HETATM    1  C   UNL     1     -10.804  14.083  64.585  1.00  0.00    -0.416 C  
HETATM    2  C   UNL     1     -11.058  12.607  64.267  1.00  0.00    -0.362 C  
HETATM    3  C   UNL     1     -12.319  12.480  63.408  1.00  0.00    -0.577 C  
ENDROOT
BRANCH   2   4
HETATM    4  N   UNL     1      -9.880  12.069  63.584  1.00  0.00    -0.553 NA 
HETATM    5  H   UNL     1      -9.029  12.523  63.917  1.00  0.00     0.000 HD 
BRANCH   4   6
HETATM    6  C   UNL     1      -9.765  10.606  63.686  1.00  0.00    -0.330 C  
BRANCH   6   7
HETATM    7  C   UNL     1      -8.303  10.204  63.948  1.00  0.00    -0.172 C  
HETATM    8  O   UNL     1      -7.439  10.909  63.039  1.00  0.00    -0.358 OA 
HETATM    9  H   UNL     1      -6.536  10.660  63.201  1.00  0.00     0.000 HD 
BRANCH   7  10
HETATM   10  C   UNL     1      -7.887  10.517  65.392  1.00  0.00    -0.119 C  
BRANCH  10  11
HETATM   11  O   UNL     1      -8.889  10.013  66.286  1.00  0.00    -0.140 OA 
BRANCH  11  12
HETATM   12  C   UNL     1      -9.634  10.971  66.919  1.00  0.00    -0.182 A  
HETATM   13  C   UNL     1     -10.984  10.850  67.230  1.00  0.00    -0.355 A  
HETATM   14  C   UNL     1     -11.652  11.890  67.879  1.00  0.00    -0.393 A  
HETATM   15  C   UNL     1     -10.974  13.060  68.251  1.00  0.00    -0.285 A  
HETATM   16  C   UNL     1      -9.611  13.167  67.952  1.00  0.00    -0.218 A  
HETATM   17  C   UNL     1      -8.944  12.126  67.296  1.00  0.00    -0.184 A  
BRANCH  15  18
HETATM   18  C   UNL     1     -11.708  14.177  68.952  1.00  0.00    -0.369 C  
BRANCH  18  19
HETATM   19  C   UNL     1     -10.758  15.235  69.515  1.00  0.00    -0.265 C  
BRANCH  19  20
HETATM   20  O   UNL     1     -10.828  15.240  70.943  1.00  0.00    -0.301 OA 
BRANCH  20  21
HETATM   21  C   UNL     1     -12.037  14.624  71.388  1.00  0.00    -0.355 C  
BRANCH  21  22
HETATM   22  C   UNL     1     -12.778  15.578  72.267  1.00  0.00    -0.487 C  
HETATM   23  C   UNL     1     -12.735  15.391  73.764  1.00  0.00    -0.723 C  
HETATM   24  C   UNL     1     -12.041  16.567  73.135  1.00  0.00    -0.479 C  
ENDBRANCH  21  22
ENDBRANCH  20  21
ENDBRANCH  19  20
ENDBRANCH  18  19
ENDBRANCH  15  18
ENDBRANCH  11  12
ENDBRANCH  10  11
ENDBRANCH   7  10
ENDBRANCH   6   7
ENDBRANCH   4   6
ENDBRANCH   2   4
TORSDOF 11
ENDMDL
MODEL       99
REMARK 921   NORMALIZED FREE ENERGY PREDICTED BY IDOCK:   -4.43 KCAL/MOL
REMARK 922        TOTAL FREE ENERGY PREDICTED BY IDOCK:   -8.61 KCAL/MOL
REMARK 923 INTER-LIGAND FREE ENERGY PREDICTED BY IDOCK:   -7.55 KCAL/MOL
REMARK 924 INTRA-LIGAND FREE ENERGY PREDICTED BY IDOCK:   -1.06 KCAL/MOL
REMARK 927      BINDING AFFINITY PREDICTED BY RF-SCORE:    0.00 PKD
ROOT
HETATM    1  C   UNL     1     -12.308  14.230  64.113  1.00  0.00    -0.361 C  
HETATM    2  C   UNL     1     -12.530  12.776  64.537  1.00  0.00    -0.428 C  
HETATM    3  C   UNL     1     -11.638  11.857  63.699  1.00  0.00    -0.559 C  
ENDROOT
BRANCH   2   4
HETATM    4  N   UNL     1     -12.238  12.659  65.968  1.00  0.00    -0.597 NA 
HETATM    5  H   UNL     1     -11.308  12.266  66.116  1.00  0.00     0.000 HD 
BRANCH   4   6
HETATM    6  C   UNL     1     -12.392  13.927  66.698  1.00  0.00    -0.369 C  
BRANCH   6   7
HETATM    7  C   UNL     1     -11.595  13.882  68.015  1.00  0.00    -0.333 C  
HETATM    8  O   UNL     1     -12.419  14.354  69.094  1.00  0.00    -0.547 OA 
HETATM    9  H   UNL     1     -11.927  14.325  69.906  1.00  0.00     0.000 HD 
BRANCH   7  10
HETATM   10  C   UNL     1     -11.112  12.459  68.327  1.00  0.00    -0.243 C  
BRANCH  10  11
HETATM   11  O   UNL     1     -12.224  11.679  68.789  1.00  0.00    -0.416 OA 
BRANCH  11  12
HETATM   12  C   UNL     1     -11.921  10.750  69.747  1.00  0.00    -0.325 A  
HETATM   13  C   UNL     1     -10.686  10.125  69.883  1.00  0.00    -0.340 A  
HETATM   14  C   UNL     1     -10.479   9.189  70.898  1.00  0.00    -0.347 A  
HETATM   15  C   UNL     1     -11.498   8.880  71.811  1.00  0.00    -0.423 A  
HETATM   16  C   UNL     1     -12.732   9.527  71.680  1.00  0.00    -0.478 A  
HETATM   17  C   UNL     1     -12.939  10.461  70.658  1.00  0.00    -0.357 A  
BRANCH  15  18
HETATM   18  C   UNL     1     -11.262   7.866  72.904  1.00  0.00    -0.429 C  
BRANCH  18  19
HETATM   19  C   UNL     1     -11.374   6.427  72.397  1.00  0.00    -0.287 C  
BRANCH  19  20
HETATM   20  O   UNL     1     -10.598   5.558  73.227  1.00  0.00    -0.212 OA 
BRANCH  20  21
HETATM   21  C   UNL     1      -9.616   6.301  73.949  1.00  0.00    -0.177 C  
BRANCH  21  22
HETATM   22  C   UNL     1      -8.257   5.795  73.590  1.00  0.00    -0.111 C  
HETATM   23  C   UNL     1      -8.099   4.878  72.402  1.00  0.00    -0.111 C  
HETATM   24  C   UNL     1      -7.552   6.277  72.348  1.00  0.00    -0.098 C  
ENDBRANCH  21  22
ENDBRANCH  20  21
ENDBRANCH  19  20
ENDBRANCH  18  19
ENDBRANCH  15  18
ENDBRANCH  11  12
ENDBRANCH  10  11
ENDBRANCH   7  10
ENDBRANCH   6   7
ENDBRANCH   4   6
ENDBRANCH   2   4
TORSDOF 11
ENDMDL
MODEL      100
REMARK 921   NORMALIZED FREE ENERGY PREDICTED BY IDOCK:   -4.40 KCAL/MOL
REMARK 922        TOTAL FREE ENERGY PREDICTED BY IDOCK:   -8.55 KCAL/MOL
REMARK 923 INTER-LIGAND FREE ENERGY PREDICTED BY IDOCK:   -7.35 KCAL/MOL
REMARK 924 INTRA-LIGAND FREE ENERGY PREDICTED BY IDOCK:   -1.20 KCAL/MOL
REMARK 927      BINDING AFFINITY PREDICTED BY RF-SCORE:    0.00 PKD
ROOT
HETATM    1  C   UNL     1     -10.288   6.886  73.814  1.00  0.00    -0.409 C  
HETATM    2  C   UNL     1     -10.851   5.662  73.089  1.00  0.00    -0.281 C  
HETATM    3  C   UNL     1     -10.885   4.470  74.049  1.00  0.00    -0.316 C  
ENDROOT
BRANCH   2   4
HETATM    4  N   UNL     1     -12.188   5.993  72.588  1.00  0.00    -0.536 NA 
HETATM    5  H   UNL     1     -12.827   6.181  73.359  1.00  0.00     0.000 HD 
BRANCH   4   6
HETATM    6  C   UNL     1     -12.189   7.105  71.624  1.00  0.00    -0.350 C  
BRANCH   6   7
HETATM    7  C   UNL     1     -11.139   6.858  70.527  1.00  0.00    -0.288 C  
HETATM    8  O   UNL     1     -11.799   6.549  69.287  1.00  0.00    -0.608 OA 
HETATM    9  H   UNL     1     -11.150   6.397  68.610  1.00  0.00     0.000 HD 
BRANCH   7  10
HETATM   10  C   UNL     1     -10.236   8.083  70.331  1.00  0.00    -0.201 C  
BRANCH  10  11
HETATM   11  O   UNL     1     -10.936   9.255  70.775  1.00  0.00    -0.240 OA 
BRANCH  11  12
HETATM   12  C   UNL     1     -11.191  10.180  69.799  1.00  0.00    -0.272 A  
HETATM   13  C   UNL     1     -11.845  11.390  70.005  1.00  0.00    -0.440 A  
HETATM   14  C   UNL     1     -12.056  12.265  68.938  1.00  0.00    -0.177 A  
HETATM   15  C   UNL     1     -11.593  11.957  67.650  1.00  0.00    -0.382 A  
HETATM   16  C   UNL     1     -10.919  10.746  67.455  1.00  0.00    -0.361 A  
HETATM   17  C   UNL     1     -10.714   9.867  68.524  1.00  0.00    -0.260 A  
BRANCH  15  18
HETATM   18  C   UNL     1     -11.828  12.912  66.505  1.00  0.00    -0.473 C  
BRANCH  18  19
HETATM   19  C   UNL     1     -10.533  13.285  65.783  1.00  0.00    -0.284 C  
BRANCH  19  20
HETATM   20  O   UNL     1      -9.932  14.418  66.415  1.00  0.00    -0.272 OA 
BRANCH  20  21
HETATM   21  C   UNL     1     -10.913  15.421  66.680  1.00  0.00    -0.275 C  
BRANCH  21  22
HETATM   22  C   UNL     1     -10.581  16.103  67.968  1.00  0.00    -0.304 C  
HETATM   23  C   UNL     1     -11.412  15.815  69.194  1.00  0.00    -0.383 C  
HETATM   24  C   UNL     1      -9.990  15.335  69.123  1.00  0.00    -0.238 C  
ENDBRANCH  21  22
ENDBRANCH  20  21
ENDBRANCH  19  20
ENDBRANCH  18  19
ENDBRANCH  15  18
ENDBRANCH  11  12
ENDBRANCH  10  11
ENDBRANCH   7  10
ENDBRANCH   6   7
ENDBRANCH   4   6
ENDBRANCH   2   4
TORSDOF 11
ENDMDL
MODEL      101
REMARK 921   NORMALIZED FREE ENERGY PREDICTED BY IDOCK:   -4.40 KCAL/MOL
REMARK 922        TOTAL FREE ENERGY PREDICTED BY IDOCK:   -8.55 KCAL/MOL
REMARK 923 INTER-LIGAND FREE ENERGY PREDICTED BY IDOCK:   -7.36 KCAL/MOL
REMARK 924 INTRA-LIGAND FREE ENERGY PREDICTED BY IDOCK:   -1.19 KCAL/MOL
REMARK 927      BINDING AFFINITY PREDICTED BY RF-SCORE:    0.00 PKD
ROOT
HETATM    1  C   UNL     1      -7.839  11.163  66.799  1.00  0.00    -0.153 C  
HETATM    2  C   UNL     1      -8.790  11.121  65.601  1.00  0.00    -0.157 C  
HETATM    3  C   UNL     1      -9.789   9.976  65.781  1.00  0.00    -0.345 C  
ENDROOT
BRANCH   2   4
HETATM    4  N   UNL     1      -9.464  12.418  65.498  1.00  0.00    -0.439 NA 
HETATM    5  H   UNL     1     -10.339  12.331  64.980  1.00  0.00     0.000 HD 
BRANCH   4   6
HETATM    6  C   UNL     1      -9.690  13.061  66.801  1.00  0.00    -0.248 C  
BRANCH   6   7
HETATM    7  C   UNL     1     -10.812  14.109  66.689  1.00  0.00    -0.299 C  
HETATM    8  O   UNL     1     -11.289  14.162  65.333  1.00  0.00    -0.308 OA 
HETATM    9  H   UNL     1     -11.981  14.809  65.265  1.00  0.00     0.000 HD 
BRANCH   7  10
HETATM   10  C   UNL     1     -11.981  13.780  67.627  1.00  0.00    -0.356 C  
BRANCH  10  11
HETATM   11  O   UNL     1     -11.539  13.911  68.987  1.00  0.00    -0.265 OA 
BRANCH  11  12
HETATM   12  C   UNL     1     -11.908  12.886  69.815  1.00  0.00    -0.310 A  
HETATM   13  C   UNL     1     -12.635  13.039  70.991  1.00  0.00    -0.386 A  
HETATM   14  C   UNL     1     -12.960  11.925  71.766  1.00  0.00    -0.455 A  
HETATM   15  C   UNL     1     -12.585  10.634  71.366  1.00  0.00    -0.526 A  
HETATM   16  C   UNL     1     -11.870  10.486  70.172  1.00  0.00    -0.404 A  
HETATM   17  C   UNL     1     -11.540  11.605  69.399  1.00  0.00    -0.392 A  
BRANCH  15  18
HETATM   18  C   UNL     1     -12.943   9.438  72.213  1.00  0.00    -0.479 C  
BRANCH  18  19
HETATM   19  C   UNL     1     -11.875   8.344  72.159  1.00  0.00    -0.375 C  
BRANCH  19  20
HETATM   20  O   UNL     1     -12.387   7.199  71.473  1.00  0.00    -0.329 OA 
BRANCH  20  21
HETATM   21  C   UNL     1     -11.325   6.466  70.862  1.00  0.00    -0.338 C  
BRANCH  21  22
HETATM   22  C   UNL     1     -11.427   6.602  69.377  1.00  0.00    -0.288 C  
HETATM   23  C   UNL     1     -10.382   7.397  68.633  1.00  0.00    -0.215 C  
HETATM   24  C   UNL     1     -10.450   5.905  68.464  1.00  0.00    -0.297 C  
ENDBRANCH  21  22
ENDBRANCH  20  21
ENDBRANCH  19  20
ENDBRANCH  18  19
ENDBRANCH  15  18
ENDBRANCH  11  12
ENDBRANCH  10  11
ENDBRANCH   7  10
ENDBRANCH   6   7
ENDBRANCH   4   6
ENDBRANCH   2   4
TORSDOF 11
ENDMDL
MODEL      102
REMARK 921   NORMALIZED FREE ENERGY PREDICTED BY IDOCK:   -4.40 KCAL/MOL
REMARK 922        TOTAL FREE ENERGY PREDICTED BY IDOCK:   -8.55 KCAL/MOL
REMARK 923 INTER-LIGAND FREE ENERGY PREDICTED BY IDOCK:   -7.62 KCAL/MOL
REMARK 924 INTRA-LIGAND FREE ENERGY PREDICTED BY IDOCK:   -0.93 KCAL/MOL
REMARK 927      BINDING AFFINITY PREDICTED BY RF-SCORE:    0.00 PKD
ROOT
HETATM    1  C   UNL     1     -10.215   5.046  66.875  1.00  0.00    -0.270 C  
HETATM    2  C   UNL     1     -11.035   6.246  67.356  1.00  0.00    -0.356 C  
HETATM    3  C   UNL     1     -10.832   6.431  68.862  1.00  0.00    -0.382 C  
ENDROOT
BRANCH   2   4
HETATM    4  N   UNL     1     -10.613   7.429  66.603  1.00  0.00    -0.509 NA 
HETATM    5  H   UNL     1     -10.923   8.283  67.066  1.00  0.00     0.000 HD 
BRANCH   4   6
HETATM    6  C   UNL     1      -9.165   7.470  66.347  1.00  0.00    -0.167 C  
BRANCH   6   7
HETATM    7  C   UNL     1      -8.698   8.926  66.166  1.00  0.00    -0.153 C  
HETATM    8  O   UNL     1      -9.133   9.417  64.887  1.00  0.00    -0.222 OA 
HETATM    9  H   UNL     1      -8.844  10.316  64.776  1.00  0.00     0.000 HD 
BRANCH   7  10
HETATM   10  C   UNL     1      -9.251   9.832  67.275  1.00  0.00    -0.134 C  
BRANCH  10  11
HETATM   11  O   UNL     1     -10.423  10.502  66.788  1.00  0.00    -0.239 OA 
BRANCH  11  12
HETATM   12  C   UNL     1     -10.513  11.826  67.123  1.00  0.00    -0.220 A  
HETATM   13  C   UNL     1      -9.504  12.558  67.740  1.00  0.00    -0.197 A  
HETATM   14  C   UNL     1      -9.697  13.908  68.039  1.00  0.00    -0.226 A  
HETATM   15  C   UNL     1     -10.895  14.556  67.703  1.00  0.00    -0.275 A  
HETATM   16  C   UNL     1     -11.898  13.818  67.065  1.00  0.00    -0.445 A  
HETATM   17  C   UNL     1     -11.705  12.464  66.771  1.00  0.00    -0.430 A  
BRANCH  15  18
HETATM   18  C   UNL     1     -11.091  16.016  68.032  1.00  0.00    -0.334 C  
BRANCH  18  19
HETATM   19  C   UNL     1     -11.093  16.278  69.539  1.00  0.00    -0.330 C  
BRANCH  19  20
HETATM   20  O   UNL     1     -12.037  15.417  70.181  1.00  0.00    -0.324 OA 
BRANCH  20  21
HETATM   21  C   UNL     1     -11.542  14.989  71.450  1.00  0.00    -0.346 C  
BRANCH  21  22
HETATM   22  C   UNL     1     -12.030  15.925  72.507  1.00  0.00    -0.622 C  
HETATM   23  C   UNL     1     -13.453  15.812  72.996  1.00  0.00    -0.672 C  
HETATM   24  C   UNL     1     -12.315  15.438  73.905  1.00  0.00    -0.764 C  
ENDBRANCH  21  22
ENDBRANCH  20  21
ENDBRANCH  19  20
ENDBRANCH  18  19
ENDBRANCH  15  18
ENDBRANCH  11  12
ENDBRANCH  10  11
ENDBRANCH   7  10
ENDBRANCH   6   7
ENDBRANCH   4   6
ENDBRANCH   2   4
TORSDOF 11
ENDMDL
MODEL      103
REMARK 921   NORMALIZED FREE ENERGY PREDICTED BY IDOCK:   -4.40 KCAL/MOL
REMARK 922        TOTAL FREE ENERGY PREDICTED BY IDOCK:   -8.55 KCAL/MOL
REMARK 923 INTER-LIGAND FREE ENERGY PREDICTED BY IDOCK:   -7.18 KCAL/MOL
REMARK 924 INTRA-LIGAND FREE ENERGY PREDICTED BY IDOCK:   -1.37 KCAL/MOL
REMARK 927      BINDING AFFINITY PREDICTED BY RF-SCORE:    0.00 PKD
ROOT
HETATM    1  C   UNL     1     -10.006  19.687  68.326  1.00  0.00    -0.543 C  
HETATM    2  C   UNL     1      -9.393  19.591  66.926  1.00  0.00    -0.346 C  
HETATM    3  C   UNL     1     -10.476  19.849  65.876  1.00  0.00    -0.567 C  
ENDROOT
BRANCH   2   4
HETATM    4  N   UNL     1      -8.301  20.562  66.829  1.00  0.00    -0.541 NA 
HETATM    5  H   UNL     1      -7.781  20.610  67.705  1.00  0.00     0.000 HD 
BRANCH   4   6
HETATM    6  C   UNL     1      -7.396  20.309  65.698  1.00  0.00    -0.204 C  
BRANCH   6   7
HETATM    7  C   UNL     1      -6.010  19.880  66.212  1.00  0.00    -0.170 C  
HETATM    8  O   UNL     1      -5.918  20.138  67.623  1.00  0.00    -0.185 OA 
HETATM    9  H   UNL     1      -5.062  19.873  67.940  1.00  0.00     0.000 HD 
BRANCH   7  10
HETATM   10  C   UNL     1      -5.751  18.391  65.948  1.00  0.00    -0.187 C  
BRANCH  10  11
HETATM   11  O   UNL     1      -5.760  17.687  67.198  1.00  0.00    -0.121 OA 
BRANCH  11  12
HETATM   12  C   UNL     1      -6.914  17.002  67.468  1.00  0.00    -0.146 A  
HETATM   13  C   UNL     1      -7.702  16.368  66.513  1.00  0.00    -0.295 A  
HETATM   14  C   UNL     1      -8.864  15.696  66.895  1.00  0.00    -0.279 A  
HETATM   15  C   UNL     1      -9.246  15.625  68.243  1.00  0.00    -0.188 A  
HETATM   16  C   UNL     1      -8.438  16.249  69.200  1.00  0.00    -0.218 A  
HETATM   17  C   UNL     1      -7.276  16.928  68.815  1.00  0.00    -0.220 A  
BRANCH  15  18
HETATM   18  C   UNL     1     -10.505  14.895  68.643  1.00  0.00    -0.242 C  
BRANCH  18  19
HETATM   19  C   UNL     1     -11.705  15.833  68.776  1.00  0.00    -0.378 C  
BRANCH  19  20
HETATM   20  O   UNL     1     -12.516  15.431  69.882  1.00  0.00    -0.325 OA 
BRANCH  20  21
HETATM   21  C   UNL     1     -11.706  14.888  70.926  1.00  0.00    -0.323 C  
BRANCH  21  22
HETATM   22  C   UNL     1     -12.511  14.815  72.182  1.00  0.00    -0.409 C  
HETATM   23  C   UNL     1     -13.908  15.384  72.200  1.00  0.00    -0.636 C  
HETATM   24  C   UNL     1     -13.702  13.897  72.289  1.00  0.00    -0.660 C  
ENDBRANCH  21  22
ENDBRANCH  20  21
ENDBRANCH  19  20
ENDBRANCH  18  19
ENDBRANCH  15  18
ENDBRANCH  11  12
ENDBRANCH  10  11
ENDBRANCH   7  10
ENDBRANCH   6   7
ENDBRANCH   4   6
ENDBRANCH   2   4
TORSDOF 11
ENDMDL
MODEL      104
REMARK 921   NORMALIZED FREE ENERGY PREDICTED BY IDOCK:   -4.40 KCAL/MOL
REMARK 922        TOTAL FREE ENERGY PREDICTED BY IDOCK:   -8.55 KCAL/MOL
REMARK 923 INTER-LIGAND FREE ENERGY PREDICTED BY IDOCK:   -7.74 KCAL/MOL
REMARK 924 INTRA-LIGAND FREE ENERGY PREDICTED BY IDOCK:   -0.81 KCAL/MOL
REMARK 927      BINDING AFFINITY PREDICTED BY RF-SCORE:    0.00 PKD
ROOT
HETATM    1  C   UNL     1      -6.343  19.253  69.341  1.00  0.00    -0.337 C  
HETATM    2  C   UNL     1      -7.511  19.566  68.403  1.00  0.00    -0.324 C  
HETATM    3  C   UNL     1      -7.138  20.741  67.496  1.00  0.00    -0.397 C  
ENDROOT
BRANCH   2   4
HETATM    4  N   UNL     1      -7.821  18.361  67.629  1.00  0.00    -0.232 NA 
HETATM    5  H   UNL     1      -8.245  17.649  68.223  1.00  0.00     0.000 HD 
BRANCH   4   6
HETATM    6  C   UNL     1      -8.660  18.627  66.450  1.00  0.00    -0.271 C  
BRANCH   6   7
HETATM    7  C   UNL     1     -10.120  18.235  66.738  1.00  0.00    -0.364 C  
HETATM    8  O   UNL     1     -10.872  19.407  67.098  1.00  0.00    -0.484 OA 
HETATM    9  H   UNL     1     -11.773  19.165  67.275  1.00  0.00     0.000 HD 
BRANCH   7  10
HETATM   10  C   UNL     1     -10.771  17.567  65.519  1.00  0.00    -0.062 C  
BRANCH  10  11
HETATM   11  O   UNL     1     -10.055  16.362  65.210  1.00  0.00    -0.545 OA 
BRANCH  11  12
HETATM   12  C   UNL     1     -10.311  15.308  66.045  1.00  0.00    -0.312 A  
HETATM   13  C   UNL     1     -11.577  14.797  66.313  1.00  0.00    -0.298 A  
HETATM   14  C   UNL     1     -11.729  13.716  67.182  1.00  0.00    -0.418 A  
HETATM   15  C   UNL     1     -10.614  13.110  67.780  1.00  0.00    -0.242 A  
HETATM   16  C   UNL     1      -9.342  13.617  67.491  1.00  0.00    -0.223 A  
HETATM   17  C   UNL     1      -9.192  14.705  66.624  1.00  0.00    -0.291 A  
BRANCH  15  18
HETATM   18  C   UNL     1     -10.792  11.941  68.719  1.00  0.00    -0.270 C  
BRANCH  18  19
HETATM   19  C   UNL     1     -12.159  11.948  69.404  1.00  0.00    -0.216 C  
BRANCH  19  20
HETATM   20  O   UNL     1     -12.041  12.501  70.718  1.00  0.00    -0.332 OA 
BRANCH  20  21
HETATM   21  C   UNL     1     -12.516  13.848  70.738  1.00  0.00    -0.375 C  
BRANCH  21  22
HETATM   22  C   UNL     1     -13.319  14.065  71.979  1.00  0.00    -0.514 C  
HETATM   23  C   UNL     1     -12.945  15.187  72.916  1.00  0.00    -0.561 C  
HETATM   24  C   UNL     1     -14.219  15.266  72.122  1.00  0.00    -0.667 C  
ENDBRANCH  21  22
ENDBRANCH  20  21
ENDBRANCH  19  20
ENDBRANCH  18  19
ENDBRANCH  15  18
ENDBRANCH  11  12
ENDBRANCH  10  11
ENDBRANCH   7  10
ENDBRANCH   6   7
ENDBRANCH   4   6
ENDBRANCH   2   4
TORSDOF 11
ENDMDL
MODEL      105
REMARK 921   NORMALIZED FREE ENERGY PREDICTED BY IDOCK:   -4.38 KCAL/MOL
REMARK 922        TOTAL FREE ENERGY PREDICTED BY IDOCK:   -8.52 KCAL/MOL
REMARK 923 INTER-LIGAND FREE ENERGY PREDICTED BY IDOCK:   -6.50 KCAL/MOL
REMARK 924 INTRA-LIGAND FREE ENERGY PREDICTED BY IDOCK:   -2.03 KCAL/MOL
REMARK 927      BINDING AFFINITY PREDICTED BY RF-SCORE:    0.00 PKD
ROOT
HETATM    1  C   UNL     1     -13.481  14.271  72.110  1.00  0.00    -0.524 C  
HETATM    2  C   UNL     1     -12.501  15.358  71.661  1.00  0.00    -0.381 C  
HETATM    3  C   UNL     1     -12.111  16.222  72.862  1.00  0.00    -0.625 C  
ENDROOT
BRANCH   2   4
HETATM    4  N   UNL     1     -11.334  14.710  71.057  1.00  0.00    -0.529 NA 
HETATM    5  H   UNL     1     -11.592  13.815  70.641  1.00  0.00     0.000 HD 
BRANCH   4   6
HETATM    6  C   UNL     1     -10.639  15.559  70.078  1.00  0.00    -0.324 C  
BRANCH   6   7
HETATM    7  C   UNL     1     -11.537  15.804  68.853  1.00  0.00    -0.394 C  
HETATM    8  O   UNL     1     -11.074  16.962  68.137  1.00  0.00    -0.347 OA 
HETATM    9  H   UNL     1     -11.629  17.112  67.381  1.00  0.00     0.000 HD 
BRANCH   7  10
HETATM   10  C   UNL     1     -11.541  14.591  67.911  1.00  0.00    -0.344 C  
BRANCH  10  11
HETATM   11  O   UNL     1     -12.333  13.548  68.498  1.00  0.00    -0.223 OA 
BRANCH  11  12
HETATM   12  C   UNL     1     -11.842  12.282  68.322  1.00  0.00    -0.310 A  
HETATM   13  C   UNL     1     -11.487  11.733  67.094  1.00  0.00    -0.366 A  
HETATM   14  C   UNL     1     -10.995  10.428  67.023  1.00  0.00    -0.222 A  
HETATM   15  C   UNL     1     -10.825   9.659  68.184  1.00  0.00    -0.241 A  
HETATM   16  C   UNL     1     -11.165  10.225  69.417  1.00  0.00    -0.292 A  
HETATM   17  C   UNL     1     -11.665  11.531  69.486  1.00  0.00    -0.413 A  
BRANCH  15  18
HETATM   18  C   UNL     1     -10.292   8.249  68.093  1.00  0.00    -0.253 C  
BRANCH  18  19
HETATM   19  C   UNL     1      -8.933   8.184  67.396  1.00  0.00    -0.137 C  
BRANCH  19  20
HETATM   20  O   UNL     1      -8.014   9.072  68.038  1.00  0.00    -0.100 OA 
BRANCH  20  21
HETATM   21  C   UNL     1      -7.234   9.772  67.068  1.00  0.00    -0.090 C  
BRANCH  21  22
HETATM   22  C   UNL     1      -6.912  11.135  67.591  1.00  0.00    -0.084 C  
HETATM   23  C   UNL     1      -7.839  12.284  67.283  1.00  0.00    -0.171 C  
HETATM   24  C   UNL     1      -7.735  11.760  68.688  1.00  0.00    -0.126 C  
ENDBRANCH  21  22
ENDBRANCH  20  21
ENDBRANCH  19  20
ENDBRANCH  18  19
ENDBRANCH  15  18
ENDBRANCH  11  12
ENDBRANCH  10  11
ENDBRANCH   7  10
ENDBRANCH   6   7
ENDBRANCH   4   6
ENDBRANCH   2   4
TORSDOF 11
ENDMDL
MODEL      106
REMARK 921   NORMALIZED FREE ENERGY PREDICTED BY IDOCK:   -4.37 KCAL/MOL
REMARK 922        TOTAL FREE ENERGY PREDICTED BY IDOCK:   -8.50 KCAL/MOL
REMARK 923 INTER-LIGAND FREE ENERGY PREDICTED BY IDOCK:   -7.52 KCAL/MOL
REMARK 924 INTRA-LIGAND FREE ENERGY PREDICTED BY IDOCK:   -0.98 KCAL/MOL
REMARK 927      BINDING AFFINITY PREDICTED BY RF-SCORE:    0.00 PKD
ROOT
HETATM    1  C   UNL     1      -6.669  19.388  68.100  1.00  0.00    -0.292 C  
HETATM    2  C   UNL     1      -7.341  20.582  67.416  1.00  0.00    -0.326 C  
HETATM    3  C   UNL     1      -6.325  21.298  66.524  1.00  0.00    -0.314 C  
ENDROOT
BRANCH   2   4
HETATM    4  N   UNL     1      -8.488  20.092  66.647  1.00  0.00    -0.439 NA 
HETATM    5  H   UNL     1      -8.360  19.114  66.389  1.00  0.00     0.000 HD 
BRANCH   4   6
HETATM    6  C   UNL     1      -9.774  20.287  67.334  1.00  0.00    -0.444 C  
BRANCH   6   7
HETATM    7  C   UNL     1     -10.736  19.133  66.999  1.00  0.00    -0.448 C  
HETATM    8  O   UNL     1     -10.488  18.672  65.659  1.00  0.00    -0.603 OA 
HETATM    9  H   UNL     1     -11.082  17.960  65.453  1.00  0.00     0.000 HD 
BRANCH   7  10
HETATM   10  C   UNL     1     -10.568  17.963  67.978  1.00  0.00    -0.356 C  
BRANCH  10  11
HETATM   11  O   UNL     1     -10.688  16.729  67.256  1.00  0.00    -0.298 OA 
BRANCH  11  12
HETATM   12  C   UNL     1     -11.103  15.660  68.004  1.00  0.00    -0.335 A  
HETATM   13  C   UNL     1     -11.430  14.410  67.487  1.00  0.00    -0.370 A  
HETATM   14  C   UNL     1     -11.843  13.384  68.339  1.00  0.00    -0.401 A  
HETATM   15  C   UNL     1     -11.912  13.583  69.726  1.00  0.00    -0.405 A  
HETATM   16  C   UNL     1     -11.563  14.837  70.240  1.00  0.00    -0.333 A  
HETATM   17  C   UNL     1     -11.155  15.866  69.384  1.00  0.00    -0.322 A  
BRANCH  15  18
HETATM   18  C   UNL     1     -12.360  12.465  70.636  1.00  0.00    -0.367 C  
BRANCH  18  19
HETATM   19  C   UNL     1     -12.207  11.089  69.987  1.00  0.00    -0.343 C  
BRANCH  19  20
HETATM   20  O   UNL     1     -11.036  10.442  70.492  1.00  0.00    -0.311 OA 
BRANCH  20  21
HETATM   21  C   UNL     1     -10.506   9.539  69.520  1.00  0.00    -0.220 C  
BRANCH  21  22
HETATM   22  C   UNL     1      -9.868  10.323  68.420  1.00  0.00    -0.168 C  
HETATM   23  C   UNL     1      -8.899   9.639  67.488  1.00  0.00    -0.129 C  
HETATM   24  C   UNL     1     -10.241  10.084  66.979  1.00  0.00    -0.295 C  
ENDBRANCH  21  22
ENDBRANCH  20  21
ENDBRANCH  19  20
ENDBRANCH  18  19
ENDBRANCH  15  18
ENDBRANCH  11  12
ENDBRANCH  10  11
ENDBRANCH   7  10
ENDBRANCH   6   7
ENDBRANCH   4   6
ENDBRANCH   2   4
TORSDOF 11
ENDMDL
MODEL      107
REMARK 921   NORMALIZED FREE ENERGY PREDICTED BY IDOCK:   -4.35 KCAL/MOL
REMARK 922        TOTAL FREE ENERGY PREDICTED BY IDOCK:   -8.48 KCAL/MOL
REMARK 923 INTER-LIGAND FREE ENERGY PREDICTED BY IDOCK:   -7.18 KCAL/MOL
REMARK 924 INTRA-LIGAND FREE ENERGY PREDICTED BY IDOCK:   -1.30 KCAL/MOL
REMARK 927      BINDING AFFINITY PREDICTED BY RF-SCORE:    0.00 PKD
ROOT
HETATM    1  C   UNL     1     -13.880   7.400  71.509  1.00  0.00    -0.483 C  
HETATM    2  C   UNL     1     -12.536   6.697  71.719  1.00  0.00    -0.274 C  
HETATM    3  C   UNL     1     -11.888   6.419  70.361  1.00  0.00    -0.303 C  
ENDROOT
BRANCH   2   4
HETATM    4  N   UNL     1     -11.692   7.550  72.559  1.00  0.00    -0.467 NA 
HETATM    5  H   UNL     1     -10.821   7.076  72.797  1.00  0.00     0.000 HD 
BRANCH   4   6
HETATM    6  C   UNL     1     -11.423   8.868  71.965  1.00  0.00    -0.361 C  
BRANCH   6   7
HETATM    7  C   UNL     1      -9.910   9.062  71.764  1.00  0.00    -0.260 C  
HETATM    8  O   UNL     1      -9.212   7.875  72.178  1.00  0.00    -0.135 OA 
HETATM    9  H   UNL     1      -8.278   7.995  72.054  1.00  0.00     0.000 HD 
BRANCH   7  10
HETATM   10  C   UNL     1      -9.574   9.365  70.298  1.00  0.00    -0.249 C  
BRANCH  10  11
HETATM   11  O   UNL     1     -10.740   9.895  69.651  1.00  0.00    -0.221 OA 
BRANCH  11  12
HETATM   12  C   UNL     1     -10.538  11.057  68.956  1.00  0.00    -0.225 A  
HETATM   13  C   UNL     1     -11.258  12.231  69.146  1.00  0.00    -0.300 A  
HETATM   14  C   UNL     1     -10.972  13.363  68.381  1.00  0.00    -0.291 A  
HETATM   15  C   UNL     1      -9.941  13.348  67.429  1.00  0.00    -0.230 A  
HETATM   16  C   UNL     1      -9.208  12.169  67.257  1.00  0.00    -0.185 A  
HETATM   17  C   UNL     1      -9.500  11.032  68.020  1.00  0.00    -0.169 A  
BRANCH  15  18
HETATM   18  C   UNL     1      -9.642  14.579  66.609  1.00  0.00    -0.291 C  
BRANCH  18  19
HETATM   19  C   UNL     1     -10.911  15.302  66.158  1.00  0.00    -0.307 C  
BRANCH  19  20
HETATM   20  O   UNL     1     -11.359  14.766  64.910  1.00  0.00    -0.376 OA 
BRANCH  20  21
HETATM   21  C   UNL     1     -12.553  14.005  65.092  1.00  0.00    -0.428 C  
BRANCH  21  22
HETATM   22  C   UNL     1     -12.278  12.575  64.756  1.00  0.00    -0.532 C  
HETATM   23  C   UNL     1     -12.514  12.086  63.349  1.00  0.00    -0.625 C  
HETATM   24  C   UNL     1     -11.112  12.194  63.879  1.00  0.00    -0.470 C  
ENDBRANCH  21  22
ENDBRANCH  20  21
ENDBRANCH  19  20
ENDBRANCH  18  19
ENDBRANCH  15  18
ENDBRANCH  11  12
ENDBRANCH  10  11
ENDBRANCH   7  10
ENDBRANCH   6   7
ENDBRANCH   4   6
ENDBRANCH   2   4
TORSDOF 11
ENDMDL
MODEL      108
REMARK 921   NORMALIZED FREE ENERGY PREDICTED BY IDOCK:   -4.35 KCAL/MOL
REMARK 922        TOTAL FREE ENERGY PREDICTED BY IDOCK:   -8.48 KCAL/MOL
REMARK 923 INTER-LIGAND FREE ENERGY PREDICTED BY IDOCK:   -7.82 KCAL/MOL
REMARK 924 INTRA-LIGAND FREE ENERGY PREDICTED BY IDOCK:   -0.65 KCAL/MOL
REMARK 927      BINDING AFFINITY PREDICTED BY RF-SCORE:    0.00 PKD
ROOT
HETATM    1  C   UNL     1      -9.631  18.476  67.949  1.00  0.00    -0.323 C  
HETATM    2  C   UNL     1     -10.197  19.034  66.640  1.00  0.00    -0.407 C  
HETATM    3  C   UNL     1      -9.182  19.992  66.012  1.00  0.00    -0.326 C  
ENDROOT
BRANCH   2   4
HETATM    4  N   UNL     1     -10.506  17.911  65.752  1.00  0.00    -0.591 NA 
HETATM    5  H   UNL     1     -10.482  18.205  64.776  1.00  0.00     0.000 HD 
BRANCH   4   6
HETATM    6  C   UNL     1      -9.640  16.743  65.968  1.00  0.00    -0.234 C  
BRANCH   6   7
HETATM    7  C   UNL     1     -10.465  15.446  65.876  1.00  0.00    -0.340 C  
HETATM    8  O   UNL     1      -9.621  14.368  65.436  1.00  0.00    -0.538 OA 
HETATM    9  H   UNL     1     -10.130  13.568  65.380  1.00  0.00     0.000 HD 
BRANCH   7  10
HETATM   10  C   UNL     1     -11.090  15.084  67.230  1.00  0.00    -0.334 C  
BRANCH  10  11
HETATM   11  O   UNL     1     -11.989  13.980  67.049  1.00  0.00    -0.403 OA 
BRANCH  11  12
HETATM   12  C   UNL     1     -11.887  12.991  67.989  1.00  0.00    -0.347 A  
HETATM   13  C   UNL     1     -12.131  13.160  69.348  1.00  0.00    -0.285 A  
HETATM   14  C   UNL     1     -11.998  12.083  70.226  1.00  0.00    -0.398 A  
HETATM   15  C   UNL     1     -11.642  10.810  69.755  1.00  0.00    -0.393 A  
HETATM   16  C   UNL     1     -11.417  10.643  68.385  1.00  0.00    -0.330 A  
HETATM   17  C   UNL     1     -11.545  11.726  67.507  1.00  0.00    -0.361 A  
BRANCH  15  18
HETATM   18  C   UNL     1     -11.502   9.654  70.715  1.00  0.00    -0.399 C  
BRANCH  18  19
HETATM   19  C   UNL     1     -10.818   8.445  70.075  1.00  0.00    -0.225 C  
BRANCH  19  20
HETATM   20  O   UNL     1     -11.648   7.289  70.209  1.00  0.00    -0.257 OA 
BRANCH  20  21
HETATM   21  C   UNL     1     -10.961   6.259  70.920  1.00  0.00    -0.286 C  
BRANCH  21  22
HETATM   22  C   UNL     1     -11.521   6.160  72.301  1.00  0.00    -0.360 C  
HETATM   23  C   UNL     1     -11.274   4.912  73.112  1.00  0.00    -0.403 C  
HETATM   24  C   UNL     1     -10.621   6.206  73.510  1.00  0.00    -0.283 C  
ENDBRANCH  21  22
ENDBRANCH  20  21
ENDBRANCH  19  20
ENDBRANCH  18  19
ENDBRANCH  15  18
ENDBRANCH  11  12
ENDBRANCH  10  11
ENDBRANCH   7  10
ENDBRANCH   6   7
ENDBRANCH   4   6
ENDBRANCH   2   4
TORSDOF 11
ENDMDL
MODEL      109
REMARK 921   NORMALIZED FREE ENERGY PREDICTED BY IDOCK:   -4.34 KCAL/MOL
REMARK 922        TOTAL FREE ENERGY PREDICTED BY IDOCK:   -8.46 KCAL/MOL
REMARK 923 INTER-LIGAND FREE ENERGY PREDICTED BY IDOCK:   -7.39 KCAL/MOL
REMARK 924 INTRA-LIGAND FREE ENERGY PREDICTED BY IDOCK:   -1.06 KCAL/MOL
REMARK 927      BINDING AFFINITY PREDICTED BY RF-SCORE:    0.00 PKD
ROOT
HETATM    1  C   UNL     1      -9.840   7.199  71.708  1.00  0.00    -0.171 C  
HETATM    2  C   UNL     1     -11.067   6.285  71.676  1.00  0.00    -0.274 C  
HETATM    3  C   UNL     1     -10.687   4.901  72.208  1.00  0.00    -0.218 C  
ENDROOT
BRANCH   2   4
HETATM    4  N   UNL     1     -12.127   6.902  72.478  1.00  0.00    -0.504 NA 
HETATM    5  H   UNL     1     -11.752   7.652  73.057  1.00  0.00     0.000 HD 
BRANCH   4   6
HETATM    6  C   UNL     1     -13.261   7.380  71.673  1.00  0.00    -0.362 C  
BRANCH   6   7
HETATM    7  C   UNL     1     -13.620   8.824  72.066  1.00  0.00    -0.427 C  
HETATM    8  O   UNL     1     -14.151   8.842  73.403  1.00  0.00    -1.256 OA 
HETATM    9  H   UNL     1     -14.373   9.734  73.645  1.00  0.00     0.000 HD 
BRANCH   7  10
HETATM   10  C   UNL     1     -12.395   9.746  71.993  1.00  0.00    -0.256 C  
BRANCH  10  11
HETATM   11  O   UNL     1     -12.838  11.097  71.800  1.00  0.00    -0.422 OA 
BRANCH  11  12
HETATM   12  C   UNL     1     -12.471  11.660  70.607  1.00  0.00    -0.295 A  
HETATM   13  C   UNL     1     -12.226  10.950  69.437  1.00  0.00    -0.293 A  
HETATM   14  C   UNL     1     -11.856  11.623  68.271  1.00  0.00    -0.335 A  
HETATM   15  C   UNL     1     -11.750  13.021  68.249  1.00  0.00    -0.390 A  
HETATM   16  C   UNL     1     -12.017  13.730  69.425  1.00  0.00    -0.397 A  
HETATM   17  C   UNL     1     -12.382  13.054  70.595  1.00  0.00    -0.391 A  
BRANCH  15  18
HETATM   18  C   UNL     1     -11.349  13.737  66.982  1.00  0.00    -0.345 C  
BRANCH  18  19
HETATM   19  C   UNL     1     -10.096  13.135  66.345  1.00  0.00    -0.281 C  
BRANCH  19  20
HETATM   20  O   UNL     1      -8.961  13.379  67.180  1.00  0.00    -0.210 OA 
BRANCH  20  21
HETATM   21  C   UNL     1      -8.072  12.262  67.155  1.00  0.00    -0.173 C  
BRANCH  21  22
HETATM   22  C   UNL     1      -8.847  11.026  66.833  1.00  0.00    -0.150 C  
HETATM   23  C   UNL     1      -8.145   9.861  66.180  1.00  0.00    -0.119 C  
HETATM   24  C   UNL     1      -8.624   9.748  67.600  1.00  0.00    -0.125 C  
ENDBRANCH  21  22
ENDBRANCH  20  21
ENDBRANCH  19  20
ENDBRANCH  18  19
ENDBRANCH  15  18
ENDBRANCH  11  12
ENDBRANCH  10  11
ENDBRANCH   7  10
ENDBRANCH   6   7
ENDBRANCH   4   6
ENDBRANCH   2   4
TORSDOF 11
ENDMDL
MODEL      110
REMARK 921   NORMALIZED FREE ENERGY PREDICTED BY IDOCK:   -4.34 KCAL/MOL
REMARK 922        TOTAL FREE ENERGY PREDICTED BY IDOCK:   -8.45 KCAL/MOL
REMARK 923 INTER-LIGAND FREE ENERGY PREDICTED BY IDOCK:   -7.16 KCAL/MOL
REMARK 924 INTRA-LIGAND FREE ENERGY PREDICTED BY IDOCK:   -1.29 KCAL/MOL
REMARK 927      BINDING AFFINITY PREDICTED BY RF-SCORE:    0.00 PKD
ROOT
HETATM    1  C   UNL     1     -12.372  12.529  63.413  1.00  0.00    -0.577 C  
HETATM    2  C   UNL     1     -11.789  13.676  64.241  1.00  0.00    -0.425 C  
HETATM    3  C   UNL     1     -12.584  13.823  65.541  1.00  0.00    -0.551 C  
ENDROOT
BRANCH   2   4
HETATM    4  N   UNL     1     -10.375  13.392  64.499  1.00  0.00    -0.545 NA 
HETATM    5  H   UNL     1     -10.135  13.600  65.468  1.00  0.00     0.000 HD 
BRANCH   4   6
HETATM    6  C   UNL     1      -9.984  12.018  64.146  1.00  0.00    -0.263 C  
BRANCH   6   7
HETATM    7  C   UNL     1      -9.366  11.312  65.366  1.00  0.00    -0.210 C  
HETATM    8  O   UNL     1      -9.807  11.959  66.572  1.00  0.00    -0.198 OA 
HETATM    9  H   UNL     1      -9.425  11.523  67.325  1.00  0.00     0.000 HD 
BRANCH   7  10
HETATM   10  C   UNL     1      -9.757   9.829  65.411  1.00  0.00    -0.313 C  
BRANCH  10  11
HETATM   11  O   UNL     1      -8.751   9.103  66.134  1.00  0.00    -0.135 OA 
BRANCH  11  12
HETATM   12  C   UNL     1      -9.216   8.369  67.192  1.00  0.00    -0.143 A  
HETATM   13  C   UNL     1      -8.585   8.273  68.428  1.00  0.00    -0.133 A  
HETATM   14  C   UNL     1      -9.145   7.496  69.443  1.00  0.00    -0.142 A  
HETATM   15  C   UNL     1     -10.359   6.820  69.248  1.00  0.00    -0.221 A  
HETATM   16  C   UNL     1     -10.997   6.937  68.008  1.00  0.00    -0.241 A  
HETATM   17  C   UNL     1     -10.432   7.712  66.989  1.00  0.00    -0.419 A  
BRANCH  15  18
HETATM   18  C   UNL     1     -10.952   5.982  70.354  1.00  0.00    -0.399 C  
BRANCH  18  19
HETATM   19  C   UNL     1     -12.035   6.729  71.134  1.00  0.00    -0.370 C  
BRANCH  19  20
HETATM   20  O   UNL     1     -11.431   7.689  72.005  1.00  0.00    -0.261 OA 
BRANCH  20  21
HETATM   21  C   UNL     1     -12.374   8.699  72.367  1.00  0.00    -0.357 C  
BRANCH  21  22
HETATM   22  C   UNL     1     -12.592   9.605  71.200  1.00  0.00    -0.411 C  
HETATM   23  C   UNL     1     -12.457  11.096  71.385  1.00  0.00    -0.414 C  
HETATM   24  C   UNL     1     -11.443  10.347  70.567  1.00  0.00    -0.431 C  
ENDBRANCH  21  22
ENDBRANCH  20  21
ENDBRANCH  19  20
ENDBRANCH  18  19
ENDBRANCH  15  18
ENDBRANCH  11  12
ENDBRANCH  10  11
ENDBRANCH   7  10
ENDBRANCH   6   7
ENDBRANCH   4   6
ENDBRANCH   2   4
TORSDOF 11
ENDMDL
MODEL      111
REMARK 921   NORMALIZED FREE ENERGY PREDICTED BY IDOCK:   -4.33 KCAL/MOL
REMARK 922        TOTAL FREE ENERGY PREDICTED BY IDOCK:   -8.44 KCAL/MOL
REMARK 923 INTER-LIGAND FREE ENERGY PREDICTED BY IDOCK:   -6.62 KCAL/MOL
REMARK 924 INTRA-LIGAND FREE ENERGY PREDICTED BY IDOCK:   -1.82 KCAL/MOL
REMARK 927      BINDING AFFINITY PREDICTED BY RF-SCORE:    0.00 PKD
ROOT
HETATM    1  C   UNL     1     -11.874  12.888  69.695  1.00  0.00    -0.387 C  
HETATM    2  C   UNL     1     -11.378  14.139  68.967  1.00  0.00    -0.275 C  
HETATM    3  C   UNL     1     -12.144  15.363  69.474  1.00  0.00    -0.332 C  
ENDROOT
BRANCH   2   4
HETATM    4  N   UNL     1      -9.936  14.268  69.193  1.00  0.00    -0.422 NA 
HETATM    5  H   UNL     1      -9.580  13.472  69.721  1.00  0.00     0.000 HD 
BRANCH   4   6
HETATM    6  C   UNL     1      -9.168  14.460  67.954  1.00  0.00    -0.195 C  
BRANCH   6   7
HETATM    7  C   UNL     1      -9.772  13.615  66.818  1.00  0.00    -0.275 C  
HETATM    8  O   UNL     1      -9.516  14.253  65.555  1.00  0.00    -0.534 OA 
HETATM    9  H   UNL     1      -9.890  13.731  64.854  1.00  0.00     0.000 HD 
BRANCH   7  10
HETATM   10  C   UNL     1      -9.184  12.198  66.801  1.00  0.00    -0.207 C  
BRANCH  10  11
HETATM   11  O   UNL     1      -9.003  11.751  68.153  1.00  0.00    -0.168 OA 
BRANCH  11  12
HETATM   12  C   UNL     1      -9.351  10.447  68.382  1.00  0.00    -0.150 A  
HETATM   13  C   UNL     1      -8.822   9.651  69.392  1.00  0.00    -0.183 A  
HETATM   14  C   UNL     1      -9.246   8.329  69.541  1.00  0.00    -0.158 A  
HETATM   15  C   UNL     1     -10.226   7.788  68.695  1.00  0.00    -0.217 A  
HETATM   16  C   UNL     1     -10.768   8.601  67.693  1.00  0.00    -0.194 A  
HETATM   17  C   UNL     1     -10.337   9.924  67.542  1.00  0.00    -0.289 A  
BRANCH  15  18
HETATM   18  C   UNL     1     -10.676   6.357  68.866  1.00  0.00    -0.339 C  
BRANCH  18  19
HETATM   19  C   UNL     1     -10.949   6.003  70.328  1.00  0.00    -0.342 C  
BRANCH  19  20
HETATM   20  O   UNL     1     -12.004   6.822  70.838  1.00  0.00    -0.363 OA 
BRANCH  20  21
HETATM   21  C   UNL     1     -11.859   7.008  72.246  1.00  0.00    -0.233 C  
BRANCH  21  22
HETATM   22  C   UNL     1     -11.938   8.467  72.559  1.00  0.00    -0.418 C  
HETATM   23  C   UNL     1     -12.083   9.458  71.431  1.00  0.00    -0.442 C  
HETATM   24  C   UNL     1     -13.226   9.230  72.379  1.00  0.00    -0.501 C  
ENDBRANCH  21  22
ENDBRANCH  20  21
ENDBRANCH  19  20
ENDBRANCH  18  19
ENDBRANCH  15  18
ENDBRANCH  11  12
ENDBRANCH  10  11
ENDBRANCH   7  10
ENDBRANCH   6   7
ENDBRANCH   4   6
ENDBRANCH   2   4
TORSDOF 11
ENDMDL
MODEL      112
REMARK 921   NORMALIZED FREE ENERGY PREDICTED BY IDOCK:   -4.32 KCAL/MOL
REMARK 922        TOTAL FREE ENERGY PREDICTED BY IDOCK:   -8.43 KCAL/MOL
REMARK 923 INTER-LIGAND FREE ENERGY PREDICTED BY IDOCK:   -7.84 KCAL/MOL
REMARK 924 INTRA-LIGAND FREE ENERGY PREDICTED BY IDOCK:   -0.59 KCAL/MOL
REMARK 927      BINDING AFFINITY PREDICTED BY RF-SCORE:    0.00 PKD
ROOT
HETATM    1  C   UNL     1     -12.253  12.104  63.630  1.00  0.00    -0.663 C  
HETATM    2  C   UNL     1     -11.447  13.090  64.480  1.00  0.00    -0.347 C  
HETATM    3  C   UNL     1     -12.047  14.491  64.344  1.00  0.00    -0.492 C  
ENDROOT
BRANCH   2   4
HETATM    4  N   UNL     1     -11.461  12.626  65.869  1.00  0.00    -0.343 NA 
HETATM    5  H   UNL     1     -11.215  11.638  65.924  1.00  0.00     0.000 HD 
BRANCH   4   6
HETATM    6  C   UNL     1     -10.607  13.427  66.759  1.00  0.00    -0.277 C  
BRANCH   6   7
HETATM    7  C   UNL     1     -11.261  13.558  68.147  1.00  0.00    -0.272 C  
HETATM    8  O   UNL     1     -12.309  14.541  68.095  1.00  0.00    -0.596 OA 
HETATM    9  H   UNL     1     -12.712  14.621  68.952  1.00  0.00     0.000 HD 
BRANCH   7  10
HETATM   10  C   UNL     1     -11.841  12.219  68.620  1.00  0.00    -0.305 C  
BRANCH  10  11
HETATM   11  O   UNL     1     -12.102  12.295  70.029  1.00  0.00    -0.314 OA 
BRANCH  11  12
HETATM   12  C   UNL     1     -12.084  11.094  70.686  1.00  0.00    -0.379 A  
HETATM   13  C   UNL     1     -13.011  10.701  71.646  1.00  0.00    -0.582 A  
HETATM   14  C   UNL     1     -12.903   9.451  72.257  1.00  0.00    -0.452 A  
HETATM   15  C   UNL     1     -11.880   8.561  71.900  1.00  0.00    -0.407 A  
HETATM   16  C   UNL     1     -10.963   8.955  70.920  1.00  0.00    -0.325 A  
HETATM   17  C   UNL     1     -11.068  10.211  70.312  1.00  0.00    -0.384 A  
BRANCH  15  18
HETATM   18  C   UNL     1     -11.774   7.212  72.570  1.00  0.00    -0.220 C  
BRANCH  18  19
HETATM   19  C   UNL     1     -10.628   7.151  73.580  1.00  0.00    -0.333 C  
BRANCH  19  20
HETATM   20  O   UNL     1     -10.429   5.801  74.008  1.00  0.00    -0.261 OA 
BRANCH  20  21
HETATM   21  C   UNL     1     -11.130   4.897  73.155  1.00  0.00    -0.322 C  
BRANCH  21  22
HETATM   22  C   UNL     1     -11.128   3.537  73.775  1.00  0.00    -0.286 C  
HETATM   23  C   UNL     1     -10.925   2.325  72.900  1.00  0.00    -0.137 C  
HETATM   24  C   UNL     1      -9.857   2.732  73.877  1.00  0.00    -0.144 C  
ENDBRANCH  21  22
ENDBRANCH  20  21
ENDBRANCH  19  20
ENDBRANCH  18  19
ENDBRANCH  15  18
ENDBRANCH  11  12
ENDBRANCH  10  11
ENDBRANCH   7  10
ENDBRANCH   6   7
ENDBRANCH   4   6
ENDBRANCH   2   4
TORSDOF 11
ENDMDL
MODEL      113
REMARK 921   NORMALIZED FREE ENERGY PREDICTED BY IDOCK:   -4.32 KCAL/MOL
REMARK 922        TOTAL FREE ENERGY PREDICTED BY IDOCK:   -8.43 KCAL/MOL
REMARK 923 INTER-LIGAND FREE ENERGY PREDICTED BY IDOCK:   -7.49 KCAL/MOL
REMARK 924 INTRA-LIGAND FREE ENERGY PREDICTED BY IDOCK:   -0.93 KCAL/MOL
REMARK 927      BINDING AFFINITY PREDICTED BY RF-SCORE:    0.00 PKD
ROOT
HETATM    1  C   UNL     1      -8.880  16.786  66.719  1.00  0.00    -0.257 C  
HETATM    2  C   UNL     1     -10.288  17.198  66.280  1.00  0.00    -0.313 C  
HETATM    3  C   UNL     1     -10.365  18.724  66.180  1.00  0.00    -0.494 C  
ENDROOT
BRANCH   2   4
HETATM    4  N   UNL     1     -10.581  16.555  64.997  1.00  0.00    -0.698 NA 
HETATM    5  H   UNL     1      -9.899  16.829  64.290  1.00  0.00     0.000 HD 
BRANCH   4   6
HETATM    6  C   UNL     1     -10.679  15.090  65.089  1.00  0.00    -0.415 C  
BRANCH   6   7
HETATM    7  C   UNL     1     -11.857  14.693  65.997  1.00  0.00    -0.276 C  
HETATM    8  O   UNL     1     -12.983  14.313  65.187  1.00  0.00    -0.692 OA 
HETATM    9  H   UNL     1     -13.709  14.067  65.747  1.00  0.00     0.000 HD 
BRANCH   7  10
HETATM   10  C   UNL     1     -11.481  13.529  66.924  1.00  0.00    -0.344 C  
BRANCH  10  11
HETATM   11  O   UNL     1     -11.718  12.290  66.238  1.00  0.00    -0.426 OA 
BRANCH  11  12
HETATM   12  C   UNL     1     -11.177  11.185  66.838  1.00  0.00    -0.186 A  
HETATM   13  C   UNL     1     -11.283  10.887  68.193  1.00  0.00    -0.363 A  
HETATM   14  C   UNL     1     -10.694   9.730  68.706  1.00  0.00    -0.243 A  
HETATM   15  C   UNL     1     -10.009   8.838  67.868  1.00  0.00    -0.231 A  
HETATM   16  C   UNL     1      -9.923   9.135  66.503  1.00  0.00    -0.359 A  
HETATM   17  C   UNL     1     -10.510  10.298  65.991  1.00  0.00    -0.181 A  
BRANCH  15  18
HETATM   18  C   UNL     1      -9.376   7.591  68.435  1.00  0.00    -0.141 C  
BRANCH  18  19
HETATM   19  C   UNL     1     -10.232   6.345  68.204  1.00  0.00    -0.167 C  
BRANCH  19  20
HETATM   20  O   UNL     1     -11.304   6.309  69.150  1.00  0.00    -0.395 OA 
BRANCH  20  21
HETATM   21  C   UNL     1     -10.793   6.227  70.482  1.00  0.00    -0.288 C  
BRANCH  21  22
HETATM   22  C   UNL     1     -11.464   7.260  71.328  1.00  0.00    -0.304 C  
HETATM   23  C   UNL     1     -11.185   7.297  72.810  1.00  0.00    -0.348 C  
HETATM   24  C   UNL     1     -10.683   8.403  71.924  1.00  0.00    -0.373 C  
ENDBRANCH  21  22
ENDBRANCH  20  21
ENDBRANCH  19  20
ENDBRANCH  18  19
ENDBRANCH  15  18
ENDBRANCH  11  12
ENDBRANCH  10  11
ENDBRANCH   7  10
ENDBRANCH   6   7
ENDBRANCH   4   6
ENDBRANCH   2   4
TORSDOF 11
ENDMDL
MODEL      114
REMARK 921   NORMALIZED FREE ENERGY PREDICTED BY IDOCK:   -4.32 KCAL/MOL
REMARK 922        TOTAL FREE ENERGY PREDICTED BY IDOCK:   -8.42 KCAL/MOL
REMARK 923 INTER-LIGAND FREE ENERGY PREDICTED BY IDOCK:   -7.09 KCAL/MOL
REMARK 924 INTRA-LIGAND FREE ENERGY PREDICTED BY IDOCK:   -1.33 KCAL/MOL
REMARK 927      BINDING AFFINITY PREDICTED BY RF-SCORE:    0.00 PKD
ROOT
HETATM    1  C   UNL     1     -14.186   7.102  71.368  1.00  0.00    -0.414 C  
HETATM    2  C   UNL     1     -12.757   6.781  71.813  1.00  0.00    -0.296 C  
HETATM    3  C   UNL     1     -11.884   6.528  70.581  1.00  0.00    -0.398 C  
ENDROOT
BRANCH   2   4
HETATM    4  N   UNL     1     -12.256   7.902  72.612  1.00  0.00    -0.597 NA 
HETATM    5  H   UNL     1     -11.246   7.999  72.507  1.00  0.00     0.000 HD 
BRANCH   4   6
HETATM    6  C   UNL     1     -12.935   9.174  72.320  1.00  0.00    -0.420 C  
BRANCH   6   7
HETATM    7  C   UNL     1     -11.988  10.121  71.564  1.00  0.00    -0.317 C  
HETATM    8  O   UNL     1     -10.685   9.521  71.463  1.00  0.00    -0.340 OA 
HETATM    9  H   UNL     1     -10.100  10.107  70.996  1.00  0.00     0.000 HD 
BRANCH   7  10
HETATM   10  C   UNL     1     -12.514  10.433  70.156  1.00  0.00    -0.176 C  
BRANCH  10  11
HETATM   11  O   UNL     1     -11.413  10.436  69.236  1.00  0.00    -0.245 OA 
BRANCH  11  12
HETATM   12  C   UNL     1     -11.519  11.339  68.212  1.00  0.00    -0.308 A  
HETATM   13  C   UNL     1     -11.227  11.064  66.879  1.00  0.00    -0.210 A  
HETATM   14  C   UNL     1     -11.368  12.058  65.910  1.00  0.00    -0.391 A  
HETATM   15  C   UNL     1     -11.828  13.339  66.253  1.00  0.00    -0.444 A  
HETATM   16  C   UNL     1     -12.138  13.602  67.592  1.00  0.00    -0.328 A  
HETATM   17  C   UNL     1     -11.990  12.606  68.564  1.00  0.00    -0.258 A  
BRANCH  15  18
HETATM   18  C   UNL     1     -11.976  14.405  65.194  1.00  0.00    -0.391 C  
BRANCH  18  19
HETATM   19  C   UNL     1     -10.644  15.071  64.848  1.00  0.00    -0.374 C  
BRANCH  19  20
HETATM   20  O   UNL     1     -10.207  15.882  65.941  1.00  0.00    -0.306 OA 
BRANCH  20  21
HETATM   21  C   UNL     1      -8.791  15.786  66.101  1.00  0.00    -0.311 C  
BRANCH  21  22
HETATM   22  C   UNL     1      -8.463  15.780  67.558  1.00  0.00    -0.183 C  
HETATM   23  C   UNL     1      -9.580  15.857  68.569  1.00  0.00    -0.205 C  
HETATM   24  C   UNL     1      -8.788  14.588  68.423  1.00  0.00    -0.180 C  
ENDBRANCH  21  22
ENDBRANCH  20  21
ENDBRANCH  19  20
ENDBRANCH  18  19
ENDBRANCH  15  18
ENDBRANCH  11  12
ENDBRANCH  10  11
ENDBRANCH   7  10
ENDBRANCH   6   7
ENDBRANCH   4   6
ENDBRANCH   2   4
TORSDOF 11
ENDMDL
MODEL      115
REMARK 921   NORMALIZED FREE ENERGY PREDICTED BY IDOCK:   -4.32 KCAL/MOL
REMARK 922        TOTAL FREE ENERGY PREDICTED BY IDOCK:   -8.42 KCAL/MOL
REMARK 923 INTER-LIGAND FREE ENERGY PREDICTED BY IDOCK:   -6.50 KCAL/MOL
REMARK 924 INTRA-LIGAND FREE ENERGY PREDICTED BY IDOCK:   -1.93 KCAL/MOL
REMARK 927      BINDING AFFINITY PREDICTED BY RF-SCORE:    0.00 PKD
ROOT
HETATM    1  C   UNL     1      -7.969  19.552  66.448  1.00  0.00    -0.323 C  
HETATM    2  C   UNL     1      -8.466  19.525  67.895  1.00  0.00    -0.316 C  
HETATM    3  C   UNL     1      -9.948  19.142  67.920  1.00  0.00    -0.445 C  
ENDROOT
BRANCH   2   4
HETATM    4  N   UNL     1      -7.647  18.573  68.650  1.00  0.00    -0.304 NA 
HETATM    5  H   UNL     1      -8.174  17.723  68.852  1.00  0.00     0.000 HD 
BRANCH   4   6
HETATM    6  C   UNL     1      -6.371  18.253  67.992  1.00  0.00    -0.185 C  
BRANCH   6   7
HETATM    7  C   UNL     1      -5.771  16.970  68.591  1.00  0.00    -0.141 C  
HETATM    8  O   UNL     1      -6.214  16.819  69.951  1.00  0.00    -0.224 OA 
HETATM    9  H   UNL     1      -5.843  16.027  70.321  1.00  0.00     0.000 HD 
BRANCH   7  10
HETATM   10  C   UNL     1      -6.179  15.730  67.783  1.00  0.00    -0.154 C  
BRANCH  10  11
HETATM   11  O   UNL     1      -6.966  16.146  66.657  1.00  0.00    -0.211 OA 
BRANCH  11  12
HETATM   12  C   UNL     1      -8.256  15.688  66.653  1.00  0.00    -0.249 A  
HETATM   13  C   UNL     1      -9.216  16.032  65.707  1.00  0.00    -0.215 A  
HETATM   14  C   UNL     1     -10.507  15.508  65.794  1.00  0.00    -0.378 A  
HETATM   15  C   UNL     1     -10.852  14.609  66.814  1.00  0.00    -0.312 A  
HETATM   16  C   UNL     1      -9.876  14.252  67.750  1.00  0.00    -0.223 A  
HETATM   17  C   UNL     1      -8.584  14.783  67.665  1.00  0.00    -0.180 A  
BRANCH  15  18
HETATM   18  C   UNL     1     -12.252  14.049  66.896  1.00  0.00    -0.415 C  
BRANCH  18  19
HETATM   19  C   UNL     1     -12.748  13.519  65.550  1.00  0.00    -0.440 C  
BRANCH  19  20
HETATM   20  O   UNL     1     -12.235  12.203  65.328  1.00  0.00    -0.484 OA 
BRANCH  20  21
HETATM   21  C   UNL     1     -11.593  12.124  64.054  1.00  0.00    -0.423 C  
BRANCH  21  22
HETATM   22  C   UNL     1     -10.337  11.326  64.189  1.00  0.00    -0.410 C  
HETATM   23  C   UNL     1      -9.353  11.672  65.278  1.00  0.00    -0.112 C  
HETATM   24  C   UNL     1     -10.133  10.390  65.353  1.00  0.00    -0.354 C  
ENDBRANCH  21  22
ENDBRANCH  20  21
ENDBRANCH  19  20
ENDBRANCH  18  19
ENDBRANCH  15  18
ENDBRANCH  11  12
ENDBRANCH  10  11
ENDBRANCH   7  10
ENDBRANCH   6   7
ENDBRANCH   4   6
ENDBRANCH   2   4
TORSDOF 11
ENDMDL
MODEL      116
REMARK 921   NORMALIZED FREE ENERGY PREDICTED BY IDOCK:   -4.32 KCAL/MOL
REMARK 922        TOTAL FREE ENERGY PREDICTED BY IDOCK:   -8.42 KCAL/MOL
REMARK 923 INTER-LIGAND FREE ENERGY PREDICTED BY IDOCK:   -7.29 KCAL/MOL
REMARK 924 INTRA-LIGAND FREE ENERGY PREDICTED BY IDOCK:   -1.12 KCAL/MOL
REMARK 927      BINDING AFFINITY PREDICTED BY RF-SCORE:    0.00 PKD
ROOT
HETATM    1  C   UNL     1      -7.972  13.044  68.027  1.00  0.00    -0.155 C  
HETATM    2  C   UNL     1      -7.849  11.591  68.493  1.00  0.00    -0.140 C  
HETATM    3  C   UNL     1      -6.621  11.446  69.395  1.00  0.00    -0.119 C  
ENDROOT
BRANCH   2   4
HETATM    4  N   UNL     1      -9.082  11.221  69.193  1.00  0.00    -0.402 NA 
HETATM    5  H   UNL     1      -9.889  11.680  68.771  1.00  0.00     0.000 HD 
BRANCH   4   6
HETATM    6  C   UNL     1      -9.292   9.768  69.274  1.00  0.00    -0.191 C  
BRANCH   6   7
HETATM    7  C   UNL     1     -10.709   9.407  68.795  1.00  0.00    -0.171 C  
HETATM    8  O   UNL     1     -11.634   9.529  69.889  1.00  0.00    -0.427 OA 
HETATM    9  H   UNL     1     -12.509   9.306  69.593  1.00  0.00     0.000 HD 
BRANCH   7  10
HETATM   10  C   UNL     1     -11.159  10.318  67.644  1.00  0.00    -0.251 C  
BRANCH  10  11
HETATM   11  O   UNL     1     -12.197  11.189  68.117  1.00  0.00    -0.612 OA 
BRANCH  11  12
HETATM   12  C   UNL     1     -11.901  12.525  68.059  1.00  0.00    -0.325 A  
HETATM   13  C   UNL     1     -11.893  13.383  69.154  1.00  0.00    -0.383 A  
HETATM   14  C   UNL     1     -11.577  14.732  68.987  1.00  0.00    -0.324 A  
HETATM   15  C   UNL     1     -11.237  15.241  67.724  1.00  0.00    -0.327 A  
HETATM   16  C   UNL     1     -11.228  14.368  66.631  1.00  0.00    -0.340 A  
HETATM   17  C   UNL     1     -11.552  13.017  66.799  1.00  0.00    -0.420 A  
BRANCH  15  18
HETATM   18  C   UNL     1     -10.897  16.703  67.557  1.00  0.00    -0.221 C  
BRANCH  18  19
HETATM   19  C   UNL     1     -10.074  16.969  66.296  1.00  0.00    -0.320 C  
BRANCH  19  20
HETATM   20  O   UNL     1     -10.639  18.063  65.569  1.00  0.00    -0.639 OA 
BRANCH  20  21
HETATM   21  C   UNL     1     -10.308  19.303  66.195  1.00  0.00    -0.494 C  
BRANCH  21  22
HETATM   22  C   UNL     1      -8.883  19.261  66.643  1.00  0.00    -0.359 C  
HETATM   23  C   UNL     1      -8.168  20.551  66.960  1.00  0.00    -0.314 C  
HETATM   24  C   UNL     1      -8.506  19.590  68.065  1.00  0.00    -0.358 C  
ENDBRANCH  21  22
ENDBRANCH  20  21
ENDBRANCH  19  20
ENDBRANCH  18  19
ENDBRANCH  15  18
ENDBRANCH  11  12
ENDBRANCH  10  11
ENDBRANCH   7  10
ENDBRANCH   6   7
ENDBRANCH   4   6
ENDBRANCH   2   4
TORSDOF 11
ENDMDL
MODEL      117
REMARK 921   NORMALIZED FREE ENERGY PREDICTED BY IDOCK:   -4.30 KCAL/MOL
REMARK 922        TOTAL FREE ENERGY PREDICTED BY IDOCK:   -8.40 KCAL/MOL
REMARK 923 INTER-LIGAND FREE ENERGY PREDICTED BY IDOCK:   -7.18 KCAL/MOL
REMARK 924 INTRA-LIGAND FREE ENERGY PREDICTED BY IDOCK:   -1.22 KCAL/MOL
REMARK 927      BINDING AFFINITY PREDICTED BY RF-SCORE:    0.00 PKD
ROOT
HETATM    1  C   UNL     1     -11.794  15.183  64.925  1.00  0.00    -0.239 C  
HETATM    2  C   UNL     1     -10.461  15.824  65.322  1.00  0.00    -0.401 C  
HETATM    3  C   UNL     1     -10.668  16.714  66.549  1.00  0.00    -0.127 C  
ENDROOT
BRANCH   2   4
HETATM    4  N   UNL     1      -9.492  14.756  65.582  1.00  0.00    -0.507 NA 
HETATM    5  H   UNL     1      -8.938  14.559  64.749  1.00  0.00     0.000 HD 
BRANCH   4   6
HETATM    6  C   UNL     1      -8.622  15.030  66.736  1.00  0.00    -0.244 C  
BRANCH   6   7
HETATM    7  C   UNL     1      -8.630  13.833  67.703  1.00  0.00    -0.187 C  
HETATM    8  O   UNL     1      -8.625  14.309  69.060  1.00  0.00    -0.333 OA 
HETATM    9  H   UNL     1      -8.631  13.570  69.657  1.00  0.00     0.000 HD 
BRANCH   7  10
HETATM   10  C   UNL     1      -9.860  12.942  67.481  1.00  0.00    -0.208 C  
BRANCH  10  11
HETATM   11  O   UNL     1     -10.941  13.427  68.292  1.00  0.00    -0.241 OA 
BRANCH  11  12
HETATM   12  C   UNL     1     -11.481  12.504  69.146  1.00  0.00    -0.305 A  
HETATM   13  C   UNL     1     -11.446  11.127  68.952  1.00  0.00    -0.363 A  
HETATM   14  C   UNL     1     -12.029  10.271  69.887  1.00  0.00    -0.222 A  
HETATM   15  C   UNL     1     -12.635  10.776  71.047  1.00  0.00    -0.520 A  
HETATM   16  C   UNL     1     -12.650  12.161  71.245  1.00  0.00    -0.341 A  
HETATM   17  C   UNL     1     -12.071  13.019  70.303  1.00  0.00    -0.388 A  
BRANCH  15  18
HETATM   18  C   UNL     1     -13.262   9.838  72.050  1.00  0.00    -0.557 C  
BRANCH  18  19
HETATM   19  C   UNL     1     -12.337   8.679  72.422  1.00  0.00    -0.357 C  
BRANCH  19  20
HETATM   20  O   UNL     1     -12.935   7.438  72.042  1.00  0.00    -0.262 OA 
BRANCH  20  21
HETATM   21  C   UNL     1     -11.933   6.496  71.656  1.00  0.00    -0.335 C  
BRANCH  21  22
HETATM   22  C   UNL     1     -11.736   6.570  70.177  1.00  0.00    -0.419 C  
HETATM   23  C   UNL     1     -10.452   7.143  69.629  1.00  0.00    -0.241 C  
HETATM   24  C   UNL     1     -10.742   5.676  69.480  1.00  0.00    -0.380 C  
ENDBRANCH  21  22
ENDBRANCH  20  21
ENDBRANCH  19  20
ENDBRANCH  18  19
ENDBRANCH  15  18
ENDBRANCH  11  12
ENDBRANCH  10  11
ENDBRANCH   7  10
ENDBRANCH   6   7
ENDBRANCH   4   6
ENDBRANCH   2   4
TORSDOF 11
ENDMDL
MODEL      118
REMARK 921   NORMALIZED FREE ENERGY PREDICTED BY IDOCK:   -4.30 KCAL/MOL
REMARK 922        TOTAL FREE ENERGY PREDICTED BY IDOCK:   -8.39 KCAL/MOL
REMARK 923 INTER-LIGAND FREE ENERGY PREDICTED BY IDOCK:   -7.15 KCAL/MOL
REMARK 924 INTRA-LIGAND FREE ENERGY PREDICTED BY IDOCK:   -1.25 KCAL/MOL
REMARK 927      BINDING AFFINITY PREDICTED BY RF-SCORE:    0.00 PKD
ROOT
HETATM    1  C   UNL     1     -12.925   8.756  72.188  1.00  0.00    -0.457 C  
HETATM    2  C   UNL     1     -11.851   7.813  71.642  1.00  0.00    -0.287 C  
HETATM    3  C   UNL     1     -12.081   6.404  72.192  1.00  0.00    -0.316 C  
ENDROOT
BRANCH   2   4
HETATM    4  N   UNL     1     -11.908   7.840  70.179  1.00  0.00    -0.461 NA 
HETATM    5  H   UNL     1     -11.722   8.779  69.827  1.00  0.00     0.000 HD 
BRANCH   4   6
HETATM    6  C   UNL     1     -11.018   6.858  69.543  1.00  0.00    -0.250 C  
BRANCH   6   7
HETATM    7  C   UNL     1     -10.324   7.483  68.319  1.00  0.00    -0.195 C  
HETATM    8  O   UNL     1     -11.128   7.268  67.147  1.00  0.00    -0.557 OA 
HETATM    9  H   UNL     1     -10.700   7.654  66.392  1.00  0.00     0.000 HD 
BRANCH   7  10
HETATM   10  C   UNL     1     -10.098   8.988  68.513  1.00  0.00    -0.190 C  
BRANCH  10  11
HETATM   11  O   UNL     1     -10.955   9.709  67.615  1.00  0.00    -0.268 OA 
BRANCH  11  12
HETATM   12  C   UNL     1     -11.236  10.994  67.992  1.00  0.00    -0.309 A  
HETATM   13  C   UNL     1     -11.489  11.401  69.298  1.00  0.00    -0.370 A  
HETATM   14  C   UNL     1     -11.767  12.740  69.576  1.00  0.00    -0.383 A  
HETATM   15  C   UNL     1     -11.770  13.702  68.554  1.00  0.00    -0.392 A  
HETATM   16  C   UNL     1     -11.495  13.289  67.246  1.00  0.00    -0.378 A  
HETATM   17  C   UNL     1     -11.223  11.945  66.968  1.00  0.00    -0.379 A  
BRANCH  15  18
HETATM   18  C   UNL     1     -12.072  15.148  68.868  1.00  0.00    -0.227 C  
BRANCH  18  19
HETATM   19  C   UNL     1     -11.324  15.643  70.107  1.00  0.00    -0.344 C  
BRANCH  19  20
HETATM   20  O   UNL     1     -10.440  16.708  69.747  1.00  0.00    -0.273 OA 
BRANCH  20  21
HETATM   21  C   UNL     1     -10.372  16.844  68.327  1.00  0.00    -0.335 C  
BRANCH  21  22
HETATM   22  C   UNL     1      -8.946  16.744  67.893  1.00  0.00    -0.219 C  
HETATM   23  C   UNL     1      -8.460  15.475  67.237  1.00  0.00    -0.216 C  
HETATM   24  C   UNL     1      -8.577  16.739  66.431  1.00  0.00    -0.338 C  
ENDBRANCH  21  22
ENDBRANCH  20  21
ENDBRANCH  19  20
ENDBRANCH  18  19
ENDBRANCH  15  18
ENDBRANCH  11  12
ENDBRANCH  10  11
ENDBRANCH   7  10
ENDBRANCH   6   7
ENDBRANCH   4   6
ENDBRANCH   2   4
TORSDOF 11
ENDMDL
MODEL      119
REMARK 921   NORMALIZED FREE ENERGY PREDICTED BY IDOCK:   -4.29 KCAL/MOL
REMARK 922        TOTAL FREE ENERGY PREDICTED BY IDOCK:   -8.36 KCAL/MOL
REMARK 923 INTER-LIGAND FREE ENERGY PREDICTED BY IDOCK:   -7.37 KCAL/MOL
REMARK 924 INTRA-LIGAND FREE ENERGY PREDICTED BY IDOCK:   -0.99 KCAL/MOL
REMARK 927      BINDING AFFINITY PREDICTED BY RF-SCORE:    0.00 PKD
ROOT
HETATM    1  C   UNL     1      -9.584  11.942  67.244  1.00  0.00    -0.181 C  
HETATM    2  C   UNL     1     -10.170  12.715  66.060  1.00  0.00    -0.272 C  
HETATM    3  C   UNL     1     -11.662  12.402  65.933  1.00  0.00    -0.476 C  
ENDROOT
BRANCH   2   4
HETATM    4  N   UNL     1      -9.931  14.144  66.274  1.00  0.00    -0.293 NA 
HETATM    5  H   UNL     1     -10.750  14.691  66.009  1.00  0.00     0.000 HD 
BRANCH   4   6
HETATM    6  C   UNL     1      -9.511  14.464  67.647  1.00  0.00    -0.214 C  
BRANCH   6   7
HETATM    7  C   UNL     1     -10.405  15.573  68.231  1.00  0.00    -0.235 C  
HETATM    8  O   UNL     1     -10.448  16.687  67.323  1.00  0.00    -0.315 OA 
HETATM    9  H   UNL     1     -11.000  17.371  67.684  1.00  0.00     0.000 HD 
BRANCH   7  10
HETATM   10  C   UNL     1     -11.832  15.066  68.483  1.00  0.00    -0.291 C  
BRANCH  10  11
HETATM   11  O   UNL     1     -12.102  15.112  69.892  1.00  0.00    -0.311 OA 
BRANCH  11  12
HETATM   12  C   UNL     1     -12.409  13.906  70.461  1.00  0.00    -0.369 A  
HETATM   13  C   UNL     1     -13.093  13.747  71.662  1.00  0.00    -0.456 A  
HETATM   14  C   UNL     1     -13.356  12.469  72.157  1.00  0.00    -0.540 A  
HETATM   15  C   UNL     1     -12.961  11.326  71.447  1.00  0.00    -0.482 A  
HETATM   16  C   UNL     1     -12.290  11.493  70.230  1.00  0.00    -0.355 A  
HETATM   17  C   UNL     1     -12.021  12.776  69.738  1.00  0.00    -0.362 A  
BRANCH  15  18
HETATM   18  C   UNL     1     -13.251   9.949  71.993  1.00  0.00    -0.555 C  
BRANCH  18  19
HETATM   19  C   UNL     1     -12.048   9.012  71.880  1.00  0.00    -0.378 C  
BRANCH  19  20
HETATM   20  O   UNL     1     -12.496   7.671  71.662  1.00  0.00    -0.312 OA 
BRANCH  20  21
HETATM   21  C   UNL     1     -11.525   6.736  72.134  1.00  0.00    -0.282 C  
BRANCH  21  22
HETATM   22  C   UNL     1     -10.876   7.283  73.365  1.00  0.00    -0.370 C  
HETATM   23  C   UNL     1     -10.462   6.339  74.465  1.00  0.00    -0.084 C  
HETATM   24  C   UNL     1      -9.415   7.041  73.646  1.00  0.00    -0.239 C  
ENDBRANCH  21  22
ENDBRANCH  20  21
ENDBRANCH  19  20
ENDBRANCH  18  19
ENDBRANCH  15  18
ENDBRANCH  11  12
ENDBRANCH  10  11
ENDBRANCH   7  10
ENDBRANCH   6   7
ENDBRANCH   4   6
ENDBRANCH   2   4
TORSDOF 11
ENDMDL
MODEL      120
REMARK 921   NORMALIZED FREE ENERGY PREDICTED BY IDOCK:   -4.28 KCAL/MOL
REMARK 922        TOTAL FREE ENERGY PREDICTED BY IDOCK:   -8.36 KCAL/MOL
REMARK 923 INTER-LIGAND FREE ENERGY PREDICTED BY IDOCK:   -7.70 KCAL/MOL
REMARK 924 INTRA-LIGAND FREE ENERGY PREDICTED BY IDOCK:   -0.65 KCAL/MOL
REMARK 927      BINDING AFFINITY PREDICTED BY RF-SCORE:    0.00 PKD
ROOT
HETATM    1  C   UNL     1      -8.068   8.833  67.223  1.00  0.00    -0.101 C  
HETATM    2  C   UNL     1      -8.905   8.071  66.193  1.00  0.00    -0.166 C  
HETATM    3  C   UNL     1     -10.334   7.908  66.716  1.00  0.00    -0.357 C  
ENDROOT
BRANCH   2   4
HETATM    4  N   UNL     1      -8.872   8.811  64.929  1.00  0.00    -0.378 NA 
HETATM    5  H   UNL     1      -9.057   8.190  64.141  1.00  0.00     0.000 HD 
BRANCH   4   6
HETATM    6  C   UNL     1      -9.780   9.968  64.907  1.00  0.00    -0.307 C  
BRANCH   6   7
HETATM    7  C   UNL     1      -9.453  10.877  63.709  1.00  0.00    -0.275 C  
HETATM    8  O   UNL     1      -9.452  10.100  62.499  1.00  0.00    -0.357 OA 
HETATM    9  H   UNL     1      -9.251  10.662  61.760  1.00  0.00     0.000 HD 
BRANCH   7  10
HETATM   10  C   UNL     1     -10.470  12.019  63.580  1.00  0.00    -0.464 C  
BRANCH  10  11
HETATM   11  O   UNL     1     -11.480  11.861  64.587  1.00  0.00    -0.323 OA 
BRANCH  11  12
HETATM   12  C   UNL     1     -11.411  12.756  65.620  1.00  0.00    -0.342 A  
HETATM   13  C   UNL     1     -11.747  12.472  66.940  1.00  0.00    -0.447 A  
HETATM   14  C   UNL     1     -11.641  13.459  67.921  1.00  0.00    -0.374 A  
HETATM   15  C   UNL     1     -11.172  14.742  67.603  1.00  0.00    -0.332 A  
HETATM   16  C   UNL     1     -10.818  15.016  66.277  1.00  0.00    -0.333 A  
HETATM   17  C   UNL     1     -10.931  14.026  65.294  1.00  0.00    -0.335 A  
BRANCH  15  18
HETATM   18  C   UNL     1     -11.062  15.801  68.673  1.00  0.00    -0.327 C  
BRANCH  18  19
HETATM   19  C   UNL     1      -9.638  15.937  69.214  1.00  0.00    -0.266 C  
BRANCH  19  20
HETATM   20  O   UNL     1      -9.086  17.195  68.817  1.00  0.00    -0.270 OA 
BRANCH  20  21
HETATM   21  C   UNL     1     -10.118  18.078  68.376  1.00  0.00    -0.387 C  
BRANCH  21  22
HETATM   22  C   UNL     1      -9.580  18.959  67.296  1.00  0.00    -0.346 C  
HETATM   23  C   UNL     1     -10.535  19.608  66.325  1.00  0.00    -0.621 C  
HETATM   24  C   UNL     1      -9.799  20.450  67.329  1.00  0.00    -0.597 C  
ENDBRANCH  21  22
ENDBRANCH  20  21
ENDBRANCH  19  20
ENDBRANCH  18  19
ENDBRANCH  15  18
ENDBRANCH  11  12
ENDBRANCH  10  11
ENDBRANCH   7  10
ENDBRANCH   6   7
ENDBRANCH   4   6
ENDBRANCH   2   4
TORSDOF 11
ENDMDL
MODEL      121
REMARK 921   NORMALIZED FREE ENERGY PREDICTED BY IDOCK:   -4.27 KCAL/MOL
REMARK 922        TOTAL FREE ENERGY PREDICTED BY IDOCK:   -8.34 KCAL/MOL
REMARK 923 INTER-LIGAND FREE ENERGY PREDICTED BY IDOCK:   -7.58 KCAL/MOL
REMARK 924 INTRA-LIGAND FREE ENERGY PREDICTED BY IDOCK:   -0.76 KCAL/MOL
REMARK 927      BINDING AFFINITY PREDICTED BY RF-SCORE:    0.00 PKD
ROOT
HETATM    1  C   UNL     1      -8.408   3.471  65.019  1.00  0.00    -0.097 C  
HETATM    2  C   UNL     1      -8.000   4.945  64.952  1.00  0.00    -0.096 C  
HETATM    3  C   UNL     1      -7.215   5.199  63.664  1.00  0.00    -0.049 C  
ENDROOT
BRANCH   2   4
HETATM    4  N   UNL     1      -9.212   5.766  65.020  1.00  0.00    -0.349 NA 
HETATM    5  H   UNL     1     -10.047   5.182  64.982  1.00  0.00     0.000 HD 
BRANCH   4   6
HETATM    6  C   UNL     1      -9.248   6.654  66.193  1.00  0.00    -0.087 C  
BRANCH   6   7
HETATM    7  C   UNL     1      -8.558   7.991  65.868  1.00  0.00    -0.152 C  
HETATM    8  O   UNL     1      -8.900   8.398  64.532  1.00  0.00    -0.413 OA 
HETATM    9  H   UNL     1      -8.474   9.224  64.333  1.00  0.00     0.000 HD 
BRANCH   7  10
HETATM   10  C   UNL     1      -8.973   9.088  66.858  1.00  0.00    -0.123 C  
BRANCH  10  11
HETATM   11  O   UNL     1     -10.160   8.671  67.547  1.00  0.00    -0.184 OA 
BRANCH  11  12
HETATM   12  C   UNL     1     -10.691   9.603  68.398  1.00  0.00    -0.209 A  
HETATM   13  C   UNL     1     -10.754   9.469  69.782  1.00  0.00    -0.259 A  
HETATM   14  C   UNL     1     -11.317  10.480  70.561  1.00  0.00    -0.400 A  
HETATM   15  C   UNL     1     -11.806  11.656  69.971  1.00  0.00    -0.435 A  
HETATM   16  C   UNL     1     -11.723  11.791  68.581  1.00  0.00    -0.389 A  
HETATM   17  C   UNL     1     -11.163  10.774  67.801  1.00  0.00    -0.385 A  
BRANCH  15  18
HETATM   18  C   UNL     1     -12.414  12.742  70.825  1.00  0.00    -0.357 C  
BRANCH  18  19
HETATM   19  C   UNL     1     -13.269  12.180  71.961  1.00  0.00    -0.391 C  
BRANCH  19  20
HETATM   20  O   UNL     1     -13.789  13.250  72.754  1.00  0.00    -0.690 OA 
BRANCH  20  21
HETATM   21  C   UNL     1     -14.033  14.401  71.943  1.00  0.00    -0.487 C  
BRANCH  21  22
HETATM   22  C   UNL     1     -13.583  15.622  72.678  1.00  0.00    -0.667 C  
HETATM   23  C   UNL     1     -12.702  15.471  73.893  1.00  0.00    -0.723 C  
HETATM   24  C   UNL     1     -12.144  16.069  72.632  1.00  0.00    -0.640 C  
ENDBRANCH  21  22
ENDBRANCH  20  21
ENDBRANCH  19  20
ENDBRANCH  18  19
ENDBRANCH  15  18
ENDBRANCH  11  12
ENDBRANCH  10  11
ENDBRANCH   7  10
ENDBRANCH   6   7
ENDBRANCH   4   6
ENDBRANCH   2   4
TORSDOF 11
ENDMDL
MODEL      122
REMARK 921   NORMALIZED FREE ENERGY PREDICTED BY IDOCK:   -4.27 KCAL/MOL
REMARK 922        TOTAL FREE ENERGY PREDICTED BY IDOCK:   -8.34 KCAL/MOL
REMARK 923 INTER-LIGAND FREE ENERGY PREDICTED BY IDOCK:   -7.01 KCAL/MOL
REMARK 924 INTRA-LIGAND FREE ENERGY PREDICTED BY IDOCK:   -1.33 KCAL/MOL
REMARK 927      BINDING AFFINITY PREDICTED BY RF-SCORE:    0.00 PKD
ROOT
HETATM    1  C   UNL     1      -8.709   9.272  70.372  1.00  0.00    -0.263 C  
HETATM    2  C   UNL     1      -9.720   8.127  70.262  1.00  0.00    -0.175 C  
HETATM    3  C   UNL     1      -9.466   7.345  68.971  1.00  0.00    -0.148 C  
ENDROOT
BRANCH   2   4
HETATM    4  N   UNL     1      -9.590   7.276  71.447  1.00  0.00    -0.161 NA 
HETATM    5  H   UNL     1      -8.638   7.305  71.810  1.00  0.00     0.000 HD 
BRANCH   4   6
HETATM    6  C   UNL     1     -10.562   7.597  72.503  1.00  0.00    -0.281 C  
BRANCH   6   7
HETATM    7  C   UNL     1     -11.956   7.826  71.891  1.00  0.00    -0.301 C  
HETATM    8  O   UNL     1     -12.841   6.768  72.298  1.00  0.00    -0.539 OA 
HETATM    9  H   UNL     1     -13.701   6.910  71.920  1.00  0.00     0.000 HD 
BRANCH   7  10
HETATM   10  C   UNL     1     -12.543   9.176  72.323  1.00  0.00    -0.355 C  
BRANCH  10  11
HETATM   11  O   UNL     1     -13.349   9.698  71.257  1.00  0.00    -0.373 OA 
BRANCH  11  12
HETATM   12  C   UNL     1     -12.784  10.732  70.558  1.00  0.00    -0.305 A  
HETATM   13  C   UNL     1     -12.204  10.615  69.300  1.00  0.00    -0.108 A  
HETATM   14  C   UNL     1     -11.655  11.734  68.672  1.00  0.00    -0.367 A  
HETATM   15  C   UNL     1     -11.699  12.997  69.283  1.00  0.00    -0.375 A  
HETATM   16  C   UNL     1     -12.301  13.110  70.541  1.00  0.00    -0.380 A  
HETATM   17  C   UNL     1     -12.846  11.985  71.171  1.00  0.00    -0.331 A  
BRANCH  15  18
HETATM   18  C   UNL     1     -11.101  14.199  68.594  1.00  0.00    -0.283 C  
BRANCH  18  19
HETATM   19  C   UNL     1      -9.906  13.832  67.713  1.00  0.00    -0.234 C  
BRANCH  19  20
HETATM   20  O   UNL     1     -10.218  14.083  66.341  1.00  0.00    -0.277 OA 
BRANCH  20  21
HETATM   21  C   UNL     1     -11.506  14.691  66.224  1.00  0.00    -0.351 C  
BRANCH  21  22
HETATM   22  C   UNL     1     -12.200  14.137  65.022  1.00  0.00    -0.450 C  
HETATM   23  C   UNL     1     -11.478  13.150  64.139  1.00  0.00    -0.449 C  
HETATM   24  C   UNL     1     -12.642  12.697  64.975  1.00  0.00    -0.504 C  
ENDBRANCH  21  22
ENDBRANCH  20  21
ENDBRANCH  19  20
ENDBRANCH  18  19
ENDBRANCH  15  18
ENDBRANCH  11  12
ENDBRANCH  10  11
ENDBRANCH   7  10
ENDBRANCH   6   7
ENDBRANCH   4   6
ENDBRANCH   2   4
TORSDOF 11
ENDMDL
MODEL      123
REMARK 921   NORMALIZED FREE ENERGY PREDICTED BY IDOCK:   -4.27 KCAL/MOL
REMARK 922        TOTAL FREE ENERGY PREDICTED BY IDOCK:   -8.34 KCAL/MOL
REMARK 923 INTER-LIGAND FREE ENERGY PREDICTED BY IDOCK:   -7.11 KCAL/MOL
REMARK 924 INTRA-LIGAND FREE ENERGY PREDICTED BY IDOCK:   -1.23 KCAL/MOL
REMARK 927      BINDING AFFINITY PREDICTED BY RF-SCORE:    0.00 PKD
ROOT
HETATM    1  C   UNL     1     -10.059  10.279  64.740  1.00  0.00    -0.336 C  
HETATM    2  C   UNL     1      -9.453  11.029  63.551  1.00  0.00    -0.292 C  
HETATM    3  C   UNL     1      -8.931  10.022  62.524  1.00  0.00    -0.285 C  
ENDROOT
BRANCH   2   4
HETATM    4  N   UNL     1     -10.480  11.903  62.980  1.00  0.00    -0.647 NA 
HETATM    5  H   UNL     1     -11.055  11.395  62.309  1.00  0.00     0.000 HD 
BRANCH   4   6
HETATM    6  C   UNL     1     -11.318  12.557  63.997  1.00  0.00    -0.405 C  
BRANCH   6   7
HETATM    7  C   UNL     1     -10.565  13.743  64.624  1.00  0.00    -0.425 C  
HETATM    8  O   UNL     1     -11.200  14.975  64.240  1.00  0.00    -0.638 OA 
HETATM    9  H   UNL     1     -10.734  15.707  64.627  1.00  0.00     0.000 HD 
BRANCH   7  10
HETATM   10  C   UNL     1     -10.536  13.641  66.155  1.00  0.00    -0.291 C  
BRANCH  10  11
HETATM   11  O   UNL     1     -11.844  13.281  66.624  1.00  0.00    -0.360 OA 
BRANCH  11  12
HETATM   12  C   UNL     1     -11.868  12.639  67.833  1.00  0.00    -0.332 A  
HETATM   13  C   UNL     1     -12.133  13.254  69.052  1.00  0.00    -0.268 A  
HETATM   14  C   UNL     1     -12.134  12.507  70.231  1.00  0.00    -0.373 A  
HETATM   15  C   UNL     1     -11.893  11.125  70.208  1.00  0.00    -0.455 A  
HETATM   16  C   UNL     1     -11.645  10.510  68.976  1.00  0.00    -0.278 A  
HETATM   17  C   UNL     1     -11.639  11.262  67.795  1.00  0.00    -0.307 A  
BRANCH  15  18
HETATM   18  C   UNL     1     -11.895  10.328  71.490  1.00  0.00    -0.290 C  
BRANCH  18  19
HETATM   19  C   UNL     1     -11.282   8.939  71.314  1.00  0.00    -0.298 C  
BRANCH  19  20
HETATM   20  O   UNL     1      -9.897   8.970  71.668  1.00  0.00    -0.306 OA 
BRANCH  20  21
HETATM   21  C   UNL     1      -9.165   8.007  70.909  1.00  0.00    -0.149 C  
BRANCH  21  22
HETATM   22  C   UNL     1      -8.700   8.637  69.637  1.00  0.00    -0.132 C  
HETATM   23  C   UNL     1      -8.088  10.015  69.674  1.00  0.00    -0.180 C  
HETATM   24  C   UNL     1      -7.231   8.822  69.353  1.00  0.00    -0.061 C  
ENDBRANCH  21  22
ENDBRANCH  20  21
ENDBRANCH  19  20
ENDBRANCH  18  19
ENDBRANCH  15  18
ENDBRANCH  11  12
ENDBRANCH  10  11
ENDBRANCH   7  10
ENDBRANCH   6   7
ENDBRANCH   4   6
ENDBRANCH   2   4
TORSDOF 11
ENDMDL
MODEL      124
REMARK 921   NORMALIZED FREE ENERGY PREDICTED BY IDOCK:   -4.26 KCAL/MOL
REMARK 922        TOTAL FREE ENERGY PREDICTED BY IDOCK:   -8.33 KCAL/MOL
REMARK 923 INTER-LIGAND FREE ENERGY PREDICTED BY IDOCK:   -7.18 KCAL/MOL
REMARK 924 INTRA-LIGAND FREE ENERGY PREDICTED BY IDOCK:   -1.15 KCAL/MOL
REMARK 927      BINDING AFFINITY PREDICTED BY RF-SCORE:    0.00 PKD
ROOT
HETATM    1  C   UNL     1     -14.407   8.620  72.025  1.00  0.00    -0.512 C  
HETATM    2  C   UNL     1     -13.054   8.177  71.461  1.00  0.00    -0.287 C  
HETATM    3  C   UNL     1     -12.194   9.410  71.172  1.00  0.00    -0.402 C  
ENDROOT
BRANCH   2   4
HETATM    4  N   UNL     1     -12.415   7.284  72.430  1.00  0.00    -0.505 NA 
HETATM    5  H   UNL     1     -12.340   6.339  72.057  1.00  0.00     0.000 HD 
BRANCH   4   6
HETATM    6  C   UNL     1     -11.106   7.769  72.892  1.00  0.00    -0.398 C  
BRANCH   6   7
HETATM    7  C   UNL     1     -10.195   6.581  73.247  1.00  0.00    -0.224 C  
HETATM    8  O   UNL     1     -10.900   5.673  74.111  1.00  0.00    -0.351 OA 
HETATM    9  H   UNL     1     -10.337   4.939  74.330  1.00  0.00     0.000 HD 
BRANCH   7  10
HETATM   10  C   UNL     1      -9.735   5.832  71.988  1.00  0.00    -0.154 C  
BRANCH  10  11
HETATM   11  O   UNL     1      -8.723   6.607  71.328  1.00  0.00    -0.129 OA 
BRANCH  11  12
HETATM   12  C   UNL     1      -9.150   7.292  70.222  1.00  0.00    -0.152 A  
HETATM   13  C   UNL     1     -10.040   6.794  69.276  1.00  0.00    -0.179 A  
HETATM   14  C   UNL     1     -10.412   7.576  68.181  1.00  0.00    -0.233 A  
HETATM   15  C   UNL     1      -9.919   8.880  68.027  1.00  0.00    -0.215 A  
HETATM   16  C   UNL     1      -9.039   9.381  68.993  1.00  0.00    -0.142 A  
HETATM   17  C   UNL     1      -8.662   8.594  70.087  1.00  0.00    -0.144 A  
BRANCH  15  18
HETATM   18  C   UNL     1     -10.328   9.715  66.838  1.00  0.00    -0.307 C  
BRANCH  18  19
HETATM   19  C   UNL     1     -10.504  11.192  67.196  1.00  0.00    -0.231 C  
BRANCH  19  20
HETATM   20  O   UNL     1     -11.842  11.606  66.908  1.00  0.00    -0.577 OA 
BRANCH  20  21
HETATM   21  C   UNL     1     -11.842  12.868  66.240  1.00  0.00    -0.416 C  
BRANCH  21  22
HETATM   22  C   UNL     1     -12.495  12.716  64.905  1.00  0.00    -0.564 C  
HETATM   23  C   UNL     1     -11.951  13.481  63.724  1.00  0.00    -0.475 C  
HETATM   24  C   UNL     1     -11.804  11.986  63.781  1.00  0.00    -0.581 C  
ENDBRANCH  21  22
ENDBRANCH  20  21
ENDBRANCH  19  20
ENDBRANCH  18  19
ENDBRANCH  15  18
ENDBRANCH  11  12
ENDBRANCH  10  11
ENDBRANCH   7  10
ENDBRANCH   6   7
ENDBRANCH   4   6
ENDBRANCH   2   4
TORSDOF 11
ENDMDL
MODEL      125
REMARK 921   NORMALIZED FREE ENERGY PREDICTED BY IDOCK:   -4.24 KCAL/MOL
REMARK 922        TOTAL FREE ENERGY PREDICTED BY IDOCK:   -8.29 KCAL/MOL
REMARK 923 INTER-LIGAND FREE ENERGY PREDICTED BY IDOCK:   -6.12 KCAL/MOL
REMARK 924 INTRA-LIGAND FREE ENERGY PREDICTED BY IDOCK:   -2.16 KCAL/MOL
REMARK 927      BINDING AFFINITY PREDICTED BY RF-SCORE:    0.00 PKD
ROOT
HETATM    1  C   UNL     1      -9.820  12.214  68.278  1.00  0.00    -0.212 C  
HETATM    2  C   UNL     1     -11.350  12.234  68.234  1.00  0.00    -0.289 C  
HETATM    3  C   UNL     1     -11.858  13.581  68.755  1.00  0.00    -0.390 C  
ENDROOT
BRANCH   2   4
HETATM    4  N   UNL     1     -11.779  11.989  66.855  1.00  0.00    -0.576 NA 
HETATM    5  H   UNL     1     -12.783  12.138  66.756  1.00  0.00     0.000 HD 
BRANCH   4   6
HETATM    6  C   UNL     1     -11.034  12.781  65.864  1.00  0.00    -0.274 C  
BRANCH   6   7
HETATM    7  C   UNL     1     -10.712  11.920  64.630  1.00  0.00    -0.307 C  
HETATM    8  O   UNL     1      -9.448  12.324  64.076  1.00  0.00    -0.519 OA 
HETATM    9  H   UNL     1      -9.250  11.792  63.314  1.00  0.00     0.000 HD 
BRANCH   7  10
HETATM   10  C   UNL     1     -10.659  10.428  64.986  1.00  0.00     0.065 C  
BRANCH  10  11
HETATM   11  O   UNL     1      -9.412  10.148  65.638  1.00  0.00    -0.187 OA 
BRANCH  11  12
HETATM   12  C   UNL     1      -9.459   9.146  66.569  1.00  0.00    -0.208 A  
HETATM   13  C   UNL     1     -10.527   8.271  66.739  1.00  0.00    -0.313 A  
HETATM   14  C   UNL     1     -10.475   7.281  67.722  1.00  0.00    -0.292 A  
HETATM   15  C   UNL     1      -9.341   7.132  68.535  1.00  0.00    -0.136 A  
HETATM   16  C   UNL     1      -8.263   8.004  68.345  1.00  0.00    -0.123 A  
HETATM   17  C   UNL     1      -8.320   9.000  67.364  1.00  0.00    -0.112 A  
BRANCH  15  18
HETATM   18  C   UNL     1      -9.298   6.057  69.594  1.00  0.00    -0.161 C  
BRANCH  18  19
HETATM   19  C   UNL     1     -10.693   5.636  70.055  1.00  0.00    -0.320 C  
BRANCH  19  20
HETATM   20  O   UNL     1     -11.030   6.313  71.268  1.00  0.00    -0.253 OA 
BRANCH  20  21
HETATM   21  C   UNL     1     -12.208   7.101  71.092  1.00  0.00    -0.365 C  
BRANCH  21  22
HETATM   22  C   UNL     1     -11.936   8.498  71.547  1.00  0.00    -0.354 C  
HETATM   23  C   UNL     1     -10.508   8.956  71.714  1.00  0.00    -0.431 C  
HETATM   24  C   UNL     1     -11.351   9.520  70.605  1.00  0.00    -0.364 C  
ENDBRANCH  21  22
ENDBRANCH  20  21
ENDBRANCH  19  20
ENDBRANCH  18  19
ENDBRANCH  15  18
ENDBRANCH  11  12
ENDBRANCH  10  11
ENDBRANCH   7  10
ENDBRANCH   6   7
ENDBRANCH   4   6
ENDBRANCH   2   4
TORSDOF 11
ENDMDL
MODEL      126
REMARK 921   NORMALIZED FREE ENERGY PREDICTED BY IDOCK:   -4.23 KCAL/MOL
REMARK 922        TOTAL FREE ENERGY PREDICTED BY IDOCK:   -8.27 KCAL/MOL
REMARK 923 INTER-LIGAND FREE ENERGY PREDICTED BY IDOCK:   -7.52 KCAL/MOL
REMARK 924 INTRA-LIGAND FREE ENERGY PREDICTED BY IDOCK:   -0.75 KCAL/MOL
REMARK 927      BINDING AFFINITY PREDICTED BY RF-SCORE:    0.00 PKD
ROOT
HETATM    1  C   UNL     1      -7.206   7.157  65.404  1.00  0.00    -0.070 C  
HETATM    2  C   UNL     1      -7.572   7.304  63.925  1.00  0.00    -0.110 C  
HETATM    3  C   UNL     1      -8.131   5.978  63.403  1.00  0.00    -0.084 C  
ENDROOT
BRANCH   2   4
HETATM    4  N   UNL     1      -8.543   8.393  63.792  1.00  0.00    -0.411 NA 
HETATM    5  H   UNL     1      -9.215   8.374  64.558  1.00  0.00     0.000 HD 
BRANCH   4   6
HETATM    6  C   UNL     1      -7.917   9.719  63.678  1.00  0.00    -0.144 C  
BRANCH   6   7
HETATM    7  C   UNL     1      -8.977  10.777  63.324  1.00  0.00    -0.220 C  
HETATM    8  O   UNL     1      -9.879  10.246  62.337  1.00  0.00    -0.695 OA 
HETATM    9  H   UNL     1     -10.533  10.900  62.119  1.00  0.00     0.000 HD 
BRANCH   7  10
HETATM   10  C   UNL     1      -9.774  11.207  64.563  1.00  0.00    -0.265 C  
BRANCH  10  11
HETATM   11  O   UNL     1      -9.419  10.358  65.664  1.00  0.00    -0.185 OA 
BRANCH  11  12
HETATM   12  C   UNL     1     -10.162  10.542  66.799  1.00  0.00    -0.234 A  
HETATM   13  C   UNL     1     -11.022  11.613  67.018  1.00  0.00    -0.338 A  
HETATM   14  C   UNL     1     -11.736  11.708  68.214  1.00  0.00    -0.374 A  
HETATM   15  C   UNL     1     -11.621  10.719  69.202  1.00  0.00    -0.376 A  
HETATM   16  C   UNL     1     -10.768   9.635  68.966  1.00  0.00    -0.232 A  
HETATM   17  C   UNL     1     -10.049   9.544  67.769  1.00  0.00    -0.244 A  
BRANCH  15  18
HETATM   18  C   UNL     1     -12.398  10.833  70.491  1.00  0.00    -0.458 C  
BRANCH  18  19
HETATM   19  C   UNL     1     -12.375  12.252  71.061  1.00  0.00    -0.220 C  
BRANCH  19  20
HETATM   20  O   UNL     1     -13.319  12.362  72.129  1.00  0.00    -0.528 OA 
BRANCH  20  21
HETATM   21  C   UNL     1     -13.871  13.678  72.175  1.00  0.00    -0.548 C  
BRANCH  21  22
HETATM   22  C   UNL     1     -13.034  14.529  73.075  1.00  0.00    -0.596 C  
HETATM   23  C   UNL     1     -12.022  15.471  72.472  1.00  0.00    -0.557 C  
HETATM   24  C   UNL     1     -13.245  16.020  73.151  1.00  0.00    -0.633 C  
ENDBRANCH  21  22
ENDBRANCH  20  21
ENDBRANCH  19  20
ENDBRANCH  18  19
ENDBRANCH  15  18
ENDBRANCH  11  12
ENDBRANCH  10  11
ENDBRANCH   7  10
ENDBRANCH   6   7
ENDBRANCH   4   6
ENDBRANCH   2   4
TORSDOF 11
ENDMDL
MODEL      127
REMARK 921   NORMALIZED FREE ENERGY PREDICTED BY IDOCK:   -4.22 KCAL/MOL
REMARK 922        TOTAL FREE ENERGY PREDICTED BY IDOCK:   -8.26 KCAL/MOL
REMARK 923 INTER-LIGAND FREE ENERGY PREDICTED BY IDOCK:   -7.15 KCAL/MOL
REMARK 924 INTRA-LIGAND FREE ENERGY PREDICTED BY IDOCK:   -1.12 KCAL/MOL
REMARK 927      BINDING AFFINITY PREDICTED BY RF-SCORE:    0.00 PKD
ROOT
HETATM    1  C   UNL     1      -9.048  16.219  66.109  1.00  0.00    -0.377 C  
HETATM    2  C   UNL     1     -10.484  16.711  65.910  1.00  0.00    -0.313 C  
HETATM    3  C   UNL     1     -10.511  18.240  65.956  1.00  0.00    -0.380 C  
ENDROOT
BRANCH   2   4
HETATM    4  N   UNL     1     -10.979  16.197  64.630  1.00  0.00    -0.857 NA 
HETATM    5  H   UNL     1     -10.381  16.502  63.863  1.00  0.00     0.000 HD 
BRANCH   4   6
HETATM    6  C   UNL     1     -11.145  14.736  64.615  1.00  0.00    -0.325 C  
BRANCH   6   7
HETATM    7  C   UNL     1     -12.228  14.313  65.623  1.00  0.00    -0.400 C  
HETATM    8  O   UNL     1     -13.222  13.516  64.957  1.00  0.00    -0.721 OA 
HETATM    9  H   UNL     1     -13.891  13.256  65.579  1.00  0.00     0.000 HD 
BRANCH   7  10
HETATM   10  C   UNL     1     -11.628  13.512  66.786  1.00  0.00    -0.363 C  
BRANCH  10  11
HETATM   11  O   UNL     1     -12.016  12.136  66.653  1.00  0.00    -0.616 OA 
BRANCH  11  12
HETATM   12  C   UNL     1     -10.981  11.261  66.458  1.00  0.00    -0.245 A  
HETATM   13  C   UNL     1     -10.218  11.181  65.298  1.00  0.00    -0.337 A  
HETATM   14  C   UNL     1      -9.182  10.250  65.201  1.00  0.00    -0.252 A  
HETATM   15  C   UNL     1      -8.876   9.399  66.273  1.00  0.00    -0.172 A  
HETATM   16  C   UNL     1      -9.636   9.497  67.443  1.00  0.00    -0.178 A  
HETATM   17  C   UNL     1     -10.678  10.427  67.537  1.00  0.00    -0.339 A  
BRANCH  15  18
HETATM   18  C   UNL     1      -7.754   8.396  66.154  1.00  0.00    -0.097 C  
BRANCH  18  19
HETATM   19  C   UNL     1      -7.821   7.599  64.851  1.00  0.00    -0.128 C  
BRANCH  19  20
HETATM   20  O   UNL     1      -8.549   6.386  65.060  1.00  0.00    -0.087 OA 
BRANCH  20  21
HETATM   21  C   UNL     1      -8.263   5.846  66.350  1.00  0.00    -0.112 C  
BRANCH  21  22
HETATM   22  C   UNL     1      -9.525   5.318  66.951  1.00  0.00    -0.138 C  
HETATM   23  C   UNL     1     -10.795   6.124  66.833  1.00  0.00    -0.411 C  
HETATM   24  C   UNL     1     -10.656   4.831  66.080  1.00  0.00    -0.300 C  
ENDBRANCH  21  22
ENDBRANCH  20  21
ENDBRANCH  19  20
ENDBRANCH  18  19
ENDBRANCH  15  18
ENDBRANCH  11  12
ENDBRANCH  10  11
ENDBRANCH   7  10
ENDBRANCH   6   7
ENDBRANCH   4   6
ENDBRANCH   2   4
TORSDOF 11
ENDMDL
MODEL      128
REMARK 921   NORMALIZED FREE ENERGY PREDICTED BY IDOCK:   -4.21 KCAL/MOL
REMARK 922        TOTAL FREE ENERGY PREDICTED BY IDOCK:   -8.25 KCAL/MOL
REMARK 923 INTER-LIGAND FREE ENERGY PREDICTED BY IDOCK:   -7.59 KCAL/MOL
REMARK 924 INTRA-LIGAND FREE ENERGY PREDICTED BY IDOCK:   -0.65 KCAL/MOL
REMARK 927      BINDING AFFINITY PREDICTED BY RF-SCORE:    0.00 PKD
ROOT
HETATM    1  C   UNL     1     -10.971   2.301  73.249  1.00  0.00    -0.279 C  
HETATM    2  C   UNL     1     -10.125   3.558  73.024  1.00  0.00    -0.149 C  
HETATM    3  C   UNL     1      -9.739   3.656  71.547  1.00  0.00    -0.238 C  
ENDROOT
BRANCH   2   4
HETATM    4  N   UNL     1     -10.899   4.722  73.462  1.00  0.00    -0.271 NA 
HETATM    5  H   UNL     1     -11.707   4.434  74.013  1.00  0.00     0.000 HD 
BRANCH   4   6
HETATM    6  C   UNL     1     -10.095   5.713  74.194  1.00  0.00    -0.249 C  
BRANCH   6   7
HETATM    7  C   UNL     1     -10.489   7.138  73.766  1.00  0.00    -0.329 C  
HETATM    8  O   UNL     1      -9.305   7.932  73.584  1.00  0.00    -0.278 OA 
HETATM    9  H   UNL     1      -9.549   8.812  73.319  1.00  0.00     0.000 HD 
BRANCH   7  10
HETATM   10  C   UNL     1     -11.300   7.126  72.463  1.00  0.00    -0.279 C  
BRANCH  10  11
HETATM   11  O   UNL     1     -12.270   8.183  72.507  1.00  0.00    -0.344 OA 
BRANCH  11  12
HETATM   12  C   UNL     1     -12.043   9.213  71.634  1.00  0.00    -0.362 A  
HETATM   13  C   UNL     1     -11.065   9.213  70.645  1.00  0.00    -0.320 A  
HETATM   14  C   UNL     1     -10.916  10.317  69.804  1.00  0.00    -0.338 A  
HETATM   15  C   UNL     1     -11.761  11.431  69.922  1.00  0.00    -0.424 A  
HETATM   16  C   UNL     1     -12.754  11.416  70.907  1.00  0.00    -0.397 A  
HETATM   17  C   UNL     1     -12.899  10.311  71.753  1.00  0.00    -0.565 A  
BRANCH  15  18
HETATM   18  C   UNL     1     -11.589  12.619  69.006  1.00  0.00    -0.367 C  
BRANCH  18  19
HETATM   19  C   UNL     1     -11.767  12.250  67.533  1.00  0.00    -0.332 C  
BRANCH  19  20
HETATM   20  O   UNL     1     -11.351  13.339  66.705  1.00  0.00    -0.304 OA 
BRANCH  20  21
HETATM   21  C   UNL     1     -10.410  12.893  65.728  1.00  0.00    -0.284 C  
BRANCH  21  22
HETATM   22  C   UNL     1     -10.844  13.367  64.379  1.00  0.00    -0.422 C  
HETATM   23  C   UNL     1     -12.110  12.814  63.773  1.00  0.00    -0.596 C  
HETATM   24  C   UNL     1     -12.056  14.248  64.218  1.00  0.00    -0.467 C  
ENDBRANCH  21  22
ENDBRANCH  20  21
ENDBRANCH  19  20
ENDBRANCH  18  19
ENDBRANCH  15  18
ENDBRANCH  11  12
ENDBRANCH  10  11
ENDBRANCH   7  10
ENDBRANCH   6   7
ENDBRANCH   4   6
ENDBRANCH   2   4
TORSDOF 11
ENDMDL
MODEL      129
REMARK 921   NORMALIZED FREE ENERGY PREDICTED BY IDOCK:   -4.20 KCAL/MOL
REMARK 922        TOTAL FREE ENERGY PREDICTED BY IDOCK:   -8.22 KCAL/MOL
REMARK 923 INTER-LIGAND FREE ENERGY PREDICTED BY IDOCK:   -7.20 KCAL/MOL
REMARK 924 INTRA-LIGAND FREE ENERGY PREDICTED BY IDOCK:   -1.03 KCAL/MOL
REMARK 927      BINDING AFFINITY PREDICTED BY RF-SCORE:    0.00 PKD
ROOT
HETATM    1  C   UNL     1      -7.224   9.814  68.765  1.00  0.00    -0.072 C  
HETATM    2  C   UNL     1      -8.652  10.269  68.454  1.00  0.00    -0.125 C  
HETATM    3  C   UNL     1      -9.354   9.203  67.609  1.00  0.00    -0.154 C  
ENDROOT
BRANCH   2   4
HETATM    4  N   UNL     1      -9.351  10.506  69.719  1.00  0.00    -0.412 NA 
HETATM    5  H   UNL     1      -9.955  11.324  69.651  1.00  0.00     0.000 HD 
BRANCH   4   6
HETATM    6  C   UNL     1     -10.106   9.337  70.195  1.00  0.00    -0.213 C  
BRANCH   6   7
HETATM    7  C   UNL     1     -11.567   9.728  70.478  1.00  0.00    -0.292 C  
HETATM    8  O   UNL     1     -11.853   9.545  71.875  1.00  0.00    -0.373 OA 
HETATM    9  H   UNL     1     -12.755   9.786  72.050  1.00  0.00     0.000 HD 
BRANCH   7  10
HETATM   10  C   UNL     1     -11.842  11.187  70.089  1.00  0.00    -0.365 C  
BRANCH  10  11
HETATM   11  O   UNL     1     -12.389  11.221  68.762  1.00  0.00    -0.518 OA 
BRANCH  11  12
HETATM   12  C   UNL     1     -11.899  12.216  67.960  1.00  0.00    -0.285 A  
HETATM   13  C   UNL     1     -11.473  12.039  66.648  1.00  0.00    -0.411 A  
HETATM   14  C   UNL     1     -10.988  13.123  65.915  1.00  0.00    -0.288 A  
HETATM   15  C   UNL     1     -10.945  14.409  66.473  1.00  0.00    -0.316 A  
HETATM   16  C   UNL     1     -11.394  14.583  67.787  1.00  0.00    -0.335 A  
HETATM   17  C   UNL     1     -11.874  13.494  68.523  1.00  0.00    -0.398 A  
BRANCH  15  18
HETATM   18  C   UNL     1     -10.419  15.573  65.669  1.00  0.00    -0.393 C  
BRANCH  18  19
HETATM   19  C   UNL     1      -9.624  16.560  66.524  1.00  0.00    -0.271 C  
BRANCH  19  20
HETATM   20  O   UNL     1      -9.266  17.703  65.743  1.00  0.00    -0.505 OA 
BRANCH  20  21
HETATM   21  C   UNL     1      -8.074  18.303  66.250  1.00  0.00    -0.223 C  
BRANCH  21  22
HETATM   22  C   UNL     1      -8.238  19.789  66.255  1.00  0.00    -0.372 C  
HETATM   23  C   UNL     1      -9.103  20.434  67.309  1.00  0.00    -0.500 C  
HETATM   24  C   UNL     1      -7.614  20.636  67.335  1.00  0.00    -0.375 C  
ENDBRANCH  21  22
ENDBRANCH  20  21
ENDBRANCH  19  20
ENDBRANCH  18  19
ENDBRANCH  15  18
ENDBRANCH  11  12
ENDBRANCH  10  11
ENDBRANCH   7  10
ENDBRANCH   6   7
ENDBRANCH   4   6
ENDBRANCH   2   4
TORSDOF 11
ENDMDL
MODEL      130
REMARK 921   NORMALIZED FREE ENERGY PREDICTED BY IDOCK:   -4.17 KCAL/MOL
REMARK 922        TOTAL FREE ENERGY PREDICTED BY IDOCK:   -8.18 KCAL/MOL
REMARK 923 INTER-LIGAND FREE ENERGY PREDICTED BY IDOCK:   -7.63 KCAL/MOL
REMARK 924 INTRA-LIGAND FREE ENERGY PREDICTED BY IDOCK:   -0.56 KCAL/MOL
REMARK 927      BINDING AFFINITY PREDICTED BY RF-SCORE:    0.00 PKD
ROOT
HETATM    1  C   UNL     1     -14.369   7.198  71.499  1.00  0.00    -0.503 C  
HETATM    2  C   UNL     1     -12.908   7.084  71.942  1.00  0.00    -0.259 C  
HETATM    3  C   UNL     1     -12.046   6.656  70.752  1.00  0.00    -0.364 C  
ENDROOT
BRANCH   2   4
HETATM    4  N   UNL     1     -12.484   8.377  72.483  1.00  0.00    -0.555 NA 
HETATM    5  H   UNL     1     -11.899   8.250  73.309  1.00  0.00     0.000 HD 
BRANCH   4   6
HETATM    6  C   UNL     1     -11.810   9.230  71.492  1.00  0.00    -0.374 C  
BRANCH   6   7
HETATM    7  C   UNL     1     -12.737  10.381  71.064  1.00  0.00    -0.394 C  
HETATM    8  O   UNL     1     -13.457  10.872  72.208  1.00  0.00    -0.599 OA 
HETATM    9  H   UNL     1     -14.029  11.583  71.944  1.00  0.00     0.000 HD 
BRANCH   7  10
HETATM   10  C   UNL     1     -11.944  11.532  70.430  1.00  0.00    -0.368 C  
BRANCH  10  11
HETATM   11  O   UNL     1     -12.655  12.761  70.641  1.00  0.00    -0.267 OA 
BRANCH  11  12
HETATM   12  C   UNL     1     -12.113  13.855  70.021  1.00  0.00    -0.345 A  
HETATM   13  C   UNL     1     -12.061  14.042  68.644  1.00  0.00    -0.332 A  
HETATM   14  C   UNL     1     -11.486  15.197  68.113  1.00  0.00    -0.356 A  
HETATM   15  C   UNL     1     -10.974  16.198  68.952  1.00  0.00    -0.324 A  
HETATM   16  C   UNL     1     -11.047  16.012  70.336  1.00  0.00    -0.376 A  
HETATM   17  C   UNL     1     -11.619  14.850  70.868  1.00  0.00    -0.344 A  
BRANCH  15  18
HETATM   18  C   UNL     1     -10.354  17.443  68.364  1.00  0.00    -0.379 C  
BRANCH  18  19
HETATM   19  C   UNL     1      -8.827  17.414  68.418  1.00  0.00    -0.271 C  
BRANCH  19  20
HETATM   20  O   UNL     1      -8.291  17.501  67.095  1.00  0.00    -0.207 OA 
BRANCH  20  21
HETATM   21  C   UNL     1      -6.917  17.886  67.136  1.00  0.00    -0.180 C  
BRANCH  21  22
HETATM   22  C   UNL     1      -6.798  19.319  66.731  1.00  0.00    -0.207 C  
HETATM   23  C   UNL     1      -6.602  19.663  65.275  1.00  0.00    -0.317 C  
HETATM   24  C   UNL     1      -7.898  20.002  65.957  1.00  0.00    -0.307 C  
ENDBRANCH  21  22
ENDBRANCH  20  21
ENDBRANCH  19  20
ENDBRANCH  18  19
ENDBRANCH  15  18
ENDBRANCH  11  12
ENDBRANCH  10  11
ENDBRANCH   7  10
ENDBRANCH   6   7
ENDBRANCH   4   6
ENDBRANCH   2   4
TORSDOF 11
ENDMDL
MODEL      131
REMARK 921   NORMALIZED FREE ENERGY PREDICTED BY IDOCK:   -4.16 KCAL/MOL
REMARK 922        TOTAL FREE ENERGY PREDICTED BY IDOCK:   -8.16 KCAL/MOL
REMARK 923 INTER-LIGAND FREE ENERGY PREDICTED BY IDOCK:   -6.41 KCAL/MOL
REMARK 924 INTRA-LIGAND FREE ENERGY PREDICTED BY IDOCK:   -1.75 KCAL/MOL
REMARK 927      BINDING AFFINITY PREDICTED BY RF-SCORE:    0.00 PKD
ROOT
HETATM    1  C   UNL     1      -8.704  13.779  68.497  1.00  0.00    -0.118 C  
HETATM    2  C   UNL     1      -7.636  14.874  68.531  1.00  0.00    -0.121 C  
HETATM    3  C   UNL     1      -7.371  15.374  67.109  1.00  0.00    -0.203 C  
ENDROOT
BRANCH   2   4
HETATM    4  N   UNL     1      -8.102  15.952  69.407  1.00  0.00    -0.225 NA 
HETATM    5  H   UNL     1      -7.782  16.859  69.068  1.00  0.00     0.000 HD 
BRANCH   4   6
HETATM    6  C   UNL     1      -9.560  15.953  69.602  1.00  0.00    -0.177 C  
BRANCH   6   7
HETATM    7  C   UNL     1     -10.170  17.251  69.044  1.00  0.00    -0.318 C  
HETATM    8  O   UNL     1      -9.125  18.206  68.791  1.00  0.00    -0.298 OA 
HETATM    9  H   UNL     1      -9.502  19.007  68.446  1.00  0.00     0.000 HD 
BRANCH   7  10
HETATM   10  C   UNL     1     -10.946  16.990  67.746  1.00  0.00    -0.199 C  
BRANCH  10  11
HETATM   11  O   UNL     1     -11.609  15.721  67.844  1.00  0.00    -0.283 OA 
BRANCH  11  12
HETATM   12  C   UNL     1     -11.503  14.926  66.735  1.00  0.00    -0.301 A  
HETATM   13  C   UNL     1     -10.599  15.129  65.697  1.00  0.00    -0.370 A  
HETATM   14  C   UNL     1     -10.574  14.258  64.607  1.00  0.00    -0.364 A  
HETATM   15  C   UNL     1     -11.435  13.152  64.548  1.00  0.00    -0.390 A  
HETATM   16  C   UNL     1     -12.328  12.943  65.605  1.00  0.00    -0.482 A  
HETATM   17  C   UNL     1     -12.358  13.822  66.694  1.00  0.00    -0.403 A  
BRANCH  15  18
HETATM   18  C   UNL     1     -11.397  12.217  63.364  1.00  0.00    -0.495 C  
BRANCH  18  19
HETATM   19  C   UNL     1     -10.060  11.486  63.241  1.00  0.00    -0.406 C  
BRANCH  19  20
HETATM   20  O   UNL     1     -10.019  10.389  64.158  1.00  0.00    -0.328 OA 
BRANCH  20  21
HETATM   21  C   UNL     1      -8.892  10.505  65.027  1.00  0.00    -0.191 C  
BRANCH  21  22
HETATM   22  C   UNL     1      -9.298  10.108  66.409  1.00  0.00    -0.209 C  
HETATM   23  C   UNL     1     -10.764  10.010  66.751  1.00  0.00    -0.172 C  
HETATM   24  C   UNL     1      -9.926   8.764  66.679  1.00  0.00    -0.355 C  
ENDBRANCH  21  22
ENDBRANCH  20  21
ENDBRANCH  19  20
ENDBRANCH  18  19
ENDBRANCH  15  18
ENDBRANCH  11  12
ENDBRANCH  10  11
ENDBRANCH   7  10
ENDBRANCH   6   7
ENDBRANCH   4   6
ENDBRANCH   2   4
TORSDOF 11
ENDMDL
MODEL      132
REMARK 921   NORMALIZED FREE ENERGY PREDICTED BY IDOCK:   -4.14 KCAL/MOL
REMARK 922        TOTAL FREE ENERGY PREDICTED BY IDOCK:   -8.12 KCAL/MOL
REMARK 923 INTER-LIGAND FREE ENERGY PREDICTED BY IDOCK:   -6.53 KCAL/MOL
REMARK 924 INTRA-LIGAND FREE ENERGY PREDICTED BY IDOCK:   -1.59 KCAL/MOL
REMARK 927      BINDING AFFINITY PREDICTED BY RF-SCORE:    0.00 PKD
ROOT
HETATM    1  C   UNL     1      -6.345  12.690  69.254  1.00  0.00    -0.109 C  
HETATM    2  C   UNL     1      -7.184  11.536  68.700  1.00  0.00    -0.102 C  
HETATM    3  C   UNL     1      -6.262  10.495  68.061  1.00  0.00    -0.054 C  
ENDROOT
BRANCH   2   4
HETATM    4  N   UNL     1      -7.970  10.964  69.797  1.00  0.00    -0.334 NA 
HETATM    5  H   UNL     1      -8.959  11.184  69.685  1.00  0.00     0.000 HD 
BRANCH   4   6
HETATM    6  C   UNL     1      -7.771   9.516  69.962  1.00  0.00    -0.142 C  
BRANCH   6   7
HETATM    7  C   UNL     1      -9.106   8.832  70.305  1.00  0.00    -0.170 C  
HETATM    8  O   UNL     1      -9.662   9.425  71.491  1.00  0.00    -0.226 OA 
HETATM    9  H   UNL     1     -10.486   9.003  71.702  1.00  0.00     0.000 HD 
BRANCH   7  10
HETATM   10  C   UNL     1     -10.112   8.960  69.153  1.00  0.00    -0.197 C  
BRANCH  10  11
HETATM   11  O   UNL     1      -9.427   8.751  67.909  1.00  0.00    -0.140 OA 
BRANCH  11  12
HETATM   12  C   UNL     1      -9.820   9.573  66.887  1.00  0.00    -0.204 A  
HETATM   13  C   UNL     1     -10.748  10.603  67.010  1.00  0.00    -0.317 A  
HETATM   14  C   UNL     1     -11.080  11.385  65.903  1.00  0.00    -0.225 A  
HETATM   15  C   UNL     1     -10.471  11.167  64.658  1.00  0.00    -0.400 A  
HETATM   16  C   UNL     1      -9.525  10.143  64.547  1.00  0.00    -0.364 A  
HETATM   17  C   UNL     1      -9.197   9.355  65.657  1.00  0.00    -0.285 A  
BRANCH  15  18
HETATM   18  C   UNL     1     -10.839  12.020  63.469  1.00  0.00    -0.509 C  
BRANCH  18  19
HETATM   19  C   UNL     1     -12.319  12.405  63.463  1.00  0.00    -0.546 C  
BRANCH  19  20
HETATM   20  O   UNL     1     -12.451  13.828  63.438  1.00  0.00    -0.817 OA 
BRANCH  20  21
HETATM   21  C   UNL     1     -12.477  14.352  64.766  1.00  0.00    -0.357 C  
BRANCH  21  22
HETATM   22  C   UNL     1     -11.323  15.285  64.946  1.00  0.00    -0.387 C  
HETATM   23  C   UNL     1     -10.907  15.687  66.339  1.00  0.00    -0.252 C  
HETATM   24  C   UNL     1     -10.015  14.800  65.518  1.00  0.00    -0.390 C  
ENDBRANCH  21  22
ENDBRANCH  20  21
ENDBRANCH  19  20
ENDBRANCH  18  19
ENDBRANCH  15  18
ENDBRANCH  11  12
ENDBRANCH  10  11
ENDBRANCH   7  10
ENDBRANCH   6   7
ENDBRANCH   4   6
ENDBRANCH   2   4
TORSDOF 11
ENDMDL
MODEL      133
REMARK 921   NORMALIZED FREE ENERGY PREDICTED BY IDOCK:   -4.12 KCAL/MOL
REMARK 922        TOTAL FREE ENERGY PREDICTED BY IDOCK:   -8.09 KCAL/MOL
REMARK 923 INTER-LIGAND FREE ENERGY PREDICTED BY IDOCK:   -6.68 KCAL/MOL
REMARK 924 INTRA-LIGAND FREE ENERGY PREDICTED BY IDOCK:   -1.41 KCAL/MOL
REMARK 927      BINDING AFFINITY PREDICTED BY RF-SCORE:    0.00 PKD
ROOT
HETATM    1  C   UNL     1     -12.925   6.609  71.908  1.00  0.00    -0.163 C  
HETATM    2  C   UNL     1     -13.416   7.952  71.363  1.00  0.00    -0.244 C  
HETATM    3  C   UNL     1     -13.986   8.791  72.510  1.00  0.00    -0.430 C  
ENDROOT
BRANCH   2   4
HETATM    4  N   UNL     1     -12.294   8.625  70.704  1.00  0.00    -0.482 NA 
HETATM    5  H   UNL     1     -12.624   9.219  69.944  1.00  0.00     0.000 HD 
BRANCH   4   6
HETATM    6  C   UNL     1     -11.447   9.389  71.633  1.00  0.00    -0.393 C  
BRANCH   6   7
HETATM    7  C   UNL     1      -9.965   9.043  71.408  1.00  0.00    -0.318 C  
HETATM    8  O   UNL     1      -9.626   7.862  72.156  1.00  0.00    -0.170 OA 
HETATM    9  H   UNL     1      -8.711   7.649  72.016  1.00  0.00     0.000 HD 
BRANCH   7  10
HETATM   10  C   UNL     1      -9.665   8.807  69.921  1.00  0.00    -0.178 C  
BRANCH  10  11
HETATM   11  O   UNL     1      -9.020   9.971  69.385  1.00  0.00    -0.169 OA 
BRANCH  11  12
HETATM   12  C   UNL     1      -9.609  10.494  68.265  1.00  0.00    -0.158 A  
HETATM   13  C   UNL     1     -10.905  10.999  68.213  1.00  0.00    -0.261 A  
HETATM   14  C   UNL     1     -11.412  11.511  67.018  1.00  0.00    -0.290 A  
HETATM   15  C   UNL     1     -10.622  11.551  65.859  1.00  0.00    -0.318 A  
HETATM   16  C   UNL     1      -9.314  11.059  65.924  1.00  0.00    -0.229 A  
HETATM   17  C   UNL     1      -8.809  10.540  67.121  1.00  0.00    -0.140 A  
BRANCH  15  18
HETATM   18  C   UNL     1     -11.183  12.107  64.572  1.00  0.00    -0.385 C  
BRANCH  18  19
HETATM   19  C   UNL     1     -12.591  12.676  64.748  1.00  0.00    -0.454 C  
BRANCH  19  20
HETATM   20  O   UNL     1     -12.538  14.105  64.777  1.00  0.00    -0.608 OA 
BRANCH  20  21
HETATM   21  C   UNL     1     -11.223  14.563  64.458  1.00  0.00    -0.294 C  
BRANCH  21  22
HETATM   22  C   UNL     1     -10.767  15.514  65.516  1.00  0.00    -0.395 C  
HETATM   23  C   UNL     1     -11.090  15.225  66.961  1.00  0.00    -0.305 C  
HETATM   24  C   UNL     1      -9.669  15.137  66.478  1.00  0.00    -0.290 C  
ENDBRANCH  21  22
ENDBRANCH  20  21
ENDBRANCH  19  20
ENDBRANCH  18  19
ENDBRANCH  15  18
ENDBRANCH  11  12
ENDBRANCH  10  11
ENDBRANCH   7  10
ENDBRANCH   6   7
ENDBRANCH   4   6
ENDBRANCH   2   4
TORSDOF 11
ENDMDL
MODEL      134
REMARK 921   NORMALIZED FREE ENERGY PREDICTED BY IDOCK:   -4.11 KCAL/MOL
REMARK 922        TOTAL FREE ENERGY PREDICTED BY IDOCK:   -8.07 KCAL/MOL
REMARK 923 INTER-LIGAND FREE ENERGY PREDICTED BY IDOCK:   -6.91 KCAL/MOL
REMARK 924 INTRA-LIGAND FREE ENERGY PREDICTED BY IDOCK:   -1.16 KCAL/MOL
REMARK 927      BINDING AFFINITY PREDICTED BY RF-SCORE:    0.00 PKD
ROOT
HETATM    1  C   UNL     1     -10.367  19.948  68.260  1.00  0.00    -0.526 C  
HETATM    2  C   UNL     1      -9.746  19.693  66.884  1.00  0.00    -0.369 C  
HETATM    3  C   UNL     1     -10.780  19.990  65.795  1.00  0.00    -0.357 C  
ENDROOT
BRANCH   2   4
HETATM    4  N   UNL     1      -8.556  20.536  66.747  1.00  0.00    -0.545 NA 
HETATM    5  H   UNL     1      -8.365  21.035  67.615  1.00  0.00     0.000 HD 
BRANCH   4   6
HETATM    6  C   UNL     1      -7.367  19.795  66.298  1.00  0.00    -0.282 C  
BRANCH   6   7
HETATM    7  C   UNL     1      -6.311  19.757  67.417  1.00  0.00    -0.190 C  
HETATM    8  O   UNL     1      -6.877  20.275  68.633  1.00  0.00    -0.290 OA 
HETATM    9  H   UNL     1      -6.224  20.251  69.323  1.00  0.00     0.000 HD 
BRANCH   7  10
HETATM   10  C   UNL     1      -5.803  18.329  67.659  1.00  0.00    -0.156 C  
BRANCH  10  11
HETATM   11  O   UNL     1      -6.528  17.756  68.757  1.00  0.00    -0.205 OA 
BRANCH  11  12
HETATM   12  C   UNL     1      -7.278  16.654  68.444  1.00  0.00    -0.173 A  
HETATM   13  C   UNL     1      -6.784  15.508  67.829  1.00  0.00    -0.186 A  
HETATM   14  C   UNL     1      -7.635  14.437  67.552  1.00  0.00    -0.212 A  
HETATM   15  C   UNL     1      -8.991  14.484  67.908  1.00  0.00    -0.187 A  
HETATM   16  C   UNL     1      -9.477  15.633  68.543  1.00  0.00    -0.200 A  
HETATM   17  C   UNL     1      -8.623  16.708  68.815  1.00  0.00    -0.261 A  
BRANCH  15  18
HETATM   18  C   UNL     1      -9.902  13.320  67.602  1.00  0.00    -0.230 C  
BRANCH  18  19
HETATM   19  C   UNL     1     -11.341  13.571  68.052  1.00  0.00    -0.285 C  
BRANCH  19  20
HETATM   20  O   UNL     1     -12.247  12.869  67.197  1.00  0.00    -0.368 OA 
BRANCH  20  21
HETATM   21  C   UNL     1     -11.535  12.195  66.159  1.00  0.00    -0.371 C  
BRANCH  21  22
HETATM   22  C   UNL     1     -12.166  12.518  64.844  1.00  0.00    -0.534 C  
HETATM   23  C   UNL     1     -11.906  13.861  64.208  1.00  0.00    -0.441 C  
HETATM   24  C   UNL     1     -11.337  12.616  63.588  1.00  0.00    -0.544 C  
ENDBRANCH  21  22
ENDBRANCH  20  21
ENDBRANCH  19  20
ENDBRANCH  18  19
ENDBRANCH  15  18
ENDBRANCH  11  12
ENDBRANCH  10  11
ENDBRANCH   7  10
ENDBRANCH   6   7
ENDBRANCH   4   6
ENDBRANCH   2   4
TORSDOF 11
ENDMDL
MODEL      135
REMARK 921   NORMALIZED FREE ENERGY PREDICTED BY IDOCK:   -4.10 KCAL/MOL
REMARK 922        TOTAL FREE ENERGY PREDICTED BY IDOCK:   -8.06 KCAL/MOL
REMARK 923 INTER-LIGAND FREE ENERGY PREDICTED BY IDOCK:   -7.07 KCAL/MOL
REMARK 924 INTRA-LIGAND FREE ENERGY PREDICTED BY IDOCK:   -0.99 KCAL/MOL
REMARK 927      BINDING AFFINITY PREDICTED BY RF-SCORE:    0.00 PKD
ROOT
HETATM    1  C   UNL     1     -10.829   6.755  67.264  1.00  0.00    -0.443 C  
HETATM    2  C   UNL     1     -10.325   8.174  66.986  1.00  0.00    -0.333 C  
HETATM    3  C   UNL     1      -9.579   8.700  68.215  1.00  0.00    -0.160 C  
ENDROOT
BRANCH   2   4
HETATM    4  N   UNL     1      -9.463   8.137  65.802  1.00  0.00    -0.432 NA 
HETATM    5  H   UNL     1     -10.008   7.935  64.964  1.00  0.00     0.000 HD 
BRANCH   4   6
HETATM    6  C   UNL     1      -8.666   9.360  65.625  1.00  0.00    -0.154 C  
BRANCH   6   7
HETATM    7  C   UNL     1      -8.888   9.939  64.216  1.00  0.00    -0.225 C  
HETATM    8  O   UNL     1      -8.941   8.869  63.257  1.00  0.00    -0.431 OA 
HETATM    9  H   UNL     1      -9.078   9.228  62.388  1.00  0.00     0.000 HD 
BRANCH   7  10
HETATM   10  C   UNL     1     -10.188  10.752  64.145  1.00  0.00    -0.344 C  
BRANCH  10  11
HETATM   11  O   UNL     1     -10.535  11.196  65.464  1.00  0.00    -0.262 OA 
BRANCH  11  12
HETATM   12  C   UNL     1     -10.291  12.520  65.712  1.00  0.00    -0.265 A  
HETATM   13  C   UNL     1      -9.497  13.000  66.748  1.00  0.00    -0.250 A  
HETATM   14  C   UNL     1      -9.312  14.374  66.913  1.00  0.00    -0.269 A  
HETATM   15  C   UNL     1      -9.899  15.291  66.028  1.00  0.00    -0.357 A  
HETATM   16  C   UNL     1     -10.681  14.800  64.977  1.00  0.00    -0.452 A  
HETATM   17  C   UNL     1     -10.871  13.422  64.817  1.00  0.00    -0.387 A  
BRANCH  15  18
HETATM   18  C   UNL     1      -9.691  16.774  66.218  1.00  0.00    -0.318 C  
BRANCH  18  19
HETATM   19  C   UNL     1      -8.219  17.174  66.114  1.00  0.00    -0.234 C  
BRANCH  19  20
HETATM   20  O   UNL     1      -7.857  17.988  67.232  1.00  0.00    -0.209 OA 
BRANCH  20  21
HETATM   21  C   UNL     1      -8.978  18.183  68.094  1.00  0.00    -0.290 C  
BRANCH  21  22
HETATM   22  C   UNL     1      -9.243  19.647  68.230  1.00  0.00    -0.412 C  
HETATM   23  C   UNL     1      -8.323  20.632  67.551  1.00  0.00    -0.256 C  
HETATM   24  C   UNL     1      -9.733  20.460  67.059  1.00  0.00    -0.588 C  
ENDBRANCH  21  22
ENDBRANCH  20  21
ENDBRANCH  19  20
ENDBRANCH  18  19
ENDBRANCH  15  18
ENDBRANCH  11  12
ENDBRANCH  10  11
ENDBRANCH   7  10
ENDBRANCH   6   7
ENDBRANCH   4   6
ENDBRANCH   2   4
TORSDOF 11
ENDMDL
MODEL      136
REMARK 921   NORMALIZED FREE ENERGY PREDICTED BY IDOCK:   -4.10 KCAL/MOL
REMARK 922        TOTAL FREE ENERGY PREDICTED BY IDOCK:   -8.06 KCAL/MOL
REMARK 923 INTER-LIGAND FREE ENERGY PREDICTED BY IDOCK:   -7.64 KCAL/MOL
REMARK 924 INTRA-LIGAND FREE ENERGY PREDICTED BY IDOCK:   -0.43 KCAL/MOL
REMARK 927      BINDING AFFINITY PREDICTED BY RF-SCORE:    0.00 PKD
ROOT
HETATM    1  C   UNL     1      -9.627   7.539  73.608  1.00  0.00    -0.347 C  
HETATM    2  C   UNL     1     -10.691   6.864  72.740  1.00  0.00    -0.255 C  
HETATM    3  C   UNL     1     -10.785   5.381  73.108  1.00  0.00    -0.309 C  
ENDROOT
BRANCH   2   4
HETATM    4  N   UNL     1     -11.966   7.556  72.945  1.00  0.00    -0.574 NA 
HETATM    5  H   UNL     1     -11.824   8.437  73.439  1.00  0.00     0.000 HD 
BRANCH   4   6
HETATM    6  C   UNL     1     -12.719   7.770  71.700  1.00  0.00    -0.335 C  
BRANCH   6   7
HETATM    7  C   UNL     1     -13.552   9.060  71.798  1.00  0.00    -0.413 C  
HETATM    8  O   UNL     1     -14.251   9.090  73.054  1.00  0.00    -1.107 OA 
HETATM    9  H   UNL     1     -14.764   9.887  73.114  1.00  0.00     0.000 HD 
BRANCH   7  10
HETATM   10  C   UNL     1     -12.666  10.308  71.679  1.00  0.00    -0.456 C  
BRANCH  10  11
HETATM   11  O   UNL     1     -13.262  11.216  70.740  1.00  0.00    -0.102 OA 
BRANCH  11  12
HETATM   12  C   UNL     1     -12.381  12.044  70.098  1.00  0.00    -0.155 A  
HETATM   13  C   UNL     1     -11.562  11.664  69.040  1.00  0.00    -0.379 A  
HETATM   14  C   UNL     1     -10.697  12.588  68.454  1.00  0.00    -0.259 A  
HETATM   15  C   UNL     1     -10.654  13.918  68.899  1.00  0.00    -0.228 A  
HETATM   16  C   UNL     1     -11.495  14.298  69.951  1.00  0.00    -0.301 A  
HETATM   17  C   UNL     1     -12.358  13.368  70.542  1.00  0.00    -0.401 A  
BRANCH  15  18
HETATM   18  C   UNL     1      -9.713  14.908  68.257  1.00  0.00    -0.215 C  
BRANCH  18  19
HETATM   19  C   UNL     1      -9.523  16.166  69.105  1.00  0.00    -0.251 C  
BRANCH  19  20
HETATM   20  O   UNL     1      -8.247  16.749  68.831  1.00  0.00    -0.244 OA 
BRANCH  20  21
HETATM   21  C   UNL     1      -8.392  18.119  68.456  1.00  0.00    -0.301 C  
BRANCH  21  22
HETATM   22  C   UNL     1      -7.042  18.758  68.402  1.00  0.00    -0.288 C  
HETATM   23  C   UNL     1      -6.921  20.195  67.958  1.00  0.00    -0.325 C  
HETATM   24  C   UNL     1      -6.649  19.827  69.389  1.00  0.00    -0.390 C  
ENDBRANCH  21  22
ENDBRANCH  20  21
ENDBRANCH  19  20
ENDBRANCH  18  19
ENDBRANCH  15  18
ENDBRANCH  11  12
ENDBRANCH  10  11
ENDBRANCH   7  10
ENDBRANCH   6   7
ENDBRANCH   4   6
ENDBRANCH   2   4
TORSDOF 11
ENDMDL
MODEL      137
REMARK 921   NORMALIZED FREE ENERGY PREDICTED BY IDOCK:   -4.10 KCAL/MOL
REMARK 922        TOTAL FREE ENERGY PREDICTED BY IDOCK:   -8.06 KCAL/MOL
REMARK 923 INTER-LIGAND FREE ENERGY PREDICTED BY IDOCK:   -6.96 KCAL/MOL
REMARK 924 INTRA-LIGAND FREE ENERGY PREDICTED BY IDOCK:   -1.10 KCAL/MOL
REMARK 927      BINDING AFFINITY PREDICTED BY RF-SCORE:    0.00 PKD
ROOT
HETATM    1  C   UNL     1      -8.177  20.294  67.276  1.00  0.00    -0.393 C  
HETATM    2  C   UNL     1      -9.602  19.735  67.276  1.00  0.00    -0.359 C  
HETATM    3  C   UNL     1     -10.338  20.214  66.023  1.00  0.00    -0.483 C  
ENDROOT
BRANCH   2   4
HETATM    4  N   UNL     1      -9.528  18.273  67.336  1.00  0.00    -0.263 NA 
HETATM    5  H   UNL     1      -9.581  17.947  68.301  1.00  0.00     0.000 HD 
BRANCH   4   6
HETATM    6  C   UNL     1     -10.539  17.604  66.502  1.00  0.00    -0.207 C  
BRANCH   6   7
HETATM    7  C   UNL     1      -9.877  16.520  65.633  1.00  0.00    -0.152 C  
HETATM    8  O   UNL     1      -8.468  16.468  65.915  1.00  0.00    -0.420 OA 
HETATM    9  H   UNL     1      -8.060  15.799  65.378  1.00  0.00     0.000 HD 
BRANCH   7  10
HETATM   10  C   UNL     1     -10.499  15.141  65.889  1.00  0.00    -0.336 C  
BRANCH  10  11
HETATM   11  O   UNL     1      -9.796  14.504  66.966  1.00  0.00    -0.240 OA 
BRANCH  11  12
HETATM   12  C   UNL     1     -10.420  14.569  68.182  1.00  0.00    -0.239 A  
HETATM   13  C   UNL     1      -9.954  15.292  69.275  1.00  0.00    -0.251 A  
HETATM   14  C   UNL     1     -10.668  15.293  70.474  1.00  0.00    -0.247 A  
HETATM   15  C   UNL     1     -11.876  14.589  70.593  1.00  0.00    -0.367 A  
HETATM   16  C   UNL     1     -12.348  13.879  69.484  1.00  0.00    -0.275 A  
HETATM   17  C   UNL     1     -11.628  13.875  68.284  1.00  0.00    -0.372 A  
BRANCH  15  18
HETATM   18  C   UNL     1     -12.639  14.597  71.896  1.00  0.00    -0.409 C  
BRANCH  18  19
HETATM   19  C   UNL     1     -13.681  13.480  71.968  1.00  0.00    -0.478 C  
BRANCH  19  20
HETATM   20  O   UNL     1     -13.109  12.320  72.576  1.00  0.00    -0.254 OA 
BRANCH  20  21
HETATM   21  C   UNL     1     -13.270  11.181  71.729  1.00  0.00    -0.381 C  
BRANCH  21  22
HETATM   22  C   UNL     1     -11.932  10.764  71.209  1.00  0.00    -0.286 C  
HETATM   23  C   UNL     1     -11.508   9.322  71.329  1.00  0.00    -0.418 C  
HETATM   24  C   UNL     1     -11.811   9.904  69.977  1.00  0.00    -0.131 C  
ENDBRANCH  21  22
ENDBRANCH  20  21
ENDBRANCH  19  20
ENDBRANCH  18  19
ENDBRANCH  15  18
ENDBRANCH  11  12
ENDBRANCH  10  11
ENDBRANCH   7  10
ENDBRANCH   6   7
ENDBRANCH   4   6
ENDBRANCH   2   4
TORSDOF 11
ENDMDL
MODEL      138
REMARK 921   NORMALIZED FREE ENERGY PREDICTED BY IDOCK:   -4.10 KCAL/MOL
REMARK 922        TOTAL FREE ENERGY PREDICTED BY IDOCK:   -8.05 KCAL/MOL
REMARK 923 INTER-LIGAND FREE ENERGY PREDICTED BY IDOCK:   -7.13 KCAL/MOL
REMARK 924 INTRA-LIGAND FREE ENERGY PREDICTED BY IDOCK:   -0.92 KCAL/MOL
REMARK 927      BINDING AFFINITY PREDICTED BY RF-SCORE:    0.00 PKD
ROOT
HETATM    1  C   UNL     1     -10.345   8.821  71.465  1.00  0.00    -0.374 C  
HETATM    2  C   UNL     1     -10.920   7.659  70.650  1.00  0.00    -0.249 C  
HETATM    3  C   UNL     1     -12.251   7.217  71.262  1.00  0.00    -0.403 C  
ENDROOT
BRANCH   2   4
HETATM    4  N   UNL     1     -11.081   8.100  69.262  1.00  0.00    -0.434 NA 
HETATM    5  H   UNL     1     -11.965   8.595  69.140  1.00  0.00     0.000 HD 
BRANCH   4   6
HETATM    6  C   UNL     1      -9.956   8.913  68.776  1.00  0.00    -0.184 C  
BRANCH   6   7
HETATM    7  C   UNL     1     -10.464  10.004  67.816  1.00  0.00    -0.234 C  
HETATM    8  O   UNL     1     -11.854  10.266  68.076  1.00  0.00    -0.708 OA 
HETATM    9  H   UNL     1     -12.167  10.939  67.484  1.00  0.00     0.000 HD 
BRANCH   7  10
HETATM   10  C   UNL     1      -9.663  11.304  67.973  1.00  0.00    -0.179 C  
BRANCH  10  11
HETATM   11  O   UNL     1      -9.816  12.092  66.784  1.00  0.00    -0.201 OA 
BRANCH  11  12
HETATM   12  C   UNL     1      -9.224  13.326  66.828  1.00  0.00    -0.233 A  
HETATM   13  C   UNL     1      -9.784  14.493  66.318  1.00  0.00    -0.330 A  
HETATM   14  C   UNL     1      -9.095  15.703  66.415  1.00  0.00    -0.355 A  
HETATM   15  C   UNL     1      -7.845  15.772  67.048  1.00  0.00    -0.271 A  
HETATM   16  C   UNL     1      -7.297  14.598  67.576  1.00  0.00    -0.220 A  
HETATM   17  C   UNL     1      -7.986  13.384  67.472  1.00  0.00    -0.186 A  
BRANCH  15  18
HETATM   18  C   UNL     1      -7.111  17.087  67.146  1.00  0.00    -0.210 C  
BRANCH  18  19
HETATM   19  C   UNL     1      -7.016  17.803  65.798  1.00  0.00    -0.164 C  
BRANCH  19  20
HETATM   20  O   UNL     1      -7.630  19.092  65.888  1.00  0.00    -0.381 OA 
BRANCH  20  21
HETATM   21  C   UNL     1      -8.072  19.343  67.222  1.00  0.00    -0.269 C  
BRANCH  21  22
HETATM   22  C   UNL     1      -9.421  19.985  67.177  1.00  0.00    -0.514 C  
HETATM   23  C   UNL     1     -10.655  19.118  67.224  1.00  0.00    -0.573 C  
HETATM   24  C   UNL     1     -10.314  20.001  68.392  1.00  0.00    -0.465 C  
ENDBRANCH  21  22
ENDBRANCH  20  21
ENDBRANCH  19  20
ENDBRANCH  18  19
ENDBRANCH  15  18
ENDBRANCH  11  12
ENDBRANCH  10  11
ENDBRANCH   7  10
ENDBRANCH   6   7
ENDBRANCH   4   6
ENDBRANCH   2   4
TORSDOF 11
ENDMDL
MODEL      139
REMARK 921   NORMALIZED FREE ENERGY PREDICTED BY IDOCK:   -4.10 KCAL/MOL
REMARK 922        TOTAL FREE ENERGY PREDICTED BY IDOCK:   -8.05 KCAL/MOL
REMARK 923 INTER-LIGAND FREE ENERGY PREDICTED BY IDOCK:   -6.71 KCAL/MOL
REMARK 924 INTRA-LIGAND FREE ENERGY PREDICTED BY IDOCK:   -1.34 KCAL/MOL
REMARK 927      BINDING AFFINITY PREDICTED BY RF-SCORE:    0.00 PKD
ROOT
HETATM    1  C   UNL     1      -9.067  15.209  66.432  1.00  0.00    -0.331 C  
HETATM    2  C   UNL     1     -10.364  15.997  66.232  1.00  0.00    -0.321 C  
HETATM    3  C   UNL     1     -10.987  15.622  64.886  1.00  0.00    -0.447 C  
ENDROOT
BRANCH   2   4
HETATM    4  N   UNL     1     -11.265  15.699  67.349  1.00  0.00    -0.271 NA 
HETATM    5  H   UNL     1     -11.173  14.726  67.638  1.00  0.00     0.000 HD 
BRANCH   4   6
HETATM    6  C   UNL     1     -11.091  16.605  68.495  1.00  0.00    -0.301 C  
BRANCH   6   7
HETATM    7  C   UNL     1     -11.602  15.936  69.783  1.00  0.00    -0.338 C  
HETATM    8  O   UNL     1     -13.039  15.979  69.812  1.00  0.00    -0.488 OA 
HETATM    9  H   UNL     1     -13.354  15.566  70.607  1.00  0.00     0.000 HD 
BRANCH   7  10
HETATM   10  C   UNL     1     -11.135  14.477  69.879  1.00  0.00    -0.163 C  
BRANCH  10  11
HETATM   11  O   UNL     1     -12.196  13.617  69.439  1.00  0.00    -0.324 OA 
BRANCH  11  12
HETATM   12  C   UNL     1     -11.788  12.458  68.835  1.00  0.00    -0.301 A  
HETATM   13  C   UNL     1     -11.519  12.323  67.477  1.00  0.00    -0.414 A  
HETATM   14  C   UNL     1     -11.108  11.094  66.960  1.00  0.00    -0.339 A  
HETATM   15  C   UNL     1     -10.933   9.982  67.798  1.00  0.00    -0.310 A  
HETATM   16  C   UNL     1     -11.187  10.130  69.166  1.00  0.00    -0.234 A  
HETATM   17  C   UNL     1     -11.606  11.362  69.682  1.00  0.00    -0.399 A  
BRANCH  15  18
HETATM   18  C   UNL     1     -10.488   8.658  67.227  1.00  0.00    -0.360 C  
BRANCH  18  19
HETATM   19  C   UNL     1      -8.980   8.442  67.364  1.00  0.00    -0.134 C  
BRANCH  19  20
HETATM   20  O   UNL     1      -8.670   8.008  68.691  1.00  0.00    -0.131 OA 
BRANCH  20  21
HETATM   21  C   UNL     1      -9.252   6.729  68.948  1.00  0.00    -0.131 C  
BRANCH  21  22
HETATM   22  C   UNL     1      -9.978   6.776  70.253  1.00  0.00    -0.192 C  
HETATM   23  C   UNL     1     -11.472   6.563  70.277  1.00  0.00    -0.474 C  
HETATM   24  C   UNL     1     -10.557   5.525  70.865  1.00  0.00    -0.309 C  
ENDBRANCH  21  22
ENDBRANCH  20  21
ENDBRANCH  19  20
ENDBRANCH  18  19
ENDBRANCH  15  18
ENDBRANCH  11  12
ENDBRANCH  10  11
ENDBRANCH   7  10
ENDBRANCH   6   7
ENDBRANCH   4   6
ENDBRANCH   2   4
TORSDOF 11
ENDMDL
MODEL      140
REMARK 921   NORMALIZED FREE ENERGY PREDICTED BY IDOCK:   -4.09 KCAL/MOL
REMARK 922        TOTAL FREE ENERGY PREDICTED BY IDOCK:   -8.05 KCAL/MOL
REMARK 923 INTER-LIGAND FREE ENERGY PREDICTED BY IDOCK:   -7.27 KCAL/MOL
REMARK 924 INTRA-LIGAND FREE ENERGY PREDICTED BY IDOCK:   -0.78 KCAL/MOL
REMARK 927      BINDING AFFINITY PREDICTED BY RF-SCORE:    0.00 PKD
ROOT
HETATM    1  C   UNL     1      -9.891   4.236  65.852  1.00  0.00    -0.230 C  
HETATM    2  C   UNL     1      -8.947   4.073  67.046  1.00  0.00    -0.132 C  
HETATM    3  C   UNL     1      -7.507   4.325  66.596  1.00  0.00    -0.081 C  
ENDROOT
BRANCH   2   4
HETATM    4  N   UNL     1      -9.360   5.008  68.095  1.00  0.00    -0.120 NA 
HETATM    5  H   UNL     1     -10.135   5.590  67.778  1.00  0.00     0.000 HD 
BRANCH   4   6
HETATM    6  C   UNL     1      -9.690   4.347  69.367  1.00  0.00    -0.197 C  
BRANCH   6   7
HETATM    7  C   UNL     1      -8.916   5.003  70.524  1.00  0.00    -0.125 C  
HETATM    8  O   UNL     1      -7.687   5.560  70.027  1.00  0.00    -0.075 OA 
HETATM    9  H   UNL     1      -7.209   5.965  70.742  1.00  0.00     0.000 HD 
BRANCH   7  10
HETATM   10  C   UNL     1      -9.742   6.110  71.194  1.00  0.00    -0.176 C  
BRANCH  10  11
HETATM   11  O   UNL     1      -9.771   7.257  70.332  1.00  0.00    -0.173 OA 
BRANCH  11  12
HETATM   12  C   UNL     1     -10.672   8.224  70.688  1.00  0.00    -0.220 A  
HETATM   13  C   UNL     1     -10.788   9.466  70.071  1.00  0.00    -0.271 A  
HETATM   14  C   UNL     1     -11.743  10.383  70.511  1.00  0.00    -0.434 A  
HETATM   15  C   UNL     1     -12.617  10.065  71.561  1.00  0.00    -0.525 A  
HETATM   16  C   UNL     1     -12.508   8.807  72.164  1.00  0.00    -0.460 A  
HETATM   17  C   UNL     1     -11.545   7.890  71.726  1.00  0.00    -0.321 A  
BRANCH  15  18
HETATM   18  C   UNL     1     -13.646  11.066  72.028  1.00  0.00    -0.147 C  
BRANCH  18  19
HETATM   19  C   UNL     1     -13.209  12.510  71.778  1.00  0.00    -0.344 C  
BRANCH  19  20
HETATM   20  O   UNL     1     -13.788  13.370  72.762  1.00  0.00    -0.720 OA 
BRANCH  20  21
HETATM   21  C   UNL     1     -14.237  14.586  72.161  1.00  0.00    -0.531 C  
BRANCH  21  22
HETATM   22  C   UNL     1     -13.433  15.724  72.700  1.00  0.00    -0.624 C  
HETATM   23  C   UNL     1     -12.577  15.512  73.924  1.00  0.00    -0.767 C  
HETATM   24  C   UNL     1     -11.929  15.735  72.587  1.00  0.00    -0.597 C  
ENDBRANCH  21  22
ENDBRANCH  20  21
ENDBRANCH  19  20
ENDBRANCH  18  19
ENDBRANCH  15  18
ENDBRANCH  11  12
ENDBRANCH  10  11
ENDBRANCH   7  10
ENDBRANCH   6   7
ENDBRANCH   4   6
ENDBRANCH   2   4
TORSDOF 11
ENDMDL
MODEL      141
REMARK 921   NORMALIZED FREE ENERGY PREDICTED BY IDOCK:   -4.09 KCAL/MOL
REMARK 922        TOTAL FREE ENERGY PREDICTED BY IDOCK:   -8.05 KCAL/MOL
REMARK 923 INTER-LIGAND FREE ENERGY PREDICTED BY IDOCK:   -6.37 KCAL/MOL
REMARK 924 INTRA-LIGAND FREE ENERGY PREDICTED BY IDOCK:   -1.68 KCAL/MOL
REMARK 927      BINDING AFFINITY PREDICTED BY RF-SCORE:    0.00 PKD
ROOT
HETATM    1  C   UNL     1     -10.549  12.615  64.249  1.00  0.00    -0.408 C  
HETATM    2  C   UNL     1     -10.977  13.396  65.494  1.00  0.00    -0.283 C  
HETATM    3  C   UNL     1     -12.452  13.117  65.790  1.00  0.00    -0.441 C  
ENDROOT
BRANCH   2   4
HETATM    4  N   UNL     1     -10.115  12.999  66.610  1.00  0.00    -0.246 NA 
HETATM    5  H   UNL     1     -10.161  13.683  67.364  1.00  0.00     0.000 HD 
BRANCH   4   6
HETATM    6  C   UNL     1     -10.401  11.647  67.114  1.00  0.00    -0.217 C  
BRANCH   6   7
HETATM    7  C   UNL     1     -10.435  11.649  68.652  1.00  0.00    -0.213 C  
HETATM    8  O   UNL     1     -10.366  13.002  69.135  1.00  0.00    -0.434 OA 
HETATM    9  H   UNL     1     -10.387  13.003  70.085  1.00  0.00     0.000 HD 
BRANCH   7  10
HETATM   10  C   UNL     1     -11.712  10.984  69.184  1.00  0.00    -0.333 C  
BRANCH  10  11
HETATM   11  O   UNL     1     -11.668  10.970  70.619  1.00  0.00    -0.329 OA 
BRANCH  11  12
HETATM   12  C   UNL     1     -11.438   9.742  71.178  1.00  0.00    -0.398 A  
HETATM   13  C   UNL     1     -10.212   9.317  71.680  1.00  0.00    -0.271 A  
HETATM   14  C   UNL     1     -10.083   8.041  72.232  1.00  0.00    -0.311 A  
HETATM   15  C   UNL     1     -11.186   7.177  72.314  1.00  0.00    -0.297 A  
HETATM   16  C   UNL     1     -12.420   7.620  71.825  1.00  0.00    -0.358 A  
HETATM   17  C   UNL     1     -12.546   8.897  71.267  1.00  0.00    -0.309 A  
BRANCH  15  18
HETATM   18  C   UNL     1     -11.033   5.800  72.913  1.00  0.00    -0.312 C  
BRANCH  18  19
HETATM   19  C   UNL     1     -10.005   4.950  72.165  1.00  0.00    -0.179 C  
BRANCH  19  20
HETATM   20  O   UNL     1     -10.436   4.743  70.817  1.00  0.00    -0.160 OA 
BRANCH  20  21
HETATM   21  C   UNL     1      -9.362   4.984  69.906  1.00  0.00    -0.139 C  
BRANCH  21  22
HETATM   22  C   UNL     1      -9.888   5.705  68.709  1.00  0.00    -0.193 C  
HETATM   23  C   UNL     1     -11.264   6.323  68.762  1.00  0.00    -0.357 C  
HETATM   24  C   UNL     1     -10.048   7.205  68.713  1.00  0.00    -0.175 C  
ENDBRANCH  21  22
ENDBRANCH  20  21
ENDBRANCH  19  20
ENDBRANCH  18  19
ENDBRANCH  15  18
ENDBRANCH  11  12
ENDBRANCH  10  11
ENDBRANCH   7  10
ENDBRANCH   6   7
ENDBRANCH   4   6
ENDBRANCH   2   4
TORSDOF 11
ENDMDL
MODEL      142
REMARK 921   NORMALIZED FREE ENERGY PREDICTED BY IDOCK:   -4.09 KCAL/MOL
REMARK 922        TOTAL FREE ENERGY PREDICTED BY IDOCK:   -8.04 KCAL/MOL
REMARK 923 INTER-LIGAND FREE ENERGY PREDICTED BY IDOCK:   -7.15 KCAL/MOL
REMARK 924 INTRA-LIGAND FREE ENERGY PREDICTED BY IDOCK:   -0.89 KCAL/MOL
REMARK 927      BINDING AFFINITY PREDICTED BY RF-SCORE:    0.00 PKD
ROOT
HETATM    1  C   UNL     1     -10.737   5.832  66.893  1.00  0.00    -0.381 C  
HETATM    2  C   UNL     1     -10.300   7.299  66.890  1.00  0.00    -0.288 C  
HETATM    3  C   UNL     1      -9.595   7.625  68.209  1.00  0.00    -0.160 C  
ENDROOT
BRANCH   2   4
HETATM    4  N   UNL     1      -9.424   7.521  65.737  1.00  0.00    -0.390 NA 
HETATM    5  H   UNL     1      -9.969   7.604  64.879  1.00  0.00     0.000 HD 
BRANCH   4   6
HETATM    6  C   UNL     1      -8.528   8.676  65.901  1.00  0.00    -0.146 C  
BRANCH   6   7
HETATM    7  C   UNL     1      -8.547   9.548  64.632  1.00  0.00    -0.187 C  
HETATM    8  O   UNL     1      -8.881   8.735  63.493  1.00  0.00    -0.434 OA 
HETATM    9  H   UNL     1      -8.893   9.274  62.711  1.00  0.00     0.000 HD 
BRANCH   7  10
HETATM   10  C   UNL     1      -9.562  10.693  64.755  1.00  0.00    -0.280 C  
BRANCH  10  11
HETATM   11  O   UNL     1     -10.399  10.454  65.896  1.00  0.00    -0.245 OA 
BRANCH  11  12
HETATM   12  C   UNL     1     -10.528  11.516  66.750  1.00  0.00    -0.239 A  
HETATM   13  C   UNL     1      -9.940  12.762  66.561  1.00  0.00    -0.256 A  
HETATM   14  C   UNL     1     -10.135  13.780  67.495  1.00  0.00    -0.241 A  
HETATM   15  C   UNL     1     -10.944  13.578  68.623  1.00  0.00    -0.289 A  
HETATM   16  C   UNL     1     -11.548  12.328  68.797  1.00  0.00    -0.380 A  
HETATM   17  C   UNL     1     -11.347  11.305  67.863  1.00  0.00    -0.367 A  
BRANCH  15  18
HETATM   18  C   UNL     1     -11.147  14.688  69.626  1.00  0.00    -0.284 C  
BRANCH  18  19
HETATM   19  C   UNL     1     -11.612  15.988  68.970  1.00  0.00    -0.349 C  
BRANCH  19  20
HETATM   20  O   UNL     1     -10.564  16.960  69.022  1.00  0.00    -0.323 OA 
BRANCH  20  21
HETATM   21  C   UNL     1     -10.171  17.343  67.703  1.00  0.00    -0.342 C  
BRANCH  21  22
HETATM   22  C   UNL     1     -10.602  18.752  67.454  1.00  0.00    -0.505 C  
HETATM   23  C   UNL     1      -9.700  19.886  67.874  1.00  0.00    -0.510 C  
HETATM   24  C   UNL     1      -9.916  19.601  66.414  1.00  0.00    -0.556 C  
ENDBRANCH  21  22
ENDBRANCH  20  21
ENDBRANCH  19  20
ENDBRANCH  18  19
ENDBRANCH  15  18
ENDBRANCH  11  12
ENDBRANCH  10  11
ENDBRANCH   7  10
ENDBRANCH   6   7
ENDBRANCH   4   6
ENDBRANCH   2   4
TORSDOF 11
ENDMDL
MODEL      143
REMARK 921   NORMALIZED FREE ENERGY PREDICTED BY IDOCK:   -4.08 KCAL/MOL
REMARK 922        TOTAL FREE ENERGY PREDICTED BY IDOCK:   -8.02 KCAL/MOL
REMARK 923 INTER-LIGAND FREE ENERGY PREDICTED BY IDOCK:   -6.59 KCAL/MOL
REMARK 924 INTRA-LIGAND FREE ENERGY PREDICTED BY IDOCK:   -1.43 KCAL/MOL
REMARK 927      BINDING AFFINITY PREDICTED BY RF-SCORE:    0.00 PKD
ROOT
HETATM    1  C   UNL     1      -8.114   7.408  68.742  1.00  0.00    -0.128 C  
HETATM    2  C   UNL     1      -9.627   7.227  68.599  1.00  0.00    -0.141 C  
HETATM    3  C   UNL     1      -9.949   6.727  67.189  1.00  0.00    -0.220 C  
ENDROOT
BRANCH   2   4
HETATM    4  N   UNL     1     -10.081   6.286  69.625  1.00  0.00    -0.167 NA 
HETATM    5  H   UNL     1      -9.543   6.399  70.484  1.00  0.00     0.000 HD 
BRANCH   4   6
HETATM    6  C   UNL     1     -11.524   6.374  69.898  1.00  0.00    -0.415 C  
BRANCH   6   7
HETATM    7  C   UNL     1     -11.764   6.880  71.332  1.00  0.00    -0.316 C  
HETATM    8  O   UNL     1     -10.512   6.940  72.038  1.00  0.00    -0.203 OA 
HETATM    9  H   UNL     1     -10.661   7.253  72.923  1.00  0.00     0.000 HD 
BRANCH   7  10
HETATM   10  C   UNL     1     -12.417   8.269  71.333  1.00  0.00    -0.292 C  
BRANCH  10  11
HETATM   11  O   UNL     1     -11.408   9.258  71.585  1.00  0.00    -0.358 OA 
BRANCH  11  12
HETATM   12  C   UNL     1     -11.412  10.320  70.721  1.00  0.00    -0.351 A  
HETATM   13  C   UNL     1     -12.261  11.418  70.816  1.00  0.00    -0.475 A  
HETATM   14  C   UNL     1     -12.183  12.450  69.881  1.00  0.00    -0.227 A  
HETATM   15  C   UNL     1     -11.236  12.415  68.847  1.00  0.00    -0.330 A  
HETATM   16  C   UNL     1     -10.372  11.317  68.768  1.00  0.00    -0.223 A  
HETATM   17  C   UNL     1     -10.455  10.280  69.704  1.00  0.00    -0.286 A  
BRANCH  15  18
HETATM   18  C   UNL     1     -11.162  13.539  67.841  1.00  0.00    -0.302 C  
BRANCH  18  19
HETATM   19  C   UNL     1     -12.292  13.475  66.812  1.00  0.00    -0.274 C  
BRANCH  19  20
HETATM   20  O   UNL     1     -12.138  12.313  65.993  1.00  0.00    -0.623 OA 
BRANCH  20  21
HETATM   21  C   UNL     1     -11.080  12.499  65.053  1.00  0.00    -0.299 C  
BRANCH  21  22
HETATM   22  C   UNL     1     -10.659  11.168  64.519  1.00  0.00    -0.397 C  
HETATM   23  C   UNL     1      -9.197  10.797  64.526  1.00  0.00    -0.250 C  
HETATM   24  C   UNL     1     -10.155  10.086  65.440  1.00  0.00    -0.317 C  
ENDBRANCH  21  22
ENDBRANCH  20  21
ENDBRANCH  19  20
ENDBRANCH  18  19
ENDBRANCH  15  18
ENDBRANCH  11  12
ENDBRANCH  10  11
ENDBRANCH   7  10
ENDBRANCH   6   7
ENDBRANCH   4   6
ENDBRANCH   2   4
TORSDOF 11
ENDMDL
MODEL      144
REMARK 921   NORMALIZED FREE ENERGY PREDICTED BY IDOCK:   -4.07 KCAL/MOL
REMARK 922        TOTAL FREE ENERGY PREDICTED BY IDOCK:   -8.01 KCAL/MOL
REMARK 923 INTER-LIGAND FREE ENERGY PREDICTED BY IDOCK:   -6.74 KCAL/MOL
REMARK 924 INTRA-LIGAND FREE ENERGY PREDICTED BY IDOCK:   -1.27 KCAL/MOL
REMARK 927      BINDING AFFINITY PREDICTED BY RF-SCORE:    0.00 PKD
ROOT
HETATM    1  C   UNL     1     -10.655  11.141  66.254  1.00  0.00    -0.309 C  
HETATM    2  C   UNL     1     -11.257  12.483  65.831  1.00  0.00    -0.320 C  
HETATM    3  C   UNL     1     -11.871  12.350  64.436  1.00  0.00    -0.461 C  
ENDROOT
BRANCH   2   4
HETATM    4  N   UNL     1     -12.256  12.879  66.828  1.00  0.00    -0.432 NA 
HETATM    5  H   UNL     1     -13.154  12.436  66.636  1.00  0.00     0.000 HD 
BRANCH   4   6
HETATM    6  C   UNL     1     -11.831  12.619  68.212  1.00  0.00    -0.306 C  
BRANCH   6   7
HETATM    7  C   UNL     1     -12.151  13.833  69.102  1.00  0.00    -0.333 C  
HETATM    8  O   UNL     1     -11.455  13.710  70.354  1.00  0.00    -0.509 OA 
HETATM    9  H   UNL     1     -11.653  14.460  70.904  1.00  0.00     0.000 HD 
BRANCH   7  10
HETATM   10  C   UNL     1     -11.748  15.148  68.422  1.00  0.00    -0.316 C  
BRANCH  10  11
HETATM   11  O   UNL     1     -10.318  15.269  68.450  1.00  0.00    -0.221 OA 
BRANCH  11  12
HETATM   12  C   UNL     1      -9.837  16.516  68.154  1.00  0.00    -0.244 A  
HETATM   13  C   UNL     1     -10.043  17.650  68.933  1.00  0.00    -0.351 A  
HETATM   14  C   UNL     1      -9.508  18.878  68.541  1.00  0.00    -0.416 A  
HETATM   15  C   UNL     1      -8.735  18.988  67.376  1.00  0.00    -0.301 A  
HETATM   16  C   UNL     1      -8.516  17.839  66.608  1.00  0.00    -0.283 A  
HETATM   17  C   UNL     1      -9.058  16.610  66.999  1.00  0.00    -0.232 A  
BRANCH  15  18
HETATM   18  C   UNL     1      -8.162  20.322  66.963  1.00  0.00    -0.369 C  
BRANCH  18  19
HETATM   19  C   UNL     1      -6.946  20.176  66.048  1.00  0.00    -0.267 C  
BRANCH  19  20
HETATM   20  O   UNL     1      -5.797  19.816  66.819  1.00  0.00    -0.173 OA 
BRANCH  20  21
HETATM   21  C   UNL     1      -5.657  20.686  67.943  1.00  0.00    -0.246 C  
BRANCH  21  22
HETATM   22  C   UNL     1      -5.282  19.878  69.143  1.00  0.00    -0.207 C  
HETATM   23  C   UNL     1      -6.367  19.343  70.044  1.00  0.00    -0.234 C  
HETATM   24  C   UNL     1      -5.559  18.397  69.200  1.00  0.00    -0.210 C  
ENDBRANCH  21  22
ENDBRANCH  20  21
ENDBRANCH  19  20
ENDBRANCH  18  19
ENDBRANCH  15  18
ENDBRANCH  11  12
ENDBRANCH  10  11
ENDBRANCH   7  10
ENDBRANCH   6   7
ENDBRANCH   4   6
ENDBRANCH   2   4
TORSDOF 11
ENDMDL
MODEL      145
REMARK 921   NORMALIZED FREE ENERGY PREDICTED BY IDOCK:   -4.07 KCAL/MOL
REMARK 922        TOTAL FREE ENERGY PREDICTED BY IDOCK:   -8.00 KCAL/MOL
REMARK 923 INTER-LIGAND FREE ENERGY PREDICTED BY IDOCK:   -7.11 KCAL/MOL
REMARK 924 INTRA-LIGAND FREE ENERGY PREDICTED BY IDOCK:   -0.89 KCAL/MOL
REMARK 927      BINDING AFFINITY PREDICTED BY RF-SCORE:    0.00 PKD
ROOT
HETATM    1  C   UNL     1      -9.539  16.756  66.927  1.00  0.00    -0.253 C  
HETATM    2  C   UNL     1     -10.680  17.411  66.146  1.00  0.00    -0.100 C  
HETATM    3  C   UNL     1     -10.421  18.915  66.027  1.00  0.00    -0.507 C  
ENDROOT
BRANCH   2   4
HETATM    4  N   UNL     1     -10.771  16.771  64.831  1.00  0.00    -0.715 NA 
HETATM    5  H   UNL     1     -10.018  17.088  64.222  1.00  0.00     0.000 HD 
BRANCH   4   6
HETATM    6  C   UNL     1     -10.806  15.302  64.900  1.00  0.00    -0.425 C  
BRANCH   6   7
HETATM    7  C   UNL     1     -12.239  14.793  64.667  1.00  0.00    -0.393 C  
HETATM    8  O   UNL     1     -12.415  14.464  63.278  1.00  0.00    -1.099 OA 
HETATM    9  H   UNL     1     -13.300  14.149  63.135  1.00  0.00     0.000 HD 
BRANCH   7  10
HETATM   10  C   UNL     1     -12.541  13.557  65.526  1.00  0.00    -0.481 C  
BRANCH  10  11
HETATM   11  O   UNL     1     -12.178  12.379  64.791  1.00  0.00    -0.429 OA 
BRANCH  11  12
HETATM   12  C   UNL     1     -11.359  11.510  65.460  1.00  0.00    -0.083 A  
HETATM   13  C   UNL     1     -10.398  10.703  64.859  1.00  0.00    -0.347 A  
HETATM   14  C   UNL     1      -9.612   9.849  65.635  1.00  0.00    -0.320 A  
HETATM   15  C   UNL     1      -9.757   9.805  67.030  1.00  0.00    -0.233 A  
HETATM   16  C   UNL     1     -10.713  10.633  67.629  1.00  0.00    -0.315 A  
HETATM   17  C   UNL     1     -11.504  11.485  66.849  1.00  0.00    -0.261 A  
BRANCH  15  18
HETATM   18  C   UNL     1      -8.901   8.877  67.857  1.00  0.00    -0.133 C  
BRANCH  18  19
HETATM   19  C   UNL     1      -7.792   9.618  68.604  1.00  0.00    -0.081 C  
BRANCH  19  20
HETATM   20  O   UNL     1      -7.798   9.241  69.983  1.00  0.00    -0.087 OA 
BRANCH  20  21
HETATM   21  C   UNL     1      -9.069   9.522  70.572  1.00  0.00    -0.219 C  
BRANCH  21  22
HETATM   22  C   UNL     1      -9.449   8.393  71.475  1.00  0.00    -0.267 C  
HETATM   23  C   UNL     1     -10.454   7.373  71.001  1.00  0.00    -0.223 C  
HETATM   24  C   UNL     1      -9.014   6.981  71.178  1.00  0.00    -0.146 C  
ENDBRANCH  21  22
ENDBRANCH  20  21
ENDBRANCH  19  20
ENDBRANCH  18  19
ENDBRANCH  15  18
ENDBRANCH  11  12
ENDBRANCH  10  11
ENDBRANCH   7  10
ENDBRANCH   6   7
ENDBRANCH   4   6
ENDBRANCH   2   4
TORSDOF 11
ENDMDL
MODEL      146
REMARK 921   NORMALIZED FREE ENERGY PREDICTED BY IDOCK:   -4.06 KCAL/MOL
REMARK 922        TOTAL FREE ENERGY PREDICTED BY IDOCK:   -7.99 KCAL/MOL
REMARK 923 INTER-LIGAND FREE ENERGY PREDICTED BY IDOCK:   -6.55 KCAL/MOL
REMARK 924 INTRA-LIGAND FREE ENERGY PREDICTED BY IDOCK:   -1.44 KCAL/MOL
REMARK 927      BINDING AFFINITY PREDICTED BY RF-SCORE:    0.00 PKD
ROOT
HETATM    1  C   UNL     1      -9.998   5.055  67.086  1.00  0.00    -0.226 C  
HETATM    2  C   UNL     1     -11.064   6.117  67.367  1.00  0.00    -0.225 C  
HETATM    3  C   UNL     1     -11.156   6.361  68.875  1.00  0.00    -0.420 C  
ENDROOT
BRANCH   2   4
HETATM    4  N   UNL     1     -10.705   7.338  66.641  1.00  0.00    -0.494 NA 
HETATM    5  H   UNL     1     -11.298   8.117  66.927  1.00  0.00     0.000 HD 
BRANCH   4   6
HETATM    6  C   UNL     1      -9.283   7.692  66.764  1.00  0.00    -0.160 C  
BRANCH   6   7
HETATM    7  C   UNL     1      -9.063   9.159  66.355  1.00  0.00    -0.170 C  
HETATM    8  O   UNL     1      -9.360   9.320  64.958  1.00  0.00    -0.391 OA 
HETATM    9  H   UNL     1      -9.224  10.226  64.706  1.00  0.00     0.000 HD 
BRANCH   7  10
HETATM   10  C   UNL     1      -9.947  10.108  67.176  1.00  0.00    -0.196 C  
BRANCH  10  11
HETATM   11  O   UNL     1     -10.984  10.628  66.331  1.00  0.00    -0.128 OA 
BRANCH  11  12
HETATM   12  C   UNL     1     -10.903  11.971  66.078  1.00  0.00    -0.289 A  
HETATM   13  C   UNL     1      -9.716  12.689  65.974  1.00  0.00    -0.232 A  
HETATM   14  C   UNL     1      -9.744  14.059  65.712  1.00  0.00    -0.222 A  
HETATM   15  C   UNL     1     -10.961  14.732  65.524  1.00  0.00    -0.350 A  
HETATM   16  C   UNL     1     -12.150  14.000  65.611  1.00  0.00    -0.432 A  
HETATM   17  C   UNL     1     -12.121  12.627  65.880  1.00  0.00    -0.459 A  
BRANCH  15  18
HETATM   18  C   UNL     1     -10.977  16.215  65.242  1.00  0.00    -0.280 C  
BRANCH  18  19
HETATM   19  C   UNL     1      -9.955  16.980  66.084  1.00  0.00    -0.298 C  
BRANCH  19  20
HETATM   20  O   UNL     1     -10.600  17.563  67.219  1.00  0.00    -0.341 OA 
BRANCH  20  21
HETATM   21  C   UNL     1      -9.829  17.342  68.401  1.00  0.00    -0.309 C  
BRANCH  21  22
HETATM   22  C   UNL     1     -10.629  16.522  69.361  1.00  0.00    -0.329 C  
HETATM   23  C   UNL     1     -11.854  15.791  68.868  1.00  0.00    -0.354 C  
HETATM   24  C   UNL     1     -10.634  15.016  69.280  1.00  0.00    -0.249 C  
ENDBRANCH  21  22
ENDBRANCH  20  21
ENDBRANCH  19  20
ENDBRANCH  18  19
ENDBRANCH  15  18
ENDBRANCH  11  12
ENDBRANCH  10  11
ENDBRANCH   7  10
ENDBRANCH   6   7
ENDBRANCH   4   6
ENDBRANCH   2   4
TORSDOF 11
ENDMDL
MODEL      147
REMARK 921   NORMALIZED FREE ENERGY PREDICTED BY IDOCK:   -4.05 KCAL/MOL
REMARK 922        TOTAL FREE ENERGY PREDICTED BY IDOCK:   -7.98 KCAL/MOL
REMARK 923 INTER-LIGAND FREE ENERGY PREDICTED BY IDOCK:   -7.05 KCAL/MOL
REMARK 924 INTRA-LIGAND FREE ENERGY PREDICTED BY IDOCK:   -0.93 KCAL/MOL
REMARK 927      BINDING AFFINITY PREDICTED BY RF-SCORE:    0.00 PKD
ROOT
HETATM    1  C   UNL     1     -10.186   4.479  66.085  1.00  0.00    -0.283 C  
HETATM    2  C   UNL     1     -10.775   5.620  66.919  1.00  0.00    -0.272 C  
HETATM    3  C   UNL     1     -10.304   5.488  68.369  1.00  0.00    -0.243 C  
ENDROOT
BRANCH   2   4
HETATM    4  N   UNL     1     -10.356   6.892  66.326  1.00  0.00    -0.430 NA 
HETATM    5  H   UNL     1     -11.136   7.343  65.848  1.00  0.00     0.000 HD 
BRANCH   4   6
HETATM    6  C   UNL     1      -9.735   7.809  67.294  1.00  0.00    -0.171 C  
BRANCH   6   7
HETATM    7  C   UNL     1      -8.358   8.269  66.783  1.00  0.00    -0.107 C  
HETATM    8  O   UNL     1      -7.565   7.121  66.434  1.00  0.00    -0.088 OA 
HETATM    9  H   UNL     1      -6.715   7.405  66.119  1.00  0.00     0.000 HD 
BRANCH   7  10
HETATM   10  C   UNL     1      -8.493   9.186  65.560  1.00  0.00    -0.147 C  
BRANCH  10  11
HETATM   11  O   UNL     1      -9.874   9.536  65.389  1.00  0.00    -0.302 OA 
BRANCH  11  12
HETATM   12  C   UNL     1     -10.113  10.872  65.213  1.00  0.00    -0.280 A  
HETATM   13  C   UNL     1     -10.673  11.434  64.070  1.00  0.00    -0.450 A  
HETATM   14  C   UNL     1     -10.876  12.813  63.991  1.00  0.00    -0.458 A  
HETATM   15  C   UNL     1     -10.545  13.652  65.066  1.00  0.00    -0.394 A  
HETATM   16  C   UNL     1     -10.001  13.077  66.220  1.00  0.00    -0.283 A  
HETATM   17  C   UNL     1      -9.792  11.695  66.295  1.00  0.00    -0.245 A  
BRANCH  15  18
HETATM   18  C   UNL     1     -10.770  15.141  64.968  1.00  0.00    -0.451 C  
BRANCH  18  19
HETATM   19  C   UNL     1      -9.859  15.931  65.909  1.00  0.00    -0.351 C  
BRANCH  19  20
HETATM   20  O   UNL     1     -10.648  16.748  66.777  1.00  0.00    -0.288 OA 
BRANCH  20  21
HETATM   21  C   UNL     1      -9.813  17.628  67.531  1.00  0.00    -0.299 C  
BRANCH  21  22
HETATM   22  C   UNL     1      -9.477  18.820  66.696  1.00  0.00    -0.346 C  
HETATM   23  C   UNL     1     -10.577  19.539  65.954  1.00  0.00    -0.572 C  
HETATM   24  C   UNL     1      -9.895  20.206  67.115  1.00  0.00    -0.586 C  
ENDBRANCH  21  22
ENDBRANCH  20  21
ENDBRANCH  19  20
ENDBRANCH  18  19
ENDBRANCH  15  18
ENDBRANCH  11  12
ENDBRANCH  10  11
ENDBRANCH   7  10
ENDBRANCH   6   7
ENDBRANCH   4   6
ENDBRANCH   2   4
TORSDOF 11
ENDMDL
MODEL      148
REMARK 921   NORMALIZED FREE ENERGY PREDICTED BY IDOCK:   -4.05 KCAL/MOL
REMARK 922        TOTAL FREE ENERGY PREDICTED BY IDOCK:   -7.98 KCAL/MOL
REMARK 923 INTER-LIGAND FREE ENERGY PREDICTED BY IDOCK:   -6.00 KCAL/MOL
REMARK 924 INTRA-LIGAND FREE ENERGY PREDICTED BY IDOCK:   -1.98 KCAL/MOL
REMARK 927      BINDING AFFINITY PREDICTED BY RF-SCORE:    0.00 PKD
ROOT
HETATM    1  C   UNL     1     -11.331  11.156  67.635  1.00  0.00    -0.356 C  
HETATM    2  C   UNL     1     -10.360  12.290  67.295  1.00  0.00    -0.214 C  
HETATM    3  C   UNL     1     -11.151  13.524  66.855  1.00  0.00    -0.309 C  
ENDROOT
BRANCH   2   4
HETATM    4  N   UNL     1      -9.536  12.565  68.474  1.00  0.00    -0.374 NA 
HETATM    5  H   UNL     1      -9.746  11.908  69.224  1.00  0.00     0.000 HD 
BRANCH   4   6
HETATM    6  C   UNL     1      -8.094  12.584  68.184  1.00  0.00    -0.167 C  
BRANCH   6   7
HETATM    7  C   UNL     1      -7.729  11.433  67.229  1.00  0.00    -0.145 C  
HETATM    8  O   UNL     1      -6.631  11.831  66.390  1.00  0.00    -0.365 OA 
HETATM    9  H   UNL     1      -6.406  11.120  65.802  1.00  0.00     0.000 HD 
BRANCH   7  10
HETATM   10  C   UNL     1      -7.344  10.165  68.004  1.00  0.00    -0.086 C  
BRANCH  10  11
HETATM   11  O   UNL     1      -7.746  10.314  69.373  1.00  0.00    -0.117 OA 
BRANCH  11  12
HETATM   12  C   UNL     1      -8.488   9.278  69.875  1.00  0.00    -0.163 A  
HETATM   13  C   UNL     1      -8.537   8.915  71.216  1.00  0.00    -0.259 A  
HETATM   14  C   UNL     1      -9.327   7.839  71.624  1.00  0.00    -0.174 A  
HETATM   15  C   UNL     1     -10.103   7.124  70.700  1.00  0.00    -0.198 A  
HETATM   16  C   UNL     1     -10.063   7.507  69.355  1.00  0.00    -0.190 A  
HETATM   17  C   UNL     1      -9.265   8.582  68.946  1.00  0.00    -0.146 A  
BRANCH  15  18
HETATM   18  C   UNL     1     -10.953   5.962  71.154  1.00  0.00    -0.327 C  
BRANCH  18  19
HETATM   19  C   UNL     1     -12.106   6.402  72.056  1.00  0.00    -0.303 C  
BRANCH  19  20
HETATM   20  O   UNL     1     -12.962   7.301  71.347  1.00  0.00    -0.371 OA 
BRANCH  20  21
HETATM   21  C   UNL     1     -13.255   8.449  72.145  1.00  0.00    -0.318 C  
BRANCH  21  22
HETATM   22  C   UNL     1     -13.310   9.656  71.266  1.00  0.00    -0.403 C  
HETATM   23  C   UNL     1     -13.161  11.026  71.880  1.00  0.00    -0.525 C  
HETATM   24  C   UNL     1     -12.075  10.477  70.997  1.00  0.00    -0.492 C  
ENDBRANCH  21  22
ENDBRANCH  20  21
ENDBRANCH  19  20
ENDBRANCH  18  19
ENDBRANCH  15  18
ENDBRANCH  11  12
ENDBRANCH  10  11
ENDBRANCH   7  10
ENDBRANCH   6   7
ENDBRANCH   4   6
ENDBRANCH   2   4
TORSDOF 11
ENDMDL
MODEL      149
REMARK 921   NORMALIZED FREE ENERGY PREDICTED BY IDOCK:   -4.05 KCAL/MOL
REMARK 922        TOTAL FREE ENERGY PREDICTED BY IDOCK:   -7.98 KCAL/MOL
REMARK 923 INTER-LIGAND FREE ENERGY PREDICTED BY IDOCK:   -6.86 KCAL/MOL
REMARK 924 INTRA-LIGAND FREE ENERGY PREDICTED BY IDOCK:   -1.12 KCAL/MOL
REMARK 927      BINDING AFFINITY PREDICTED BY RF-SCORE:    0.00 PKD
ROOT
HETATM    1  C   UNL     1     -11.119   6.225  67.431  1.00  0.00    -0.384 C  
HETATM    2  C   UNL     1     -10.584   7.564  66.916  1.00  0.00    -0.297 C  
HETATM    3  C   UNL     1     -10.155   8.432  68.102  1.00  0.00    -0.239 C  
ENDROOT
BRANCH   2   4
HETATM    4  N   UNL     1      -9.467   7.299  66.006  1.00  0.00    -0.403 NA 
HETATM    5  H   UNL     1      -9.744   7.459  65.038  1.00  0.00     0.000 HD 
BRANCH   4   6
HETATM    6  C   UNL     1      -8.254   8.063  66.335  1.00  0.00    -0.113 C  
BRANCH   6   7
HETATM    7  C   UNL     1      -7.474   8.400  65.053  1.00  0.00    -0.089 C  
HETATM    8  O   UNL     1      -7.637   7.340  64.095  1.00  0.00    -0.098 OA 
HETATM    9  H   UNL     1      -7.155   7.549  63.303  1.00  0.00     0.000 HD 
BRANCH   7  10
HETATM   10  C   UNL     1      -7.955   9.721  64.436  1.00  0.00    -0.145 C  
BRANCH  10  11
HETATM   11  O   UNL     1      -9.357   9.617  64.145  1.00  0.00    -0.236 OA 
BRANCH  11  12
HETATM   12  C   UNL     1     -10.096  10.725  64.458  1.00  0.00    -0.350 A  
HETATM   13  C   UNL     1     -10.365  11.159  65.752  1.00  0.00    -0.316 A  
HETATM   14  C   UNL     1     -11.132  12.306  65.964  1.00  0.00    -0.347 A  
HETATM   15  C   UNL     1     -11.623  13.054  64.883  1.00  0.00    -0.362 A  
HETATM   16  C   UNL     1     -11.331  12.622  63.584  1.00  0.00    -0.544 A  
HETATM   17  C   UNL     1     -10.567  11.469  63.374  1.00  0.00    -0.460 A  
BRANCH  15  18
HETATM   18  C   UNL     1     -12.451  14.292  65.126  1.00  0.00    -0.423 C  
BRANCH  18  19
HETATM   19  C   UNL     1     -12.012  15.467  64.251  1.00  0.00    -0.188 C  
BRANCH  19  20
HETATM   20  O   UNL     1     -10.677  15.852  64.588  1.00  0.00    -0.553 OA 
BRANCH  20  21
HETATM   21  C   UNL     1     -10.621  16.338  65.930  1.00  0.00    -0.297 C  
BRANCH  21  22
HETATM   22  C   UNL     1     -10.391  17.815  65.906  1.00  0.00    -0.257 C  
HETATM   23  C   UNL     1     -10.457  18.594  67.196  1.00  0.00    -0.461 C  
HETATM   24  C   UNL     1      -9.140  18.416  66.494  1.00  0.00    -0.297 C  
ENDBRANCH  21  22
ENDBRANCH  20  21
ENDBRANCH  19  20
ENDBRANCH  18  19
ENDBRANCH  15  18
ENDBRANCH  11  12
ENDBRANCH  10  11
ENDBRANCH   7  10
ENDBRANCH   6   7
ENDBRANCH   4   6
ENDBRANCH   2   4
TORSDOF 11
ENDMDL
MODEL      150
REMARK 921   NORMALIZED FREE ENERGY PREDICTED BY IDOCK:   -4.02 KCAL/MOL
REMARK 922        TOTAL FREE ENERGY PREDICTED BY IDOCK:   -7.93 KCAL/MOL
REMARK 923 INTER-LIGAND FREE ENERGY PREDICTED BY IDOCK:   -6.60 KCAL/MOL
REMARK 924 INTRA-LIGAND FREE ENERGY PREDICTED BY IDOCK:   -1.34 KCAL/MOL
REMARK 927      BINDING AFFINITY PREDICTED BY RF-SCORE:    0.00 PKD
ROOT
HETATM    1  C   UNL     1     -12.150  14.859  64.323  1.00  0.00    -0.373 C  
HETATM    2  C   UNL     1     -12.441  13.991  65.549  1.00  0.00    -0.509 C  
HETATM    3  C   UNL     1     -12.330  12.513  65.167  1.00  0.00    -0.496 C  
ENDROOT
BRANCH   2   4
HETATM    4  N   UNL     1     -11.493  14.350  66.608  1.00  0.00    -0.351 NA 
HETATM    5  H   UNL     1     -11.050  15.246  66.408  1.00  0.00     0.000 HD 
BRANCH   4   6
HETATM    6  C   UNL     1     -12.094  14.352  67.950  1.00  0.00    -0.245 C  
BRANCH   6   7
HETATM    7  C   UNL     1     -11.281  13.453  68.898  1.00  0.00    -0.276 C  
HETATM    8  O   UNL     1     -11.559  13.814  70.262  1.00  0.00    -0.463 OA 
HETATM    9  H   UNL     1     -11.056  13.259  70.847  1.00  0.00     0.000 HD 
BRANCH   7  10
HETATM   10  C   UNL     1     -11.615  11.970  68.686  1.00  0.00    -0.319 C  
BRANCH  10  11
HETATM   11  O   UNL     1     -10.521  11.338  68.007  1.00  0.00    -0.177 OA 
BRANCH  11  12
HETATM   12  C   UNL     1     -10.232  10.069  68.432  1.00  0.00    -0.172 A  
HETATM   13  C   UNL     1     -10.392   8.920  67.664  1.00  0.00    -0.313 A  
HETATM   14  C   UNL     1     -10.067   7.670  68.193  1.00  0.00    -0.220 A  
HETATM   15  C   UNL     1      -9.553   7.550  69.493  1.00  0.00    -0.156 A  
HETATM   16  C   UNL     1      -9.378   8.712  70.253  1.00  0.00    -0.180 A  
HETATM   17  C   UNL     1      -9.709   9.964  69.723  1.00  0.00    -0.266 A  
BRANCH  15  18
HETATM   18  C   UNL     1      -9.207   6.192  70.054  1.00  0.00    -0.158 C  
BRANCH  18  19
HETATM   19  C   UNL     1      -9.763   5.984  71.463  1.00  0.00    -0.163 C  
BRANCH  19  20
HETATM   20  O   UNL     1     -11.073   5.416  71.390  1.00  0.00    -0.149 OA 
BRANCH  20  21
HETATM   21  C   UNL     1     -12.000   6.195  72.147  1.00  0.00    -0.260 C  
BRANCH  21  22
HETATM   22  C   UNL     1     -12.657   7.188  71.244  1.00  0.00    -0.421 C  
HETATM   23  C   UNL     1     -14.103   7.552  71.473  1.00  0.00    -0.550 C  
HETATM   24  C   UNL     1     -13.024   8.564  71.738  1.00  0.00    -0.380 C  
ENDBRANCH  21  22
ENDBRANCH  20  21
ENDBRANCH  19  20
ENDBRANCH  18  19
ENDBRANCH  15  18
ENDBRANCH  11  12
ENDBRANCH  10  11
ENDBRANCH   7  10
ENDBRANCH   6   7
ENDBRANCH   4   6
ENDBRANCH   2   4
TORSDOF 11
ENDMDL
MODEL      151
REMARK 921   NORMALIZED FREE ENERGY PREDICTED BY IDOCK:   -4.02 KCAL/MOL
REMARK 922        TOTAL FREE ENERGY PREDICTED BY IDOCK:   -7.93 KCAL/MOL
REMARK 923 INTER-LIGAND FREE ENERGY PREDICTED BY IDOCK:   -6.94 KCAL/MOL
REMARK 924 INTRA-LIGAND FREE ENERGY PREDICTED BY IDOCK:   -0.99 KCAL/MOL
REMARK 927      BINDING AFFINITY PREDICTED BY RF-SCORE:    0.00 PKD
ROOT
HETATM    1  C   UNL     1     -10.213  14.317  67.566  1.00  0.00    -0.240 C  
HETATM    2  C   UNL     1     -11.673  14.454  67.126  1.00  0.00    -0.400 C  
HETATM    3  C   UNL     1     -12.133  13.150  66.471  1.00  0.00    -0.423 C  
ENDROOT
BRANCH   2   4
HETATM    4  N   UNL     1     -12.483  14.787  68.300  1.00  0.00    -0.459 NA 
HETATM    5  H   UNL     1     -12.953  13.958  68.662  1.00  0.00     0.000 HD 
BRANCH   4   6
HETATM    6  C   UNL     1     -11.719  15.460  69.362  1.00  0.00    -0.351 C  
BRANCH   6   7
HETATM    7  C   UNL     1     -12.475  15.368  70.700  1.00  0.00    -0.428 C  
HETATM    8  O   UNL     1     -13.866  15.664  70.489  1.00  0.00    -0.818 OA 
HETATM    9  H   UNL     1     -14.332  15.607  71.315  1.00  0.00     0.000 HD 
BRANCH   7  10
HETATM   10  C   UNL     1     -12.340  13.973  71.324  1.00  0.00    -0.355 C  
BRANCH  10  11
HETATM   11  O   UNL     1     -12.830  12.996  70.395  1.00  0.00    -0.031 OA 
BRANCH  11  12
HETATM   12  C   UNL     1     -12.405  11.715  70.624  1.00  0.00    -0.344 A  
HETATM   13  C   UNL     1     -11.355  11.096  69.953  1.00  0.00    -0.348 A  
HETATM   14  C   UNL     1     -11.000   9.782  70.263  1.00  0.00    -0.352 A  
HETATM   15  C   UNL     1     -11.673   9.073  71.270  1.00  0.00    -0.382 A  
HETATM   16  C   UNL     1     -12.715   9.709  71.954  1.00  0.00    -0.499 A  
HETATM   17  C   UNL     1     -13.074  11.024  71.637  1.00  0.00    -0.543 A  
BRANCH  15  18
HETATM   18  C   UNL     1     -11.279   7.652  71.596  1.00  0.00    -0.282 C  
BRANCH  18  19
HETATM   19  C   UNL     1     -10.290   7.075  70.583  1.00  0.00    -0.207 C  
BRANCH  19  20
HETATM   20  O   UNL     1      -8.951   7.349  71.001  1.00  0.00    -0.149 OA 
BRANCH  20  21
HETATM   21  C   UNL     1      -8.688   6.743  72.267  1.00  0.00    -0.128 C  
BRANCH  21  22
HETATM   22  C   UNL     1      -7.540   7.444  72.916  1.00  0.00    -0.094 C  
HETATM   23  C   UNL     1      -6.234   6.711  73.102  1.00  0.00    -0.059 C  
HETATM   24  C   UNL     1      -6.324   7.846  72.120  1.00  0.00    -0.050 C  
ENDBRANCH  21  22
ENDBRANCH  20  21
ENDBRANCH  19  20
ENDBRANCH  18  19
ENDBRANCH  15  18
ENDBRANCH  11  12
ENDBRANCH  10  11
ENDBRANCH   7  10
ENDBRANCH   6   7
ENDBRANCH   4   6
ENDBRANCH   2   4
TORSDOF 11
ENDMDL
MODEL      152
REMARK 921   NORMALIZED FREE ENERGY PREDICTED BY IDOCK:   -4.02 KCAL/MOL
REMARK 922        TOTAL FREE ENERGY PREDICTED BY IDOCK:   -7.93 KCAL/MOL
REMARK 923 INTER-LIGAND FREE ENERGY PREDICTED BY IDOCK:   -6.92 KCAL/MOL
REMARK 924 INTRA-LIGAND FREE ENERGY PREDICTED BY IDOCK:   -1.00 KCAL/MOL
REMARK 927      BINDING AFFINITY PREDICTED BY RF-SCORE:    0.00 PKD
ROOT
HETATM    1  C   UNL     1      -8.088  14.539  67.470  1.00  0.00    -0.204 C  
HETATM    2  C   UNL     1      -8.882  15.637  68.181  1.00  0.00    -0.174 C  
HETATM    3  C   UNL     1      -8.636  16.977  67.484  1.00  0.00    -0.212 C  
ENDROOT
BRANCH   2   4
HETATM    4  N   UNL     1     -10.300  15.269  68.165  1.00  0.00    -0.239 NA 
HETATM    5  H   UNL     1     -10.879  16.043  68.492  1.00  0.00     0.000 HD 
BRANCH   4   6
HETATM    6  C   UNL     1     -10.763  14.790  66.853  1.00  0.00    -0.308 C  
BRANCH   6   7
HETATM    7  C   UNL     1     -12.013  13.909  67.020  1.00  0.00    -0.424 C  
HETATM    8  O   UNL     1     -12.050  12.921  65.976  1.00  0.00    -0.424 OA 
HETATM    9  H   UNL     1     -12.823  12.377  66.079  1.00  0.00     0.000 HD 
BRANCH   7  10
HETATM   10  C   UNL     1     -12.026  13.208  68.385  1.00  0.00    -0.289 C  
BRANCH  10  11
HETATM   11  O   UNL     1     -10.986  12.220  68.412  1.00  0.00    -0.211 OA 
BRANCH  11  12
HETATM   12  C   UNL     1     -11.096  11.293  69.414  1.00  0.00    -0.257 A  
HETATM   13  C   UNL     1     -12.215  11.128  70.223  1.00  0.00    -0.436 A  
HETATM   14  C   UNL     1     -12.225  10.150  71.219  1.00  0.00    -0.496 A  
HETATM   15  C   UNL     1     -11.123   9.303  71.407  1.00  0.00    -0.437 A  
HETATM   16  C   UNL     1     -10.008   9.462  70.577  1.00  0.00    -0.328 A  
HETATM   17  C   UNL     1      -9.997  10.447  69.582  1.00  0.00    -0.209 A  
BRANCH  15  18
HETATM   18  C   UNL     1     -11.146   8.250  72.488  1.00  0.00    -0.439 C  
BRANCH  18  19
HETATM   19  C   UNL     1     -11.888   6.985  72.054  1.00  0.00    -0.298 C  
BRANCH  19  20
HETATM   20  O   UNL     1     -12.047   6.978  70.633  1.00  0.00    -0.341 OA 
BRANCH  20  21
HETATM   21  C   UNL     1     -11.156   6.036  70.034  1.00  0.00    -0.381 C  
BRANCH  21  22
HETATM   22  C   UNL     1     -11.133   6.255  68.556  1.00  0.00    -0.397 C  
HETATM   23  C   UNL     1     -10.040   7.100  67.951  1.00  0.00    -0.211 C  
HETATM   24  C   UNL     1     -10.072   5.619  67.694  1.00  0.00    -0.208 C  
ENDBRANCH  21  22
ENDBRANCH  20  21
ENDBRANCH  19  20
ENDBRANCH  18  19
ENDBRANCH  15  18
ENDBRANCH  11  12
ENDBRANCH  10  11
ENDBRANCH   7  10
ENDBRANCH   6   7
ENDBRANCH   4   6
ENDBRANCH   2   4
TORSDOF 11
ENDMDL
MODEL      153
REMARK 921   NORMALIZED FREE ENERGY PREDICTED BY IDOCK:   -4.01 KCAL/MOL
REMARK 922        TOTAL FREE ENERGY PREDICTED BY IDOCK:   -7.91 KCAL/MOL
REMARK 923 INTER-LIGAND FREE ENERGY PREDICTED BY IDOCK:   -6.93 KCAL/MOL
REMARK 924 INTRA-LIGAND FREE ENERGY PREDICTED BY IDOCK:   -0.98 KCAL/MOL
REMARK 927      BINDING AFFINITY PREDICTED BY RF-SCORE:    0.00 PKD
ROOT
HETATM    1  C   UNL     1     -11.795  15.329  69.507  1.00  0.00    -0.368 C  
HETATM    2  C   UNL     1     -12.065  14.733  70.891  1.00  0.00    -0.324 C  
HETATM    3  C   UNL     1     -13.413  15.240  71.410  1.00  0.00    -0.588 C  
ENDROOT
BRANCH   2   4
HETATM    4  N   UNL     1     -12.041  13.272  70.781  1.00  0.00    -0.502 NA 
HETATM    5  H   UNL     1     -12.832  12.859  71.274  1.00  0.00     0.000 HD 
BRANCH   4   6
HETATM    6  C   UNL     1     -11.983  12.795  69.391  1.00  0.00    -0.263 C  
BRANCH   6   7
HETATM    7  C   UNL     1     -11.388  11.376  69.341  1.00  0.00    -0.297 C  
HETATM    8  O   UNL     1     -12.326  10.481  68.720  1.00  0.00    -0.790 OA 
HETATM    9  H   UNL     1     -11.959   9.605  68.690  1.00  0.00     0.000 HD 
BRANCH   7  10
HETATM   10  C   UNL     1     -10.067  11.351  68.561  1.00  0.00    -0.206 C  
BRANCH  10  11
HETATM   11  O   UNL     1     -10.194  12.185  67.400  1.00  0.00    -0.197 OA 
BRANCH  11  12
HETATM   12  C   UNL     1      -9.383  13.287  67.388  1.00  0.00    -0.217 A  
HETATM   13  C   UNL     1      -8.258  13.452  68.191  1.00  0.00    -0.160 A  
HETATM   14  C   UNL     1      -7.497  14.618  68.101  1.00  0.00    -0.125 A  
HETATM   15  C   UNL     1      -7.832  15.630  67.189  1.00  0.00    -0.253 A  
HETATM   16  C   UNL     1      -8.953  15.448  66.371  1.00  0.00    -0.351 A  
HETATM   17  C   UNL     1      -9.719  14.281  66.467  1.00  0.00    -0.304 A  
BRANCH  15  18
HETATM   18  C   UNL     1      -7.000  16.886  67.102  1.00  0.00    -0.217 C  
BRANCH  18  19
HETATM   19  C   UNL     1      -6.623  17.431  68.480  1.00  0.00    -0.184 C  
BRANCH  19  20
HETATM   20  O   UNL     1      -6.567  18.859  68.439  1.00  0.00    -0.229 OA 
BRANCH  20  21
HETATM   21  C   UNL     1      -7.884  19.410  68.374  1.00  0.00    -0.342 C  
BRANCH  21  22
HETATM   22  C   UNL     1      -7.917  20.477  67.328  1.00  0.00    -0.361 C  
HETATM   23  C   UNL     1      -6.621  20.971  66.734  1.00  0.00    -0.378 C  
HETATM   24  C   UNL     1      -7.574  20.169  65.893  1.00  0.00    -0.272 C  
ENDBRANCH  21  22
ENDBRANCH  20  21
ENDBRANCH  19  20
ENDBRANCH  18  19
ENDBRANCH  15  18
ENDBRANCH  11  12
ENDBRANCH  10  11
ENDBRANCH   7  10
ENDBRANCH   6   7
ENDBRANCH   4   6
ENDBRANCH   2   4
TORSDOF 11
ENDMDL
MODEL      154
REMARK 921   NORMALIZED FREE ENERGY PREDICTED BY IDOCK:   -4.00 KCAL/MOL
REMARK 922        TOTAL FREE ENERGY PREDICTED BY IDOCK:   -7.90 KCAL/MOL
REMARK 923 INTER-LIGAND FREE ENERGY PREDICTED BY IDOCK:   -6.57 KCAL/MOL
REMARK 924 INTRA-LIGAND FREE ENERGY PREDICTED BY IDOCK:   -1.33 KCAL/MOL
REMARK 927      BINDING AFFINITY PREDICTED BY RF-SCORE:    0.00 PKD
ROOT
HETATM    1  C   UNL     1     -11.801  13.024  68.437  1.00  0.00    -0.370 C  
HETATM    2  C   UNL     1     -11.900  14.383  67.739  1.00  0.00    -0.368 C  
HETATM    3  C   UNL     1     -10.494  14.948  67.521  1.00  0.00    -0.254 C  
ENDROOT
BRANCH   2   4
HETATM    4  N   UNL     1     -12.616  14.205  66.474  1.00  0.00    -0.519 NA 
HETATM    5  H   UNL     1     -13.431  14.817  66.430  1.00  0.00     0.000 HD 
BRANCH   4   6
HETATM    6  C   UNL     1     -11.761  14.388  65.291  1.00  0.00    -0.364 C  
BRANCH   6   7
HETATM    7  C   UNL     1     -12.112  13.344  64.216  1.00  0.00    -0.424 C  
HETATM    8  O   UNL     1     -12.414  14.009  62.978  1.00  0.00    -1.101 OA 
HETATM    9  H   UNL     1     -12.631  13.364  62.314  1.00  0.00     0.000 HD 
BRANCH   7  10
HETATM   10  C   UNL     1     -10.957  12.358  63.995  1.00  0.00    -0.391 C  
BRANCH  10  11
HETATM   11  O   UNL     1      -9.918  12.636  64.946  1.00  0.00    -0.237 OA 
BRANCH  11  12
HETATM   12  C   UNL     1      -9.754  11.684  65.917  1.00  0.00    -0.235 A  
HETATM   13  C   UNL     1     -10.598  10.596  66.112  1.00  0.00    -0.211 A  
HETATM   14  C   UNL     1     -10.340   9.681  67.133  1.00  0.00    -0.319 A  
HETATM   15  C   UNL     1      -9.218   9.824  67.963  1.00  0.00    -0.131 A  
HETATM   16  C   UNL     1      -8.362  10.910  67.748  1.00  0.00    -0.117 A  
HETATM   17  C   UNL     1      -8.626  11.831  66.727  1.00  0.00    -0.185 A  
BRANCH  15  18
HETATM   18  C   UNL     1      -8.951   8.827  69.064  1.00  0.00    -0.137 C  
BRANCH  18  19
HETATM   19  C   UNL     1     -10.238   8.239  69.643  1.00  0.00    -0.209 C  
BRANCH  19  20
HETATM   20  O   UNL     1     -10.425   6.907  69.158  1.00  0.00    -0.190 OA 
BRANCH  20  21
HETATM   21  C   UNL     1      -9.181   6.350  68.733  1.00  0.00    -0.127 C  
BRANCH  21  22
HETATM   22  C   UNL     1      -9.279   5.976  67.289  1.00  0.00    -0.114 C  
HETATM   23  C   UNL     1      -9.637   4.560  66.914  1.00  0.00    -0.208 C  
HETATM   24  C   UNL     1     -10.613   5.673  66.655  1.00  0.00    -0.361 C  
ENDBRANCH  21  22
ENDBRANCH  20  21
ENDBRANCH  19  20
ENDBRANCH  18  19
ENDBRANCH  15  18
ENDBRANCH  11  12
ENDBRANCH  10  11
ENDBRANCH   7  10
ENDBRANCH   6   7
ENDBRANCH   4   6
ENDBRANCH   2   4
TORSDOF 11
ENDMDL
MODEL      155
REMARK 921   NORMALIZED FREE ENERGY PREDICTED BY IDOCK:   -4.00 KCAL/MOL
REMARK 922        TOTAL FREE ENERGY PREDICTED BY IDOCK:   -7.89 KCAL/MOL
REMARK 923 INTER-LIGAND FREE ENERGY PREDICTED BY IDOCK:   -6.26 KCAL/MOL
REMARK 924 INTRA-LIGAND FREE ENERGY PREDICTED BY IDOCK:   -1.63 KCAL/MOL
REMARK 927      BINDING AFFINITY PREDICTED BY RF-SCORE:    0.00 PKD
ROOT
HETATM    1  C   UNL     1      -8.151  13.406  67.706  1.00  0.00    -0.173 C  
HETATM    2  C   UNL     1      -7.745  11.930  67.681  1.00  0.00    -0.141 C  
HETATM    3  C   UNL     1      -6.337  11.797  67.097  1.00  0.00    -0.145 C  
ENDROOT
BRANCH   2   4
HETATM    4  N   UNL     1      -7.818  11.405  69.047  1.00  0.00    -0.304 NA 
HETATM    5  H   UNL     1      -8.758  11.514  69.427  1.00  0.00     0.000 HD 
BRANCH   4   6
HETATM    6  C   UNL     1      -7.369  10.009  69.159  1.00  0.00    -0.087 C  
BRANCH   6   7
HETATM    7  C   UNL     1      -8.428   9.167  69.890  1.00  0.00    -0.147 C  
HETATM    8  O   UNL     1      -8.780   9.804  71.131  1.00  0.00    -0.296 OA 
HETATM    9  H   UNL     1      -9.434   9.283  71.582  1.00  0.00     0.000 HD 
BRANCH   7  10
HETATM   10  C   UNL     1      -9.690   8.988  69.034  1.00  0.00    -0.167 C  
BRANCH  10  11
HETATM   11  O   UNL     1     -10.761   9.743  69.619  1.00  0.00    -0.216 OA 
BRANCH  11  12
HETATM   12  C   UNL     1     -11.141  10.852  68.912  1.00  0.00    -0.252 A  
HETATM   13  C   UNL     1     -11.570  12.047  69.480  1.00  0.00    -0.389 A  
HETATM   14  C   UNL     1     -11.935  13.120  68.666  1.00  0.00    -0.319 A  
HETATM   15  C   UNL     1     -11.853  13.026  67.269  1.00  0.00    -0.419 A  
HETATM   16  C   UNL     1     -11.403  11.827  66.705  1.00  0.00    -0.385 A  
HETATM   17  C   UNL     1     -11.043  10.749  67.522  1.00  0.00    -0.374 A  
BRANCH  15  18
HETATM   18  C   UNL     1     -12.252  14.195  66.400  1.00  0.00    -0.473 C  
BRANCH  18  19
HETATM   19  C   UNL     1     -11.671  14.096  64.989  1.00  0.00    -0.376 C  
BRANCH  19  20
HETATM   20  O   UNL     1     -11.071  15.341  64.623  1.00  0.00    -0.385 OA 
BRANCH  20  21
HETATM   21  C   UNL     1      -9.941  15.615  65.452  1.00  0.00    -0.276 C  
BRANCH  21  22
HETATM   22  C   UNL     1     -10.137  16.933  66.128  1.00  0.00    -0.347 C  
HETATM   23  C   UNL     1     -10.333  16.976  67.623  1.00  0.00    -0.332 C  
HETATM   24  C   UNL     1      -9.069  17.517  67.016  1.00  0.00    -0.255 C  
ENDBRANCH  21  22
ENDBRANCH  20  21
ENDBRANCH  19  20
ENDBRANCH  18  19
ENDBRANCH  15  18
ENDBRANCH  11  12
ENDBRANCH  10  11
ENDBRANCH   7  10
ENDBRANCH   6   7
ENDBRANCH   4   6
ENDBRANCH   2   4
TORSDOF 11
ENDMDL
MODEL      156
REMARK 921   NORMALIZED FREE ENERGY PREDICTED BY IDOCK:   -3.98 KCAL/MOL
REMARK 922        TOTAL FREE ENERGY PREDICTED BY IDOCK:   -7.87 KCAL/MOL
REMARK 923 INTER-LIGAND FREE ENERGY PREDICTED BY IDOCK:   -6.86 KCAL/MOL
REMARK 924 INTRA-LIGAND FREE ENERGY PREDICTED BY IDOCK:   -1.01 KCAL/MOL
REMARK 927      BINDING AFFINITY PREDICTED BY RF-SCORE:    0.00 PKD
ROOT
HETATM    1  C   UNL     1      -8.914  10.539  63.077  1.00  0.00    -0.249 C  
HETATM    2  C   UNL     1      -9.707  10.338  64.371  1.00  0.00    -0.315 C  
HETATM    3  C   UNL     1      -8.898  10.875  65.554  1.00  0.00    -0.199 C  
ENDROOT
BRANCH   2   4
HETATM    4  N   UNL     1     -10.995  11.025  64.238  1.00  0.00    -0.343 NA 
HETATM    5  H   UNL     1     -11.362  11.286  65.153  1.00  0.00     0.000 HD 
BRANCH   4   6
HETATM    6  C   UNL     1     -10.942  12.191  63.344  1.00  0.00    -0.412 C  
BRANCH   6   7
HETATM    7  C   UNL     1     -12.281  12.951  63.382  1.00  0.00    -0.490 C  
HETATM    8  O   UNL     1     -13.316  12.080  63.870  1.00  0.00    -0.669 OA 
HETATM    9  H   UNL     1     -14.142  12.549  63.893  1.00  0.00     0.000 HD 
BRANCH   7  10
HETATM   10  C   UNL     1     -12.194  14.192  64.281  1.00  0.00    -0.420 C  
BRANCH  10  11
HETATM   11  O   UNL     1     -12.201  13.775  65.655  1.00  0.00    -0.396 OA 
BRANCH  11  12
HETATM   12  C   UNL     1     -11.206  14.312  66.426  1.00  0.00    -0.337 A  
HETATM   13  C   UNL     1      -9.887  14.477  66.018  1.00  0.00    -0.342 A  
HETATM   14  C   UNL     1      -8.947  15.038  66.885  1.00  0.00    -0.276 A  
HETATM   15  C   UNL     1      -9.318  15.467  68.168  1.00  0.00    -0.197 A  
HETATM   16  C   UNL     1     -10.651  15.315  68.565  1.00  0.00    -0.237 A  
HETATM   17  C   UNL     1     -11.590  14.747  67.697  1.00  0.00    -0.374 A  
BRANCH  15  18
HETATM   18  C   UNL     1      -8.292  16.071  69.096  1.00  0.00    -0.244 C  
BRANCH  18  19
HETATM   19  C   UNL     1      -7.045  16.550  68.353  1.00  0.00    -0.160 C  
BRANCH  19  20
HETATM   20  O   UNL     1      -7.298  17.820  67.747  1.00  0.00    -0.195 OA 
BRANCH  20  21
HETATM   21  C   UNL     1      -6.081  18.404  67.280  1.00  0.00    -0.161 C  
BRANCH  21  22
HETATM   22  C   UNL     1      -5.904  19.744  67.917  1.00  0.00    -0.225 C  
HETATM   23  C   UNL     1      -6.969  20.797  67.734  1.00  0.00    -0.339 C  
HETATM   24  C   UNL     1      -6.761  20.168  69.083  1.00  0.00    -0.280 C  
ENDBRANCH  21  22
ENDBRANCH  20  21
ENDBRANCH  19  20
ENDBRANCH  18  19
ENDBRANCH  15  18
ENDBRANCH  11  12
ENDBRANCH  10  11
ENDBRANCH   7  10
ENDBRANCH   6   7
ENDBRANCH   4   6
ENDBRANCH   2   4
TORSDOF 11
ENDMDL
MODEL      157
REMARK 921   NORMALIZED FREE ENERGY PREDICTED BY IDOCK:   -3.98 KCAL/MOL
REMARK 922        TOTAL FREE ENERGY PREDICTED BY IDOCK:   -7.87 KCAL/MOL
REMARK 923 INTER-LIGAND FREE ENERGY PREDICTED BY IDOCK:   -6.92 KCAL/MOL
REMARK 924 INTRA-LIGAND FREE ENERGY PREDICTED BY IDOCK:   -0.95 KCAL/MOL
REMARK 927      BINDING AFFINITY PREDICTED BY RF-SCORE:    0.00 PKD
ROOT
HETATM    1  C   UNL     1      -7.929  19.638  66.170  1.00  0.00    -0.352 C  
HETATM    2  C   UNL     1      -8.459  19.944  67.573  1.00  0.00    -0.329 C  
HETATM    3  C   UNL     1      -9.963  20.219  67.503  1.00  0.00    -0.557 C  
ENDROOT
BRANCH   2   4
HETATM    4  N   UNL     1      -8.155  18.806  68.443  1.00  0.00    -0.329 NA 
HETATM    5  H   UNL     1      -9.008  18.424  68.851  1.00  0.00     0.000 HD 
BRANCH   4   6
HETATM    6  C   UNL     1      -7.380  17.751  67.772  1.00  0.00    -0.202 C  
BRANCH   6   7
HETATM    7  C   UNL     1      -6.772  16.795  68.813  1.00  0.00    -0.185 C  
HETATM    8  O   UNL     1      -6.404  17.534  69.990  1.00  0.00    -0.146 OA 
HETATM    9  H   UNL     1      -6.028  16.943  70.633  1.00  0.00     0.000 HD 
BRANCH   7  10
HETATM   10  C   UNL     1      -7.759  15.684  69.197  1.00  0.00    -0.212 C  
BRANCH  10  11
HETATM   11  O   UNL     1      -8.923  15.785  68.363  1.00  0.00    -0.178 OA 
BRANCH  11  12
HETATM   12  C   UNL     1     -10.116  15.627  69.015  1.00  0.00    -0.227 A  
HETATM   13  C   UNL     1     -11.336  15.390  68.390  1.00  0.00    -0.345 A  
HETATM   14  C   UNL     1     -12.498  15.243  69.149  1.00  0.00     0.026 A  
HETATM   15  C   UNL     1     -12.456  15.307  70.550  1.00  0.00    -0.454 A  
HETATM   16  C   UNL     1     -11.222  15.527  71.172  1.00  0.00    -0.423 A  
HETATM   17  C   UNL     1     -10.059  15.679  70.410  1.00  0.00     0.113 A  
BRANCH  15  18
HETATM   18  C   UNL     1     -13.720  15.147  71.359  1.00  0.00    -0.577 C  
BRANCH  18  19
HETATM   19  C   UNL     1     -13.751  13.831  72.137  1.00  0.00    -0.540 C  
BRANCH  19  20
HETATM   20  O   UNL     1     -13.011  12.832  71.431  1.00  0.00    -0.360 OA 
BRANCH  20  21
HETATM   21  C   UNL     1     -13.286  11.536  71.964  1.00  0.00    -0.292 C  
BRANCH  21  22
HETATM   22  C   UNL     1     -12.851  10.499  70.980  1.00  0.00    -0.502 C  
HETATM   23  C   UNL     1     -12.090  10.922  69.747  1.00  0.00    -0.409 C  
HETATM   24  C   UNL     1     -11.396  10.137  70.825  1.00  0.00    -0.436 C  
ENDBRANCH  21  22
ENDBRANCH  20  21
ENDBRANCH  19  20
ENDBRANCH  18  19
ENDBRANCH  15  18
ENDBRANCH  11  12
ENDBRANCH  10  11
ENDBRANCH   7  10
ENDBRANCH   6   7
ENDBRANCH   4   6
ENDBRANCH   2   4
TORSDOF 11
ENDMDL
MODEL      158
REMARK 921   NORMALIZED FREE ENERGY PREDICTED BY IDOCK:   -3.98 KCAL/MOL
REMARK 922        TOTAL FREE ENERGY PREDICTED BY IDOCK:   -7.86 KCAL/MOL
REMARK 923 INTER-LIGAND FREE ENERGY PREDICTED BY IDOCK:   -7.22 KCAL/MOL
REMARK 924 INTRA-LIGAND FREE ENERGY PREDICTED BY IDOCK:   -0.64 KCAL/MOL
REMARK 927      BINDING AFFINITY PREDICTED BY RF-SCORE:    0.00 PKD
ROOT
HETATM    1  C   UNL     1     -10.008   4.299  64.397  1.00  0.00    -0.096 C  
HETATM    2  C   UNL     1     -10.388   4.544  65.859  1.00  0.00    -0.258 C  
HETATM    3  C   UNL     1      -9.569   3.619  66.762  1.00  0.00    -0.176 C  
ENDROOT
BRANCH   2   4
HETATM    4  N   UNL     1     -10.151   5.956  66.171  1.00  0.00    -0.398 NA 
HETATM    5  H   UNL     1     -10.267   6.535  65.340  1.00  0.00     0.000 HD 
BRANCH   4   6
HETATM    6  C   UNL     1     -10.983   6.456  67.276  1.00  0.00    -0.392 C  
BRANCH   6   7
HETATM    7  C   UNL     1     -10.096   7.076  68.370  1.00  0.00    -0.164 C  
HETATM    8  O   UNL     1      -8.915   6.275  68.546  1.00  0.00    -0.124 OA 
HETATM    9  H   UNL     1      -8.368   6.659  69.222  1.00  0.00     0.000 HD 
BRANCH   7  10
HETATM   10  C   UNL     1      -9.689   8.512  68.013  1.00  0.00    -0.154 C  
BRANCH  10  11
HETATM   11  O   UNL     1     -10.727   9.109  67.221  1.00  0.00    -0.262 OA 
BRANCH  11  12
HETATM   12  C   UNL     1     -11.097  10.369  67.608  1.00  0.00    -0.293 A  
HETATM   13  C   UNL     1     -11.211  11.459  66.752  1.00  0.00    -0.319 A  
HETATM   14  C   UNL     1     -11.596  12.705  67.249  1.00  0.00    -0.428 A  
HETATM   15  C   UNL     1     -11.898  12.877  68.608  1.00  0.00    -0.347 A  
HETATM   16  C   UNL     1     -11.799  11.771  69.459  1.00  0.00    -0.402 A  
HETATM   17  C   UNL     1     -11.407  10.524  68.961  1.00  0.00    -0.319 A  
BRANCH  15  18
HETATM   18  C   UNL     1     -12.313  14.230  69.132  1.00  0.00    -0.165 C  
BRANCH  18  19
HETATM   19  C   UNL     1     -12.537  14.225  70.645  1.00  0.00    -0.355 C  
BRANCH  19  20
HETATM   20  O   UNL     1     -13.648  15.062  70.975  1.00  0.00    -0.410 OA 
BRANCH  20  21
HETATM   21  C   UNL     1     -13.908  15.020  72.378  1.00  0.00    -0.493 C  
BRANCH  21  22
HETATM   22  C   UNL     1     -12.615  15.131  73.119  1.00  0.00    -0.585 C  
HETATM   23  C   UNL     1     -11.991  16.490  73.319  1.00  0.00    -0.448 C  
HETATM   24  C   UNL     1     -12.558  15.744  74.495  1.00  0.00    -0.631 C  
ENDBRANCH  21  22
ENDBRANCH  20  21
ENDBRANCH  19  20
ENDBRANCH  18  19
ENDBRANCH  15  18
ENDBRANCH  11  12
ENDBRANCH  10  11
ENDBRANCH   7  10
ENDBRANCH   6   7
ENDBRANCH   4   6
ENDBRANCH   2   4
TORSDOF 11
ENDMDL
MODEL      159
REMARK 921   NORMALIZED FREE ENERGY PREDICTED BY IDOCK:   -3.96 KCAL/MOL
REMARK 922        TOTAL FREE ENERGY PREDICTED BY IDOCK:   -7.83 KCAL/MOL
REMARK 923 INTER-LIGAND FREE ENERGY PREDICTED BY IDOCK:   -6.51 KCAL/MOL
REMARK 924 INTRA-LIGAND FREE ENERGY PREDICTED BY IDOCK:   -1.33 KCAL/MOL
REMARK 927      BINDING AFFINITY PREDICTED BY RF-SCORE:    0.00 PKD
ROOT
HETATM    1  C   UNL     1     -11.478  12.034  64.326  1.00  0.00    -0.435 C  
HETATM    2  C   UNL     1     -11.684  13.035  65.466  1.00  0.00    -0.368 C  
HETATM    3  C   UNL     1     -12.875  13.940  65.142  1.00  0.00    -0.383 C  
ENDROOT
BRANCH   2   4
HETATM    4  N   UNL     1     -11.892  12.287  66.708  1.00  0.00    -0.591 NA 
HETATM    5  H   UNL     1     -11.917  11.284  66.528  1.00  0.00     0.000 HD 
BRANCH   4   6
HETATM    6  C   UNL     1     -10.905  12.606  67.752  1.00  0.00    -0.221 C  
BRANCH   6   7
HETATM    7  C   UNL     1     -11.619  12.942  69.073  1.00  0.00    -0.322 C  
HETATM    8  O   UNL     1     -12.430  14.117  68.899  1.00  0.00    -0.538 OA 
HETATM    9  H   UNL     1     -12.870  14.323  69.715  1.00  0.00     0.000 HD 
BRANCH   7  10
HETATM   10  C   UNL     1     -12.503  11.778  69.543  1.00  0.00     0.083 C  
BRANCH  10  11
HETATM   11  O   UNL     1     -11.980  11.263  70.776  1.00  0.00    -0.339 OA 
BRANCH  11  12
HETATM   12  C   UNL     1     -11.716   9.920  70.775  1.00  0.00    -0.341 A  
HETATM   13  C   UNL     1     -12.328   8.991  71.610  1.00  0.00    -0.416 A  
HETATM   14  C   UNL     1     -11.986   7.640  71.529  1.00  0.00    -0.331 A  
HETATM   15  C   UNL     1     -11.044   7.190  70.592  1.00  0.00    -0.294 A  
HETATM   16  C   UNL     1     -10.446   8.128  69.742  1.00  0.00    -0.227 A  
HETATM   17  C   UNL     1     -10.785   9.483  69.829  1.00  0.00    -0.259 A  
BRANCH  15  18
HETATM   18  C   UNL     1     -10.683   5.727  70.514  1.00  0.00    -0.361 C  
BRANCH  18  19
HETATM   19  C   UNL     1      -9.175   5.492  70.618  1.00  0.00    -0.150 C  
BRANCH  19  20
HETATM   20  O   UNL     1      -8.747   5.675  71.970  1.00  0.00    -0.133 OA 
BRANCH  20  21
HETATM   21  C   UNL     1      -7.706   6.650  72.038  1.00  0.00    -0.097 C  
BRANCH  21  22
HETATM   22  C   UNL     1      -8.224   7.873  72.723  1.00  0.00    -0.194 C  
HETATM   23  C   UNL     1      -9.318   7.736  73.752  1.00  0.00    -0.286 C  
HETATM   24  C   UNL     1      -7.932   8.128  74.180  1.00  0.00    -0.305 C  
ENDBRANCH  21  22
ENDBRANCH  20  21
ENDBRANCH  19  20
ENDBRANCH  18  19
ENDBRANCH  15  18
ENDBRANCH  11  12
ENDBRANCH  10  11
ENDBRANCH   7  10
ENDBRANCH   6   7
ENDBRANCH   4   6
ENDBRANCH   2   4
TORSDOF 11
ENDMDL
MODEL      160
REMARK 921   NORMALIZED FREE ENERGY PREDICTED BY IDOCK:   -3.96 KCAL/MOL
REMARK 922        TOTAL FREE ENERGY PREDICTED BY IDOCK:   -7.82 KCAL/MOL
REMARK 923 INTER-LIGAND FREE ENERGY PREDICTED BY IDOCK:   -7.05 KCAL/MOL
REMARK 924 INTRA-LIGAND FREE ENERGY PREDICTED BY IDOCK:   -0.77 KCAL/MOL
REMARK 927      BINDING AFFINITY PREDICTED BY RF-SCORE:    0.00 PKD
ROOT
HETATM    1  C   UNL     1     -10.082   4.792  69.207  1.00  0.00    -0.217 C  
HETATM    2  C   UNL     1     -10.938   5.877  69.866  1.00  0.00    -0.374 C  
HETATM    3  C   UNL     1     -10.138   6.548  70.984  1.00  0.00    -0.208 C  
ENDROOT
BRANCH   2   4
HETATM    4  N   UNL     1     -11.343   6.838  68.837  1.00  0.00    -0.561 NA 
HETATM    5  H   UNL     1     -12.335   7.059  68.919  1.00  0.00     0.000 HD 
BRANCH   4   6
HETATM    6  C   UNL     1     -10.533   8.065  68.835  1.00  0.00    -0.191 C  
BRANCH   6   7
HETATM    7  C   UNL     1      -9.646   8.114  67.577  1.00  0.00    -0.157 C  
HETATM    8  O   UNL     1     -10.277   7.380  66.513  1.00  0.00    -0.440 OA 
HETATM    9  H   UNL     1      -9.729   7.411  65.738  1.00  0.00     0.000 HD 
BRANCH   7  10
HETATM   10  C   UNL     1      -9.399   9.559  67.123  1.00  0.00    -0.143 C  
BRANCH  10  11
HETATM   11  O   UNL     1     -10.658  10.169  66.803  1.00  0.00    -0.223 OA 
BRANCH  11  12
HETATM   12  C   UNL     1     -10.654  11.538  66.807  1.00  0.00    -0.250 A  
HETATM   13  C   UNL     1     -10.866  12.329  67.932  1.00  0.00    -0.252 A  
HETATM   14  C   UNL     1     -10.841  13.720  67.828  1.00  0.00    -0.262 A  
HETATM   15  C   UNL     1     -10.578  14.346  66.600  1.00  0.00    -0.282 A  
HETATM   16  C   UNL     1     -10.346  13.544  65.477  1.00  0.00    -0.309 A  
HETATM   17  C   UNL     1     -10.377  12.149  65.582  1.00  0.00    -0.289 A  
BRANCH  15  18
HETATM   18  C   UNL     1     -10.554  15.852  66.501  1.00  0.00    -0.297 C  
BRANCH  18  19
HETATM   19  C   UNL     1      -9.135  16.418  66.572  1.00  0.00    -0.276 C  
BRANCH  19  20
HETATM   20  O   UNL     1      -9.071  17.658  65.863  1.00  0.00    -0.515 OA 
BRANCH  20  21
HETATM   21  C   UNL     1      -8.420  18.654  66.653  1.00  0.00    -0.292 C  
BRANCH  21  22
HETATM   22  C   UNL     1      -9.356  19.799  66.865  1.00  0.00    -0.469 C  
HETATM   23  C   UNL     1     -10.708  19.784  66.195  1.00  0.00    -0.492 C  
HETATM   24  C   UNL     1     -10.609  19.636  67.687  1.00  0.00    -0.556 C  
ENDBRANCH  21  22
ENDBRANCH  20  21
ENDBRANCH  19  20
ENDBRANCH  18  19
ENDBRANCH  15  18
ENDBRANCH  11  12
ENDBRANCH  10  11
ENDBRANCH   7  10
ENDBRANCH   6   7
ENDBRANCH   4   6
ENDBRANCH   2   4
TORSDOF 11
ENDMDL
MODEL      161
REMARK 921   NORMALIZED FREE ENERGY PREDICTED BY IDOCK:   -3.94 KCAL/MOL
REMARK 922        TOTAL FREE ENERGY PREDICTED BY IDOCK:   -7.80 KCAL/MOL
REMARK 923 INTER-LIGAND FREE ENERGY PREDICTED BY IDOCK:   -6.80 KCAL/MOL
REMARK 924 INTRA-LIGAND FREE ENERGY PREDICTED BY IDOCK:   -1.00 KCAL/MOL
REMARK 927      BINDING AFFINITY PREDICTED BY RF-SCORE:    0.00 PKD
ROOT
HETATM    1  C   UNL     1      -8.743   9.261  70.404  1.00  0.00    -0.263 C  
HETATM    2  C   UNL     1      -9.730   8.096  70.290  1.00  0.00    -0.175 C  
HETATM    3  C   UNL     1      -9.504   7.363  68.966  1.00  0.00    -0.148 C  
ENDROOT
BRANCH   2   4
HETATM    4  N   UNL     1      -9.538   7.210  71.440  1.00  0.00    -0.162 NA 
HETATM    5  H   UNL     1      -8.579   7.265  71.784  1.00  0.00     0.000 HD 
BRANCH   4   6
HETATM    6  C   UNL     1     -10.497   7.453  72.529  1.00  0.00    -0.236 C  
BRANCH   6   7
HETATM    7  C   UNL     1     -11.911   7.657  71.955  1.00  0.00    -0.301 C  
HETATM    8  O   UNL     1     -12.729   6.518  72.273  1.00  0.00    -0.552 OA 
HETATM    9  H   UNL     1     -13.602   6.644  71.918  1.00  0.00     0.000 HD 
BRANCH   7  10
HETATM   10  C   UNL     1     -12.565   8.926  72.517  1.00  0.00    -0.293 C  
BRANCH  10  11
HETATM   11  O   UNL     1     -13.413   9.499  71.511  1.00  0.00    -0.376 OA 
BRANCH  11  12
HETATM   12  C   UNL     1     -12.900  10.602  70.882  1.00  0.00    -0.382 A  
HETATM   13  C   UNL     1     -12.329  10.598  69.614  1.00  0.00    -0.209 A  
HETATM   14  C   UNL     1     -11.835  11.781  69.062  1.00  0.00    -0.379 A  
HETATM   15  C   UNL     1     -11.926  12.994  69.760  1.00  0.00    -0.377 A  
HETATM   16  C   UNL     1     -12.519  12.994  71.027  1.00  0.00    -0.385 A  
HETATM   17  C   UNL     1     -13.009  11.806  71.582  1.00  0.00    -0.467 A  
BRANCH  15  18
HETATM   18  C   UNL     1     -11.387  14.267  69.152  1.00  0.00    -0.312 C  
BRANCH  18  19
HETATM   19  C   UNL     1     -11.771  14.417  67.679  1.00  0.00    -0.391 C  
BRANCH  19  20
HETATM   20  O   UNL     1     -10.793  15.208  67.000  1.00  0.00    -0.303 OA 
BRANCH  20  21
HETATM   21  C   UNL     1      -9.744  15.582  67.894  1.00  0.00    -0.211 C  
BRANCH  21  22
HETATM   22  C   UNL     1      -9.356  17.000  67.626  1.00  0.00    -0.241 C  
HETATM   23  C   UNL     1      -8.422  17.309  66.481  1.00  0.00    -0.306 C  
HETATM   24  C   UNL     1      -9.864  17.727  66.407  1.00  0.00    -0.328 C  
ENDBRANCH  21  22
ENDBRANCH  20  21
ENDBRANCH  19  20
ENDBRANCH  18  19
ENDBRANCH  15  18
ENDBRANCH  11  12
ENDBRANCH  10  11
ENDBRANCH   7  10
ENDBRANCH   6   7
ENDBRANCH   4   6
ENDBRANCH   2   4
TORSDOF 11
ENDMDL
MODEL      162
REMARK 921   NORMALIZED FREE ENERGY PREDICTED BY IDOCK:   -3.92 KCAL/MOL
REMARK 922        TOTAL FREE ENERGY PREDICTED BY IDOCK:   -7.77 KCAL/MOL
REMARK 923 INTER-LIGAND FREE ENERGY PREDICTED BY IDOCK:   -7.21 KCAL/MOL
REMARK 924 INTRA-LIGAND FREE ENERGY PREDICTED BY IDOCK:   -0.56 KCAL/MOL
REMARK 927      BINDING AFFINITY PREDICTED BY RF-SCORE:    0.00 PKD
ROOT
HETATM    1  C   UNL     1      -5.686  20.613  69.494  1.00  0.00    -0.399 C  
HETATM    2  C   UNL     1      -6.686  20.400  68.354  1.00  0.00    -0.254 C  
HETATM    3  C   UNL     1      -6.192  21.123  67.100  1.00  0.00    -0.409 C  
ENDROOT
BRANCH   2   4
HETATM    4  N   UNL     1      -6.833  18.960  68.128  1.00  0.00    -0.236 NA 
HETATM    5  H   UNL     1      -6.935  18.464  69.013  1.00  0.00     0.000 HD 
BRANCH   4   6
HETATM    6  C   UNL     1      -7.932  18.625  67.210  1.00  0.00    -0.237 C  
BRANCH   6   7
HETATM    7  C   UNL     1      -8.683  17.380  67.714  1.00  0.00    -0.232 C  
HETATM    8  O   UNL     1      -7.849  16.650  68.630  1.00  0.00    -0.209 OA 
HETATM    9  H   UNL     1      -8.314  15.881  68.941  1.00  0.00     0.000 HD 
BRANCH   7  10
HETATM   10  C   UNL     1      -9.995  17.763  68.414  1.00  0.00    -0.362 C  
BRANCH  10  11
HETATM   11  O   UNL     1     -11.089  17.129  67.735  1.00  0.00    -0.263 OA 
BRANCH  11  12
HETATM   12  C   UNL     1     -11.285  15.813  68.058  1.00  0.00    -0.338 A  
HETATM   13  C   UNL     1     -11.460  15.332  69.352  1.00  0.00    -0.329 A  
HETATM   14  C   UNL     1     -11.653  13.967  69.574  1.00  0.00    -0.350 A  
HETATM   15  C   UNL     1     -11.700  13.063  68.502  1.00  0.00    -0.377 A  
HETATM   16  C   UNL     1     -11.542  13.557  67.203  1.00  0.00    -0.393 A  
HETATM   17  C   UNL     1     -11.342  14.924  66.982  1.00  0.00    -0.345 A  
BRANCH  15  18
HETATM   18  C   UNL     1     -11.910  11.590  68.756  1.00  0.00    -0.394 C  
BRANCH  18  19
HETATM   19  C   UNL     1     -12.262  11.294  70.214  1.00  0.00    -0.345 C  
BRANCH  19  20
HETATM   20  O   UNL     1     -11.222  10.521  70.818  1.00  0.00    -0.300 OA 
BRANCH  20  21
HETATM   21  C   UNL     1     -11.775   9.528  71.684  1.00  0.00    -0.390 C  
BRANCH  21  22
HETATM   22  C   UNL     1     -10.704   8.559  72.064  1.00  0.00    -0.410 C  
HETATM   23  C   UNL     1     -11.056   7.362  72.912  1.00  0.00    -0.397 C  
HETATM   24  C   UNL     1     -10.665   7.172  71.474  1.00  0.00    -0.245 C  
ENDBRANCH  21  22
ENDBRANCH  20  21
ENDBRANCH  19  20
ENDBRANCH  18  19
ENDBRANCH  15  18
ENDBRANCH  11  12
ENDBRANCH  10  11
ENDBRANCH   7  10
ENDBRANCH   6   7
ENDBRANCH   4   6
ENDBRANCH   2   4
TORSDOF 11
ENDMDL
MODEL      163
REMARK 921   NORMALIZED FREE ENERGY PREDICTED BY IDOCK:   -3.92 KCAL/MOL
REMARK 922        TOTAL FREE ENERGY PREDICTED BY IDOCK:   -7.76 KCAL/MOL
REMARK 923 INTER-LIGAND FREE ENERGY PREDICTED BY IDOCK:   -6.78 KCAL/MOL
REMARK 924 INTRA-LIGAND FREE ENERGY PREDICTED BY IDOCK:   -0.98 KCAL/MOL
REMARK 927      BINDING AFFINITY PREDICTED BY RF-SCORE:    0.00 PKD
ROOT
HETATM    1  C   UNL     1      -6.393   6.987  64.204  1.00  0.00    -0.039 C  
HETATM    2  C   UNL     1      -7.877   6.848  64.551  1.00  0.00    -0.115 C  
HETATM    3  C   UNL     1      -8.068   7.031  66.059  1.00  0.00    -0.122 C  
ENDROOT
BRANCH   2   4
HETATM    4  N   UNL     1      -8.630   7.843  63.784  1.00  0.00    -0.360 NA 
HETATM    5  H   UNL     1      -9.245   8.381  64.394  1.00  0.00     0.000 HD 
BRANCH   4   6
HETATM    6  C   UNL     1      -7.772   8.735  62.989  1.00  0.00    -0.118 C  
BRANCH   6   7
HETATM    7  C   UNL     1      -7.774  10.151  63.592  1.00  0.00    -0.142 C  
HETATM    8  O   UNL     1      -6.666  10.901  63.065  1.00  0.00    -0.357 OA 
HETATM    9  H   UNL     1      -6.667  11.775  63.438  1.00  0.00     0.000 HD 
BRANCH   7  10
HETATM   10  C   UNL     1      -9.083  10.890  63.282  1.00  0.00    -0.247 C  
BRANCH  10  11
HETATM   11  O   UNL     1     -10.156  10.258  63.995  1.00  0.00    -0.263 OA 
BRANCH  11  12
HETATM   12  C   UNL     1     -10.535  10.892  65.148  1.00  0.00    -0.246 A  
HETATM   13  C   UNL     1     -11.220  12.102  65.198  1.00  0.00    -0.378 A  
HETATM   14  C   UNL     1     -11.561  12.666  66.429  1.00  0.00    -0.441 A  
HETATM   15  C   UNL     1     -11.245  12.015  67.631  1.00  0.00    -0.343 A  
HETATM   16  C   UNL     1     -10.573  10.790  67.572  1.00  0.00    -0.280 A  
HETATM   17  C   UNL     1     -10.226  10.229  66.337  1.00  0.00    -0.290 A  
BRANCH  15  18
HETATM   18  C   UNL     1     -11.619  12.636  68.956  1.00  0.00    -0.367 C  
BRANCH  18  19
HETATM   19  C   UNL     1     -11.798  14.151  68.859  1.00  0.00    -0.347 C  
BRANCH  19  20
HETATM   20  O   UNL     1     -11.309  14.775  70.049  1.00  0.00    -0.258 OA 
BRANCH  20  21
HETATM   21  C   UNL     1     -12.284  15.673  70.581  1.00  0.00    -0.405 C  
BRANCH  21  22
HETATM   22  C   UNL     1     -12.664  15.224  71.954  1.00  0.00    -0.436 C  
HETATM   23  C   UNL     1     -14.088  15.399  72.423  1.00  0.00    -0.645 C  
HETATM   24  C   UNL     1     -13.548  14.020  72.162  1.00  0.00    -0.582 C  
ENDBRANCH  21  22
ENDBRANCH  20  21
ENDBRANCH  19  20
ENDBRANCH  18  19
ENDBRANCH  15  18
ENDBRANCH  11  12
ENDBRANCH  10  11
ENDBRANCH   7  10
ENDBRANCH   6   7
ENDBRANCH   4   6
ENDBRANCH   2   4
TORSDOF 11
ENDMDL
MODEL      164
REMARK 921   NORMALIZED FREE ENERGY PREDICTED BY IDOCK:   -3.92 KCAL/MOL
REMARK 922        TOTAL FREE ENERGY PREDICTED BY IDOCK:   -7.76 KCAL/MOL
REMARK 923 INTER-LIGAND FREE ENERGY PREDICTED BY IDOCK:   -6.76 KCAL/MOL
REMARK 924 INTRA-LIGAND FREE ENERGY PREDICTED BY IDOCK:   -0.99 KCAL/MOL
REMARK 927      BINDING AFFINITY PREDICTED BY RF-SCORE:    0.00 PKD
ROOT
HETATM    1  C   UNL     1     -12.132  13.732  65.596  1.00  0.00    -0.444 C  
HETATM    2  C   UNL     1     -11.916  12.532  64.671  1.00  0.00    -0.404 C  
HETATM    3  C   UNL     1     -12.207  12.943  63.226  1.00  0.00    -0.481 C  
ENDROOT
BRANCH   2   4
HETATM    4  N   UNL     1     -10.538  12.061  64.834  1.00  0.00    -0.279 NA 
HETATM    5  H   UNL     1     -10.036  12.638  65.509  1.00  0.00     0.000 HD 
BRANCH   4   6
HETATM    6  C   UNL     1     -10.448  10.638  65.193  1.00  0.00    -0.201 C  
BRANCH   6   7
HETATM    7  C   UNL     1      -8.986  10.254  65.481  1.00  0.00    -0.173 C  
HETATM    8  O   UNL     1      -8.146  10.714  64.408  1.00  0.00    -0.330 OA 
HETATM    9  H   UNL     1      -7.243  10.477  64.587  1.00  0.00     0.000 HD 
BRANCH   7  10
HETATM   10  C   UNL     1      -8.498  10.859  66.805  1.00  0.00    -0.139 C  
BRANCH  10  11
HETATM   11  O   UNL     1      -9.589  10.882  67.737  1.00  0.00    -0.161 OA 
BRANCH  11  12
HETATM   12  C   UNL     1      -9.991  12.131  68.126  1.00  0.00    -0.201 A  
HETATM   13  C   UNL     1      -9.274  13.301  67.899  1.00  0.00    -0.213 A  
HETATM   14  C   UNL     1      -9.774  14.528  68.338  1.00  0.00    -0.224 A  
HETATM   15  C   UNL     1     -11.013  14.609  68.991  1.00  0.00    -0.269 A  
HETATM   16  C   UNL     1     -11.737  13.431  69.199  1.00  0.00    -0.375 A  
HETATM   17  C   UNL     1     -11.232  12.200  68.763  1.00  0.00    -0.314 A  
BRANCH  15  18
HETATM   18  C   UNL     1     -11.542  15.943  69.461  1.00  0.00    -0.337 C  
BRANCH  18  19
HETATM   19  C   UNL     1     -10.492  17.051  69.370  1.00  0.00    -0.250 C  
BRANCH  19  20
HETATM   20  O   UNL     1     -10.905  18.034  68.417  1.00  0.00    -0.209 OA 
BRANCH  20  21
HETATM   21  C   UNL     1     -10.467  17.674  67.106  1.00  0.00    -0.319 C  
BRANCH  21  22
HETATM   22  C   UNL     1     -10.159  18.917  66.335  1.00  0.00    -0.457 C  
HETATM   23  C   UNL     1      -9.880  20.199  67.079  1.00  0.00    -0.595 C  
HETATM   24  C   UNL     1      -8.772  19.507  66.335  1.00  0.00    -0.389 C  
ENDBRANCH  21  22
ENDBRANCH  20  21
ENDBRANCH  19  20
ENDBRANCH  18  19
ENDBRANCH  15  18
ENDBRANCH  11  12
ENDBRANCH  10  11
ENDBRANCH   7  10
ENDBRANCH   6   7
ENDBRANCH   4   6
ENDBRANCH   2   4
TORSDOF 11
ENDMDL
MODEL      165
REMARK 921   NORMALIZED FREE ENERGY PREDICTED BY IDOCK:   -3.90 KCAL/MOL
REMARK 922        TOTAL FREE ENERGY PREDICTED BY IDOCK:   -7.73 KCAL/MOL
REMARK 923 INTER-LIGAND FREE ENERGY PREDICTED BY IDOCK:   -6.57 KCAL/MOL
REMARK 924 INTRA-LIGAND FREE ENERGY PREDICTED BY IDOCK:   -1.16 KCAL/MOL
REMARK 927      BINDING AFFINITY PREDICTED BY RF-SCORE:    0.00 PKD
ROOT
HETATM    1  C   UNL     1     -12.781  13.613  70.628  1.00  0.00    -0.303 C  
HETATM    2  C   UNL     1     -12.147  14.988  70.407  1.00  0.00    -0.333 C  
HETATM    3  C   UNL     1     -12.280  15.822  71.684  1.00  0.00    -0.523 C  
ENDROOT
BRANCH   2   4
HETATM    4  N   UNL     1     -10.745  14.799  70.027  1.00  0.00    -0.460 NA 
HETATM    5  H   UNL     1     -10.659  14.076  69.313  1.00  0.00     0.000 HD 
BRANCH   4   6
HETATM    6  C   UNL     1     -10.086  16.041  69.595  1.00  0.00    -0.244 C  
BRANCH   6   7
HETATM    7  C   UNL     1     -10.843  16.658  68.405  1.00  0.00    -0.361 C  
HETATM    8  O   UNL     1     -10.388  18.005  68.190  1.00  0.00    -0.364 OA 
HETATM    9  H   UNL     1     -10.856  18.385  67.455  1.00  0.00     0.000 HD 
BRANCH   7  10
HETATM   10  C   UNL     1     -10.634  15.839  67.124  1.00  0.00    -0.313 C  
BRANCH  10  11
HETATM   11  O   UNL     1     -11.653  14.830  67.043  1.00  0.00    -0.362 OA 
BRANCH  11  12
HETATM   12  C   UNL     1     -11.243  13.636  66.514  1.00  0.00    -0.310 A  
HETATM   13  C   UNL     1     -12.041  12.792  65.750  1.00  0.00    -0.505 A  
HETATM   14  C   UNL     1     -11.525  11.593  65.256  1.00  0.00    -0.173 A  
HETATM   15  C   UNL     1     -10.191  11.229  65.496  1.00  0.00    -0.312 A  
HETATM   16  C   UNL     1      -9.389  12.093  66.249  1.00  0.00    -0.221 A  
HETATM   17  C   UNL     1      -9.910  13.292  66.749  1.00  0.00    -0.264 A  
BRANCH  15  18
HETATM   18  C   UNL     1      -9.645   9.930  64.956  1.00  0.00    -0.364 C  
BRANCH  18  19
HETATM   19  C   UNL     1      -9.417   8.892  66.056  1.00  0.00    -0.252 C  
BRANCH  19  20
HETATM   20  O   UNL     1     -10.661   8.286  66.418  1.00  0.00    -0.065 OA 
BRANCH  20  21
HETATM   21  C   UNL     1     -10.441   7.167  67.277  1.00  0.00    -0.301 C  
BRANCH  21  22
HETATM   22  C   UNL     1      -9.740   7.629  68.513  1.00  0.00    -0.162 C  
HETATM   23  C   UNL     1     -10.459   7.566  69.839  1.00  0.00    -0.232 C  
HETATM   24  C   UNL     1      -9.300   6.648  69.570  1.00  0.00    -0.145 C  
ENDBRANCH  21  22
ENDBRANCH  20  21
ENDBRANCH  19  20
ENDBRANCH  18  19
ENDBRANCH  15  18
ENDBRANCH  11  12
ENDBRANCH  10  11
ENDBRANCH   7  10
ENDBRANCH   6   7
ENDBRANCH   4   6
ENDBRANCH   2   4
TORSDOF 11
ENDMDL
MODEL      166
REMARK 921   NORMALIZED FREE ENERGY PREDICTED BY IDOCK:   -3.90 KCAL/MOL
REMARK 922        TOTAL FREE ENERGY PREDICTED BY IDOCK:   -7.73 KCAL/MOL
REMARK 923 INTER-LIGAND FREE ENERGY PREDICTED BY IDOCK:   -6.85 KCAL/MOL
REMARK 924 INTRA-LIGAND FREE ENERGY PREDICTED BY IDOCK:   -0.88 KCAL/MOL
REMARK 927      BINDING AFFINITY PREDICTED BY RF-SCORE:    0.00 PKD
ROOT
HETATM    1  C   UNL     1      -9.359   9.822  65.132  1.00  0.00    -0.322 C  
HETATM    2  C   UNL     1      -9.284  10.967  66.146  1.00  0.00    -0.190 C  
HETATM    3  C   UNL     1      -7.830  11.171  66.579  1.00  0.00    -0.151 C  
ENDROOT
BRANCH   2   4
HETATM    4  N   UNL     1      -9.840  12.173  65.527  1.00  0.00    -0.280 NA 
HETATM    5  H   UNL     1      -9.659  12.181  64.523  1.00  0.00     0.000 HD 
BRANCH   4   6
HETATM    6  C   UNL     1     -11.272  12.361  65.802  1.00  0.00    -0.333 C  
BRANCH   6   7
HETATM    7  C   UNL     1     -11.469  13.442  66.880  1.00  0.00    -0.342 C  
HETATM    8  O   UNL     1     -12.549  14.311  66.499  1.00  0.00    -0.545 OA 
HETATM    9  H   UNL     1     -12.671  14.978  67.165  1.00  0.00     0.000 HD 
BRANCH   7  10
HETATM   10  C   UNL     1     -11.775  12.818  68.248  1.00  0.00    -0.344 C  
BRANCH  10  11
HETATM   11  O   UNL     1     -11.961  11.404  68.086  1.00  0.00    -0.594 OA 
BRANCH  11  12
HETATM   12  C   UNL     1     -11.760  10.662  69.219  1.00  0.00    -0.264 A  
HETATM   13  C   UNL     1     -12.525  10.758  70.376  1.00  0.00    -0.430 A  
HETATM   14  C   UNL     1     -12.235   9.952  71.479  1.00  0.00    -0.505 A  
HETATM   15  C   UNL     1     -11.190   9.018  71.433  1.00  0.00    -0.394 A  
HETATM   16  C   UNL     1     -10.437   8.913  70.259  1.00  0.00    -0.239 A  
HETATM   17  C   UNL     1     -10.725   9.726  69.156  1.00  0.00    -0.242 A  
BRANCH  15  18
HETATM   18  C   UNL     1     -10.887   8.153  72.633  1.00  0.00    -0.429 C  
BRANCH  18  19
HETATM   19  C   UNL     1     -10.437   6.746  72.238  1.00  0.00    -0.208 C  
BRANCH  19  20
HETATM   20  O   UNL     1      -9.120   6.498  72.737  1.00  0.00    -0.138 OA 
BRANCH  20  21
HETATM   21  C   UNL     1      -8.988   5.137  73.147  1.00  0.00    -0.118 C  
BRANCH  21  22
HETATM   22  C   UNL     1     -10.243   4.400  72.809  1.00  0.00    -0.233 C  
HETATM   23  C   UNL     1     -10.198   2.902  72.635  1.00  0.00    -0.234 C  
HETATM   24  C   UNL     1     -10.910   3.498  73.817  1.00  0.00    -0.317 C  
ENDBRANCH  21  22
ENDBRANCH  20  21
ENDBRANCH  19  20
ENDBRANCH  18  19
ENDBRANCH  15  18
ENDBRANCH  11  12
ENDBRANCH  10  11
ENDBRANCH   7  10
ENDBRANCH   6   7
ENDBRANCH   4   6
ENDBRANCH   2   4
TORSDOF 11
ENDMDL
MODEL      167
REMARK 921   NORMALIZED FREE ENERGY PREDICTED BY IDOCK:   -3.90 KCAL/MOL
REMARK 922        TOTAL FREE ENERGY PREDICTED BY IDOCK:   -7.73 KCAL/MOL
REMARK 923 INTER-LIGAND FREE ENERGY PREDICTED BY IDOCK:   -6.88 KCAL/MOL
REMARK 924 INTRA-LIGAND FREE ENERGY PREDICTED BY IDOCK:   -0.85 KCAL/MOL
REMARK 927      BINDING AFFINITY PREDICTED BY RF-SCORE:    0.00 PKD
ROOT
HETATM    1  C   UNL     1      -6.212  19.422  67.194  1.00  0.00    -0.191 C  
HETATM    2  C   UNL     1      -6.585  18.201  66.350  1.00  0.00    -0.218 C  
HETATM    3  C   UNL     1      -6.087  16.930  67.041  1.00  0.00    -0.225 C  
ENDROOT
BRANCH   2   4
HETATM    4  N   UNL     1      -8.039  18.186  66.171  1.00  0.00    -0.470 NA 
HETATM    5  H   UNL     1      -8.469  17.469  66.756  1.00  0.00     0.000 HD 
BRANCH   4   6
HETATM    6  C   UNL     1      -8.668  19.495  66.403  1.00  0.00    -0.361 C  
BRANCH   6   7
HETATM    7  C   UNL     1     -10.191  19.335  66.547  1.00  0.00    -0.435 C  
HETATM    8  O   UNL     1     -10.838  19.752  65.332  1.00  0.00    -0.413 OA 
HETATM    9  H   UNL     1     -11.778  19.653  65.422  1.00  0.00     0.000 HD 
BRANCH   7  10
HETATM   10  C   UNL     1     -10.575  17.882  66.855  1.00  0.00    -0.265 C  
BRANCH  10  11
HETATM   11  O   UNL     1     -10.346  17.624  68.248  1.00  0.00    -0.347 OA 
BRANCH  11  12
HETATM   12  C   UNL     1     -10.731  16.382  68.677  1.00  0.00    -0.317 A  
HETATM   13  C   UNL     1     -10.806  15.991  70.010  1.00  0.00    -0.353 A  
HETATM   14  C   UNL     1     -11.212  14.698  70.342  1.00  0.00    -0.170 A  
HETATM   15  C   UNL     1     -11.576  13.780  69.345  1.00  0.00    -0.365 A  
HETATM   16  C   UNL     1     -11.517  14.186  68.008  1.00  0.00    -0.342 A  
HETATM   17  C   UNL     1     -11.104  15.481  67.677  1.00  0.00    -0.311 A  
BRANCH  15  18
HETATM   18  C   UNL     1     -12.014  12.384  69.717  1.00  0.00    -0.359 C  
BRANCH  18  19
HETATM   19  C   UNL     1     -10.951  11.334  69.393  1.00  0.00    -0.228 C  
BRANCH  19  20
HETATM   20  O   UNL     1     -11.458  10.026  69.669  1.00  0.00    -0.226 OA 
BRANCH  20  21
HETATM   21  C   UNL     1     -12.696  10.109  70.378  1.00  0.00    -0.126 C  
BRANCH  21  22
HETATM   22  C   UNL     1     -12.860   8.887  71.221  1.00  0.00    -0.272 C  
HETATM   23  C   UNL     1     -13.097   9.037  72.704  1.00  0.00    -0.358 C  
HETATM   24  C   UNL     1     -14.198   8.527  71.816  1.00  0.00    -0.525 C  
ENDBRANCH  21  22
ENDBRANCH  20  21
ENDBRANCH  19  20
ENDBRANCH  18  19
ENDBRANCH  15  18
ENDBRANCH  11  12
ENDBRANCH  10  11
ENDBRANCH   7  10
ENDBRANCH   6   7
ENDBRANCH   4   6
ENDBRANCH   2   4
TORSDOF 11
ENDMDL
MODEL      168
REMARK 921   NORMALIZED FREE ENERGY PREDICTED BY IDOCK:   -3.89 KCAL/MOL
REMARK 922        TOTAL FREE ENERGY PREDICTED BY IDOCK:   -7.72 KCAL/MOL
REMARK 923 INTER-LIGAND FREE ENERGY PREDICTED BY IDOCK:   -6.11 KCAL/MOL
REMARK 924 INTRA-LIGAND FREE ENERGY PREDICTED BY IDOCK:   -1.61 KCAL/MOL
REMARK 927      BINDING AFFINITY PREDICTED BY RF-SCORE:    0.00 PKD
ROOT
HETATM    1  C   UNL     1     -11.202   6.387  69.132  1.00  0.00    -0.421 C  
HETATM    2  C   UNL     1     -10.464   7.661  68.714  1.00  0.00    -0.189 C  
HETATM    3  C   UNL     1      -9.471   8.058  69.809  1.00  0.00    -0.159 C  
ENDROOT
BRANCH   2   4
HETATM    4  N   UNL     1      -9.792   7.411  67.436  1.00  0.00    -0.157 NA 
HETATM    5  H   UNL     1     -10.392   7.674  66.655  1.00  0.00     0.000 HD 
BRANCH   4   6
HETATM    6  C   UNL     1      -8.479   8.067  67.331  1.00  0.00    -0.126 C  
BRANCH   6   7
HETATM    7  C   UNL     1      -8.298   8.671  65.927  1.00  0.00    -0.136 C  
HETATM    8  O   UNL     1      -9.105   7.947  64.983  1.00  0.00    -0.358 OA 
HETATM    9  H   UNL     1      -8.993   8.320  64.116  1.00  0.00     0.000 HD 
BRANCH   7  10
HETATM   10  C   UNL     1      -8.691  10.154  65.901  1.00  0.00    -0.146 C  
BRANCH  10  11
HETATM   11  O   UNL     1     -10.121  10.259  65.935  1.00  0.00    -0.246 OA 
BRANCH  11  12
HETATM   12  C   UNL     1     -10.609  11.265  66.725  1.00  0.00    -0.260 A  
HETATM   13  C   UNL     1     -11.569  12.190  66.328  1.00  0.00    -0.424 A  
HETATM   14  C   UNL     1     -12.000  13.179  67.213  1.00  0.00    -0.389 A  
HETATM   15  C   UNL     1     -11.494  13.246  68.521  1.00  0.00    -0.347 A  
HETATM   16  C   UNL     1     -10.543  12.300  68.918  1.00  0.00    -0.170 A  
HETATM   17  C   UNL     1     -10.108  11.312  68.028  1.00  0.00    -0.192 A  
BRANCH  15  18
HETATM   18  C   UNL     1     -11.968  14.321  69.468  1.00  0.00    -0.384 C  
BRANCH  18  19
HETATM   19  C   UNL     1     -12.982  13.796  70.485  1.00  0.00    -0.055 C  
BRANCH  19  20
HETATM   20  O   UNL     1     -12.333  12.921  71.411  1.00  0.00    -0.210 OA 
BRANCH  20  21
HETATM   21  C   UNL     1     -13.226  11.890  71.834  1.00  0.00    -0.362 C  
BRANCH  21  22
HETATM   22  C   UNL     1     -12.913  10.634  71.088  1.00  0.00    -0.483 C  
HETATM   23  C   UNL     1     -12.050   9.581  71.739  1.00  0.00    -0.459 C  
HETATM   24  C   UNL     1     -13.510   9.314  71.504  1.00  0.00    -0.437 C  
ENDBRANCH  21  22
ENDBRANCH  20  21
ENDBRANCH  19  20
ENDBRANCH  18  19
ENDBRANCH  15  18
ENDBRANCH  11  12
ENDBRANCH  10  11
ENDBRANCH   7  10
ENDBRANCH   6   7
ENDBRANCH   4   6
ENDBRANCH   2   4
TORSDOF 11
ENDMDL
MODEL      169
REMARK 921   NORMALIZED FREE ENERGY PREDICTED BY IDOCK:   -3.89 KCAL/MOL
REMARK 922        TOTAL FREE ENERGY PREDICTED BY IDOCK:   -7.71 KCAL/MOL
REMARK 923 INTER-LIGAND FREE ENERGY PREDICTED BY IDOCK:   -7.04 KCAL/MOL
REMARK 924 INTRA-LIGAND FREE ENERGY PREDICTED BY IDOCK:   -0.67 KCAL/MOL
REMARK 927      BINDING AFFINITY PREDICTED BY RF-SCORE:    0.00 PKD
ROOT
HETATM    1  C   UNL     1      -6.845  19.289  68.054  1.00  0.00    -0.267 C  
HETATM    2  C   UNL     1      -7.385  20.561  67.395  1.00  0.00    -0.326 C  
HETATM    3  C   UNL     1      -6.232  21.325  66.740  1.00  0.00    -0.392 C  
ENDROOT
BRANCH   2   4
HETATM    4  N   UNL     1      -8.408  20.180  66.418  1.00  0.00    -0.490 NA 
HETATM    5  H   UNL     1      -8.174  19.291  65.977  1.00  0.00     0.000 HD 
BRANCH   4   6
HETATM    6  C   UNL     1      -9.766  20.142  66.982  1.00  0.00    -0.437 C  
BRANCH   6   7
HETATM    7  C   UNL     1     -10.581  19.012  66.329  1.00  0.00    -0.412 C  
HETATM    8  O   UNL     1     -11.006  19.421  65.017  1.00  0.00    -0.341 OA 
HETATM    9  H   UNL     1     -11.510  18.723  64.614  1.00  0.00     0.000 HD 
BRANCH   7  10
HETATM   10  C   UNL     1      -9.760  17.721  66.219  1.00  0.00    -0.267 C  
BRANCH  10  11
HETATM   11  O   UNL     1     -10.384  16.850  65.264  1.00  0.00    -0.624 OA 
BRANCH  11  12
HETATM   12  C   UNL     1     -10.390  15.525  65.607  1.00  0.00    -0.384 A  
HETATM   13  C   UNL     1      -9.414  14.901  66.378  1.00  0.00    -0.327 A  
HETATM   14  C   UNL     1      -9.515  13.540  66.671  1.00  0.00    -0.271 A  
HETATM   15  C   UNL     1     -10.608  12.785  66.220  1.00  0.00    -0.275 A  
HETATM   16  C   UNL     1     -11.595  13.424  65.462  1.00  0.00    -0.346 A  
HETATM   17  C   UNL     1     -11.489  14.787  65.163  1.00  0.00    -0.371 A  
BRANCH  15  18
HETATM   18  C   UNL     1     -10.704  11.314  66.545  1.00  0.00    -0.323 C  
BRANCH  18  19
HETATM   19  C   UNL     1     -11.336  11.059  67.914  1.00  0.00    -0.311 C  
BRANCH  19  20
HETATM   20  O   UNL     1     -10.315  10.791  68.878  1.00  0.00    -0.184 OA 
BRANCH  20  21
HETATM   21  C   UNL     1      -9.316   9.934  68.324  1.00  0.00    -0.132 C  
BRANCH  21  22
HETATM   22  C   UNL     1      -9.373   8.608  69.011  1.00  0.00    -0.146 C  
HETATM   23  C   UNL     1      -9.436   8.557  70.517  1.00  0.00    -0.193 C  
HETATM   24  C   UNL     1     -10.630   8.145  69.703  1.00  0.00    -0.223 C  
ENDBRANCH  21  22
ENDBRANCH  20  21
ENDBRANCH  19  20
ENDBRANCH  18  19
ENDBRANCH  15  18
ENDBRANCH  11  12
ENDBRANCH  10  11
ENDBRANCH   7  10
ENDBRANCH   6   7
ENDBRANCH   4   6
ENDBRANCH   2   4
TORSDOF 11
ENDMDL
MODEL      170
REMARK 921   NORMALIZED FREE ENERGY PREDICTED BY IDOCK:   -3.89 KCAL/MOL
REMARK 922        TOTAL FREE ENERGY PREDICTED BY IDOCK:   -7.71 KCAL/MOL
REMARK 923 INTER-LIGAND FREE ENERGY PREDICTED BY IDOCK:   -6.69 KCAL/MOL
REMARK 924 INTRA-LIGAND FREE ENERGY PREDICTED BY IDOCK:   -1.01 KCAL/MOL
REMARK 927      BINDING AFFINITY PREDICTED BY RF-SCORE:    0.00 PKD
ROOT
HETATM    1  C   UNL     1     -14.042  13.902  72.296  1.00  0.00    -0.632 C  
HETATM    2  C   UNL     1     -13.712  15.386  72.115  1.00  0.00    -0.515 C  
HETATM    3  C   UNL     1     -12.497  15.747  72.974  1.00  0.00    -0.581 C  
ENDROOT
BRANCH   2   4
HETATM    4  N   UNL     1     -13.465  15.636  70.693  1.00  0.00    -0.800 NA 
HETATM    5  H   UNL     1     -13.999  16.442  70.370  1.00  0.00     0.000 HD 
BRANCH   4   6
HETATM    6  C   UNL     1     -12.039  15.791  70.369  1.00  0.00    -0.370 C  
BRANCH   6   7
HETATM    7  C   UNL     1     -11.859  16.025  68.858  1.00  0.00    -0.242 C  
HETATM    8  O   UNL     1     -10.568  16.605  68.609  1.00  0.00    -0.295 OA 
HETATM    9  H   UNL     1     -10.458  16.749  67.676  1.00  0.00     0.000 HD 
BRANCH   7  10
HETATM   10  C   UNL     1     -11.989  14.714  68.071  1.00  0.00    -0.257 C  
BRANCH  10  11
HETATM   11  O   UNL     1     -11.272  14.839  66.834  1.00  0.00    -0.332 OA 
BRANCH  11  12
HETATM   12  C   UNL     1     -10.801  13.662  66.317  1.00  0.00    -0.282 A  
HETATM   13  C   UNL     1     -10.004  12.755  67.008  1.00  0.00    -0.231 A  
HETATM   14  C   UNL     1      -9.576  11.581  66.387  1.00  0.00    -0.230 A  
HETATM   15  C   UNL     1      -9.959  11.281  65.071  1.00  0.00    -0.323 A  
HETATM   16  C   UNL     1     -10.776  12.189  64.389  1.00  0.00    -0.366 A  
HETATM   17  C   UNL     1     -11.200  13.369  65.011  1.00  0.00    -0.332 A  
BRANCH  15  18
HETATM   18  C   UNL     1      -9.489  10.007  64.411  1.00  0.00    -0.349 C  
BRANCH  18  19
HETATM   19  C   UNL     1      -8.287  10.235  63.494  1.00  0.00    -0.169 C  
BRANCH  19  20
HETATM   20  O   UNL     1      -7.075  10.123  64.244  1.00  0.00    -0.130 OA 
BRANCH  20  21
HETATM   21  C   UNL     1      -6.780   8.752  64.514  1.00  0.00    -0.070 C  
BRANCH  21  22
HETATM   22  C   UNL     1      -6.112   8.649  65.847  1.00  0.00    -0.048 C  
HETATM   23  C   UNL     1      -6.192   9.811  66.806  1.00  0.00    -0.064 C  
HETATM   24  C   UNL     1      -6.921   8.533  67.114  1.00  0.00    -0.075 C  
ENDBRANCH  21  22
ENDBRANCH  20  21
ENDBRANCH  19  20
ENDBRANCH  18  19
ENDBRANCH  15  18
ENDBRANCH  11  12
ENDBRANCH  10  11
ENDBRANCH   7  10
ENDBRANCH   6   7
ENDBRANCH   4   6
ENDBRANCH   2   4
TORSDOF 11
ENDMDL
MODEL      171
REMARK 921   NORMALIZED FREE ENERGY PREDICTED BY IDOCK:   -3.88 KCAL/MOL
REMARK 922        TOTAL FREE ENERGY PREDICTED BY IDOCK:   -7.69 KCAL/MOL
REMARK 923 INTER-LIGAND FREE ENERGY PREDICTED BY IDOCK:   -6.28 KCAL/MOL
REMARK 924 INTRA-LIGAND FREE ENERGY PREDICTED BY IDOCK:   -1.41 KCAL/MOL
REMARK 927      BINDING AFFINITY PREDICTED BY RF-SCORE:    0.00 PKD
ROOT
HETATM    1  C   UNL     1      -6.956   7.060  64.726  1.00  0.00    -0.055 C  
HETATM    2  C   UNL     1      -8.388   7.287  65.218  1.00  0.00    -0.104 C  
HETATM    3  C   UNL     1      -8.413   7.246  66.748  1.00  0.00    -0.121 C  
ENDROOT
BRANCH   2   4
HETATM    4  N   UNL     1      -8.859   8.574  64.701  1.00  0.00    -0.414 NA 
HETATM    5  H   UNL     1      -9.669   8.900  65.227  1.00  0.00     0.000 HD 
BRANCH   4   6
HETATM    6  C   UNL     1      -7.810   9.605  64.664  1.00  0.00    -0.133 C  
BRANCH   6   7
HETATM    7  C   UNL     1      -7.999  10.597  65.826  1.00  0.00    -0.152 C  
HETATM    8  O   UNL     1      -6.808  11.387  65.983  1.00  0.00    -0.369 OA 
HETATM    9  H   UNL     1      -6.925  11.999  66.700  1.00  0.00     0.000 HD 
BRANCH   7  10
HETATM   10  C   UNL     1      -9.197  11.524  65.581  1.00  0.00    -0.170 C  
BRANCH  10  11
HETATM   11  O   UNL     1     -10.409  10.798  65.834  1.00  0.00    -0.254 OA 
BRANCH  11  12
HETATM   12  C   UNL     1     -10.882  10.893  67.115  1.00  0.00    -0.280 A  
HETATM   13  C   UNL     1     -11.539  12.002  67.638  1.00  0.00    -0.392 A  
HETATM   14  C   UNL     1     -11.984  11.997  68.961  1.00  0.00    -0.321 A  
HETATM   15  C   UNL     1     -11.801  10.871  69.777  1.00  0.00    -0.419 A  
HETATM   16  C   UNL     1     -11.156   9.752  69.239  1.00  0.00    -0.184 A  
HETATM   17  C   UNL     1     -10.706   9.761  67.914  1.00  0.00    -0.312 A  
BRANCH  15  18
HETATM   18  C   UNL     1     -12.286  10.878  71.207  1.00  0.00    -0.448 C  
BRANCH  18  19
HETATM   19  C   UNL     1     -13.376   9.835  71.457  1.00  0.00    -0.385 C  
BRANCH  19  20
HETATM   20  O   UNL     1     -12.836   8.734  72.192  1.00  0.00    -0.350 OA 
BRANCH  20  21
HETATM   21  C   UNL     1     -13.245   7.496  71.611  1.00  0.00    -0.356 C  
BRANCH  21  22
HETATM   22  C   UNL     1     -12.095   6.542  71.632  1.00  0.00    -0.381 C  
HETATM   23  C   UNL     1     -11.294   6.320  70.372  1.00  0.00    -0.440 C  
HETATM   24  C   UNL     1     -10.674   7.037  71.538  1.00  0.00    -0.244 C  
ENDBRANCH  21  22
ENDBRANCH  20  21
ENDBRANCH  19  20
ENDBRANCH  18  19
ENDBRANCH  15  18
ENDBRANCH  11  12
ENDBRANCH  10  11
ENDBRANCH   7  10
ENDBRANCH   6   7
ENDBRANCH   4   6
ENDBRANCH   2   4
TORSDOF 11
ENDMDL
MODEL      172
REMARK 921   NORMALIZED FREE ENERGY PREDICTED BY IDOCK:   -3.86 KCAL/MOL
REMARK 922        TOTAL FREE ENERGY PREDICTED BY IDOCK:   -7.67 KCAL/MOL
REMARK 923 INTER-LIGAND FREE ENERGY PREDICTED BY IDOCK:   -6.57 KCAL/MOL
REMARK 924 INTRA-LIGAND FREE ENERGY PREDICTED BY IDOCK:   -1.10 KCAL/MOL
REMARK 927      BINDING AFFINITY PREDICTED BY RF-SCORE:    0.00 PKD
ROOT
HETATM    1  C   UNL     1      -8.774  13.779  67.245  1.00  0.00    -0.226 C  
HETATM    2  C   UNL     1      -9.436  15.159  67.215  1.00  0.00    -0.210 C  
HETATM    3  C   UNL     1      -9.448  15.688  65.778  1.00  0.00    -0.338 C  
ENDROOT
BRANCH   2   4
HETATM    4  N   UNL     1     -10.791  15.036  67.759  1.00  0.00    -0.276 NA 
HETATM    5  H   UNL     1     -10.892  14.170  68.287  1.00  0.00     0.000 HD 
BRANCH   4   6
HETATM    6  C   UNL     1     -11.198  16.193  68.571  1.00  0.00    -0.365 C  
BRANCH   6   7
HETATM    7  C   UNL     1     -11.544  15.743  70.001  1.00  0.00    -0.357 C  
HETATM    8  O   UNL     1     -12.953  15.913  70.233  1.00  0.00    -0.673 OA 
HETATM    9  H   UNL     1     -13.166  15.635  71.117  1.00  0.00     0.000 HD 
BRANCH   7  10
HETATM   10  C   UNL     1     -11.163  14.274  70.233  1.00  0.00     0.004 C  
BRANCH  10  11
HETATM   11  O   UNL     1     -12.126  13.434  69.580  1.00  0.00    -0.312 OA 
BRANCH  11  12
HETATM   12  C   UNL     1     -12.188  12.150  70.053  1.00  0.00    -0.198 A  
HETATM   13  C   UNL     1     -11.477  11.077  69.527  1.00  0.00    -0.370 A  
HETATM   14  C   UNL     1     -11.611   9.804  70.084  1.00  0.00    -0.239 A  
HETATM   15  C   UNL     1     -12.441   9.588  71.195  1.00  0.00    -0.399 A  
HETATM   16  C   UNL     1     -13.138  10.677  71.730  1.00  0.00    -0.571 A  
HETATM   17  C   UNL     1     -13.007  11.951  71.166  1.00  0.00    -0.266 A  
BRANCH  15  18
HETATM   18  C   UNL     1     -12.578   8.207  71.788  1.00  0.00    -0.360 C  
BRANCH  18  19
HETATM   19  C   UNL     1     -11.256   7.679  72.347  1.00  0.00    -0.320 C  
BRANCH  19  20
HETATM   20  O   UNL     1     -11.064   6.322  71.942  1.00  0.00    -0.244 OA 
BRANCH  20  21
HETATM   21  C   UNL     1      -9.803   6.169  71.288  1.00  0.00    -0.176 C  
BRANCH  21  22
HETATM   22  C   UNL     1      -9.859   6.839  69.954  1.00  0.00    -0.174 C  
HETATM   23  C   UNL     1      -9.366   6.101  68.734  1.00  0.00    -0.123 C  
HETATM   24  C   UNL     1     -10.833   6.386  68.897  1.00  0.00    -0.382 C  
ENDBRANCH  21  22
ENDBRANCH  20  21
ENDBRANCH  19  20
ENDBRANCH  18  19
ENDBRANCH  15  18
ENDBRANCH  11  12
ENDBRANCH  10  11
ENDBRANCH   7  10
ENDBRANCH   6   7
ENDBRANCH   4   6
ENDBRANCH   2   4
TORSDOF 11
ENDMDL
MODEL      173
REMARK 921   NORMALIZED FREE ENERGY PREDICTED BY IDOCK:   -3.83 KCAL/MOL
REMARK 922        TOTAL FREE ENERGY PREDICTED BY IDOCK:   -7.62 KCAL/MOL
REMARK 923 INTER-LIGAND FREE ENERGY PREDICTED BY IDOCK:   -6.27 KCAL/MOL
REMARK 924 INTRA-LIGAND FREE ENERGY PREDICTED BY IDOCK:   -1.35 KCAL/MOL
REMARK 927      BINDING AFFINITY PREDICTED BY RF-SCORE:    0.00 PKD
ROOT
HETATM    1  C   UNL     1     -10.151  19.922  68.176  1.00  0.00    -0.569 C  
HETATM    2  C   UNL     1      -9.560  19.432  66.851  1.00  0.00    -0.339 C  
HETATM    3  C   UNL     1     -10.659  19.390  65.787  1.00  0.00    -0.490 C  
ENDROOT
BRANCH   2   4
HETATM    4  N   UNL     1      -8.469  20.331  66.469  1.00  0.00    -0.517 NA 
HETATM    5  H   UNL     1      -8.121  20.843  67.279  1.00  0.00     0.000 HD 
BRANCH   4   6
HETATM    6  C   UNL     1      -7.369  19.647  65.772  1.00  0.00    -0.304 C  
BRANCH   6   7
HETATM    7  C   UNL     1      -6.138  19.546  66.690  1.00  0.00    -0.164 C  
HETATM    8  O   UNL     1      -6.436  20.146  67.963  1.00  0.00    -0.241 OA 
HETATM    9  H   UNL     1      -5.676  20.083  68.530  1.00  0.00     0.000 HD 
BRANCH   7  10
HETATM   10  C   UNL     1      -5.716  18.086  66.902  1.00  0.00    -0.142 C  
BRANCH  10  11
HETATM   11  O   UNL     1      -6.222  17.632  68.166  1.00  0.00    -0.162 OA 
BRANCH  11  12
HETATM   12  C   UNL     1      -7.348  16.857  68.093  1.00  0.00    -0.179 A  
HETATM   13  C   UNL     1      -8.331  16.792  69.075  1.00  0.00    -0.163 A  
HETATM   14  C   UNL     1      -9.444  15.968  68.902  1.00  0.00    -0.235 A  
HETATM   15  C   UNL     1      -9.606  15.213  67.731  1.00  0.00    -0.203 A  
HETATM   16  C   UNL     1      -8.623  15.298  66.739  1.00  0.00    -0.300 A  
HETATM   17  C   UNL     1      -7.505  16.121  66.916  1.00  0.00    -0.266 A  
BRANCH  15  18
HETATM   18  C   UNL     1     -10.814  14.325  67.557  1.00  0.00    -0.284 C  
BRANCH  18  19
HETATM   19  C   UNL     1     -10.965  13.822  66.121  1.00  0.00    -0.292 C  
BRANCH  19  20
HETATM   20  O   UNL     1     -11.525  12.506  66.123  1.00  0.00    -0.335 OA 
BRANCH  20  21
HETATM   21  C   UNL     1     -11.772  12.070  67.460  1.00  0.00    -0.280 C  
BRANCH  21  22
HETATM   22  C   UNL     1     -11.067  10.772  67.688  1.00  0.00    -0.384 C  
HETATM   23  C   UNL     1      -9.589  10.775  67.989  1.00  0.00    -0.172 C  
HETATM   24  C   UNL     1     -10.570  10.389  69.059  1.00  0.00    -0.247 C  
ENDBRANCH  21  22
ENDBRANCH  20  21
ENDBRANCH  19  20
ENDBRANCH  18  19
ENDBRANCH  15  18
ENDBRANCH  11  12
ENDBRANCH  10  11
ENDBRANCH   7  10
ENDBRANCH   6   7
ENDBRANCH   4   6
ENDBRANCH   2   4
TORSDOF 11
ENDMDL
MODEL      174
REMARK 921   NORMALIZED FREE ENERGY PREDICTED BY IDOCK:   -3.83 KCAL/MOL
REMARK 922        TOTAL FREE ENERGY PREDICTED BY IDOCK:   -7.62 KCAL/MOL
REMARK 923 INTER-LIGAND FREE ENERGY PREDICTED BY IDOCK:   -6.92 KCAL/MOL
REMARK 924 INTRA-LIGAND FREE ENERGY PREDICTED BY IDOCK:   -0.70 KCAL/MOL
REMARK 927      BINDING AFFINITY PREDICTED BY RF-SCORE:    0.00 PKD
ROOT
HETATM    1  C   UNL     1      -8.296  16.139  66.881  1.00  0.00    -0.271 C  
HETATM    2  C   UNL     1      -9.402  17.052  67.415  1.00  0.00    -0.239 C  
HETATM    3  C   UNL     1     -10.184  17.647  66.241  1.00  0.00    -0.362 C  
ENDROOT
BRANCH   2   4
HETATM    4  N   UNL     1     -10.266  16.267  68.300  1.00  0.00    -0.245 NA 
HETATM    5  H   UNL     1      -9.814  15.391  68.563  1.00  0.00     0.000 HD 
BRANCH   4   6
HETATM    6  C   UNL     1     -10.705  17.007  69.492  1.00  0.00    -0.124 C  
BRANCH   6   7
HETATM    7  C   UNL     1     -11.302  16.039  70.529  1.00  0.00    -0.401 C  
HETATM    8  O   UNL     1     -11.852  16.787  71.627  1.00  0.00    -0.570 OA 
HETATM    9  H   UNL     1     -12.220  16.189  72.267  1.00  0.00     0.000 HD 
BRANCH   7  10
HETATM   10  C   UNL     1     -12.399  15.163  69.909  1.00  0.00    -0.276 C  
BRANCH  10  11
HETATM   11  O   UNL     1     -11.800  13.976  69.370  1.00  0.00    -0.289 OA 
BRANCH  11  12
HETATM   12  C   UNL     1     -12.040  12.832  70.083  1.00  0.00    -0.298 A  
HETATM   13  C   UNL     1     -12.757  12.776  71.273  1.00  0.00    -0.364 A  
HETATM   14  C   UNL     1     -12.945  11.555  71.923  1.00  0.00    -0.453 A  
HETATM   15  C   UNL     1     -12.439  10.364  71.380  1.00  0.00    -0.521 A  
HETATM   16  C   UNL     1     -11.735  10.427  70.173  1.00  0.00    -0.394 A  
HETATM   17  C   UNL     1     -11.542  11.652  69.525  1.00  0.00    -0.397 A  
BRANCH  15  18
HETATM   18  C   UNL     1     -12.649   9.051  72.093  1.00  0.00    -0.461 C  
BRANCH  18  19
HETATM   19  C   UNL     1     -12.152   7.858  71.276  1.00  0.00    -0.296 C  
BRANCH  19  20
HETATM   20  O   UNL     1     -10.828   7.506  71.684  1.00  0.00    -0.219 OA 
BRANCH  20  21
HETATM   21  C   UNL     1     -10.852   6.856  72.956  1.00  0.00    -0.296 C  
BRANCH  21  22
HETATM   22  C   UNL     1     -10.150   5.542  72.848  1.00  0.00    -0.202 C  
HETATM   23  C   UNL     1      -8.645   5.513  72.754  1.00  0.00    -0.120 C  
HETATM   24  C   UNL     1      -9.329   5.004  73.992  1.00  0.00    -0.121 C  
ENDBRANCH  21  22
ENDBRANCH  20  21
ENDBRANCH  19  20
ENDBRANCH  18  19
ENDBRANCH  15  18
ENDBRANCH  11  12
ENDBRANCH  10  11
ENDBRANCH   7  10
ENDBRANCH   6   7
ENDBRANCH   4   6
ENDBRANCH   2   4
TORSDOF 11
ENDMDL
MODEL      175
REMARK 921   NORMALIZED FREE ENERGY PREDICTED BY IDOCK:   -3.83 KCAL/MOL
REMARK 922        TOTAL FREE ENERGY PREDICTED BY IDOCK:   -7.61 KCAL/MOL
REMARK 923 INTER-LIGAND FREE ENERGY PREDICTED BY IDOCK:   -7.00 KCAL/MOL
REMARK 924 INTRA-LIGAND FREE ENERGY PREDICTED BY IDOCK:   -0.61 KCAL/MOL
REMARK 927      BINDING AFFINITY PREDICTED BY RF-SCORE:    0.00 PKD
ROOT
HETATM    1  C   UNL     1      -8.975  17.951  68.179  1.00  0.00    -0.268 C  
HETATM    2  C   UNL     1      -8.937  17.077  66.923  1.00  0.00    -0.229 C  
HETATM    3  C   UNL     1      -7.556  17.181  66.270  1.00  0.00    -0.352 C  
ENDROOT
BRANCH   2   4
HETATM    4  N   UNL     1      -9.253  15.699  67.307  1.00  0.00    -0.201 NA 
HETATM    5  H   UNL     1      -9.430  15.633  68.309  1.00  0.00     0.000 HD 
BRANCH   4   6
HETATM    6  C   UNL     1     -10.369  15.123  66.541  1.00  0.00    -0.282 C  
BRANCH   6   7
HETATM    7  C   UNL     1     -11.546  14.801  67.478  1.00  0.00    -0.361 C  
HETATM    8  O   UNL     1     -12.534  14.035  66.767  1.00  0.00    -0.513 OA 
HETATM    9  H   UNL     1     -13.260  13.836  67.346  1.00  0.00     0.000 HD 
BRANCH   7  10
HETATM   10  C   UNL     1     -11.081  14.014  68.711  1.00  0.00    -0.264 C  
BRANCH  10  11
HETATM   11  O   UNL     1     -12.233  13.552  69.432  1.00  0.00    -0.307 OA 
BRANCH  11  12
HETATM   12  C   UNL     1     -12.125  12.287  69.944  1.00  0.00    -0.249 A  
HETATM   13  C   UNL     1     -11.305  11.289  69.428  1.00  0.00    -0.360 A  
HETATM   14  C   UNL     1     -11.268  10.029  70.027  1.00  0.00    -0.345 A  
HETATM   15  C   UNL     1     -12.032   9.753  71.171  1.00  0.00    -0.463 A  
HETATM   16  C   UNL     1     -12.840  10.768  71.696  1.00  0.00    -0.562 A  
HETATM   17  C   UNL     1     -12.881  12.029  71.090  1.00  0.00    -0.331 A  
BRANCH  15  18
HETATM   18  C   UNL     1     -11.984   8.386  71.810  1.00  0.00    -0.380 C  
BRANCH  18  19
HETATM   19  C   UNL     1     -10.682   8.148  72.577  1.00  0.00    -0.349 C  
BRANCH  19  20
HETATM   20  O   UNL     1     -10.245   6.800  72.385  1.00  0.00    -0.178 OA 
BRANCH  20  21
HETATM   21  C   UNL     1      -9.646   6.294  73.579  1.00  0.00    -0.149 C  
BRANCH  21  22
HETATM   22  C   UNL     1     -10.543   5.257  74.174  1.00  0.00    -0.301 C  
HETATM   23  C   UNL     1     -11.401   4.412  73.266  1.00  0.00    -0.334 C  
HETATM   24  C   UNL     1     -10.250   3.788  74.004  1.00  0.00    -0.221 C  
ENDBRANCH  21  22
ENDBRANCH  20  21
ENDBRANCH  19  20
ENDBRANCH  18  19
ENDBRANCH  15  18
ENDBRANCH  11  12
ENDBRANCH  10  11
ENDBRANCH   7  10
ENDBRANCH   6   7
ENDBRANCH   4   6
ENDBRANCH   2   4
TORSDOF 11
ENDMDL
MODEL      176
REMARK 921   NORMALIZED FREE ENERGY PREDICTED BY IDOCK:   -3.83 KCAL/MOL
REMARK 922        TOTAL FREE ENERGY PREDICTED BY IDOCK:   -7.61 KCAL/MOL
REMARK 923 INTER-LIGAND FREE ENERGY PREDICTED BY IDOCK:   -6.44 KCAL/MOL
REMARK 924 INTRA-LIGAND FREE ENERGY PREDICTED BY IDOCK:   -1.17 KCAL/MOL
REMARK 927      BINDING AFFINITY PREDICTED BY RF-SCORE:    0.00 PKD
ROOT
HETATM    1  C   UNL     1     -11.220   6.158  69.480  1.00  0.00    -0.482 C  
HETATM    2  C   UNL     1      -9.988   5.637  68.736  1.00  0.00    -0.167 C  
HETATM    3  C   UNL     1     -10.321   5.471  67.251  1.00  0.00    -0.290 C  
ENDROOT
BRANCH   2   4
HETATM    4  N   UNL     1      -8.887   6.580  68.942  1.00  0.00    -0.126 NA 
HETATM    5  H   UNL     1      -8.431   6.804  68.057  1.00  0.00     0.000 HD 
BRANCH   4   6
HETATM    6  C   UNL     1      -9.295   7.807  69.645  1.00  0.00    -0.153 C  
BRANCH   6   7
HETATM    7  C   UNL     1      -9.199   9.017  68.699  1.00  0.00    -0.136 C  
HETATM    8  O   UNL     1      -8.711   8.590  67.416  1.00  0.00    -0.132 OA 
HETATM    9  H   UNL     1      -8.652   9.338  66.833  1.00  0.00     0.000 HD 
BRANCH   7  10
HETATM   10  C   UNL     1     -10.562   9.700  68.525  1.00  0.00    -0.220 C  
BRANCH  10  11
HETATM   11  O   UNL     1     -10.585  10.904  69.307  1.00  0.00    -0.213 OA 
BRANCH  11  12
HETATM   12  C   UNL     1     -10.698  12.061  68.583  1.00  0.00    -0.236 A  
HETATM   13  C   UNL     1     -11.902  12.671  68.246  1.00  0.00    -0.354 A  
HETATM   14  C   UNL     1     -11.907  13.852  67.503  1.00  0.00    -0.431 A  
HETATM   15  C   UNL     1     -10.706  14.458  67.105  1.00  0.00    -0.283 A  
HETATM   16  C   UNL     1      -9.499  13.849  67.465  1.00  0.00    -0.216 A  
HETATM   17  C   UNL     1      -9.495  12.661  68.204  1.00  0.00    -0.218 A  
BRANCH  15  18
HETATM   18  C   UNL     1     -10.726  15.736  66.302  1.00  0.00    -0.282 C  
BRANCH  18  19
HETATM   19  C   UNL     1     -11.104  15.499  64.840  1.00  0.00    -0.416 C  
BRANCH  19  20
HETATM   20  O   UNL     1     -10.684  14.194  64.434  1.00  0.00    -0.352 OA 
BRANCH  20  21
HETATM   21  C   UNL     1     -11.788  13.452  63.913  1.00  0.00    -0.439 C  
BRANCH  21  22
HETATM   22  C   UNL     1     -11.385  12.022  63.753  1.00  0.00    -0.526 C  
HETATM   23  C   UNL     1     -10.019  11.696  63.202  1.00  0.00    -0.400 C  
HETATM   24  C   UNL     1     -10.335  11.407  64.643  1.00  0.00    -0.362 C  
ENDBRANCH  21  22
ENDBRANCH  20  21
ENDBRANCH  19  20
ENDBRANCH  18  19
ENDBRANCH  15  18
ENDBRANCH  11  12
ENDBRANCH  10  11
ENDBRANCH   7  10
ENDBRANCH   6   7
ENDBRANCH   4   6
ENDBRANCH   2   4
TORSDOF 11
ENDMDL
MODEL      177
REMARK 921   NORMALIZED FREE ENERGY PREDICTED BY IDOCK:   -3.81 KCAL/MOL
REMARK 922        TOTAL FREE ENERGY PREDICTED BY IDOCK:   -7.58 KCAL/MOL
REMARK 923 INTER-LIGAND FREE ENERGY PREDICTED BY IDOCK:   -5.60 KCAL/MOL
REMARK 924 INTRA-LIGAND FREE ENERGY PREDICTED BY IDOCK:   -1.97 KCAL/MOL
REMARK 927      BINDING AFFINITY PREDICTED BY RF-SCORE:    0.00 PKD
ROOT
HETATM    1  C   UNL     1     -10.072   9.742  70.128  1.00  0.00    -0.317 C  
HETATM    2  C   UNL     1     -11.590   9.548  70.165  1.00  0.00    -0.111 C  
HETATM    3  C   UNL     1     -12.067   9.523  71.619  1.00  0.00    -0.474 C  
ENDROOT
BRANCH   2   4
HETATM    4  N   UNL     1     -12.216  10.635  69.407  1.00  0.00    -0.597 NA 
HETATM    5  H   UNL     1     -13.219  10.478  69.311  1.00  0.00     0.000 HD 
BRANCH   4   6
HETATM    6  C   UNL     1     -11.947  11.967  69.971  1.00  0.00    -0.332 C  
BRANCH   6   7
HETATM    7  C   UNL     1     -11.549  12.946  68.852  1.00  0.00    -0.315 C  
HETATM    8  O   UNL     1     -10.237  13.473  69.117  1.00  0.00    -0.426 OA 
HETATM    9  H   UNL     1      -9.992  14.077  68.426  1.00  0.00     0.000 HD 
BRANCH   7  10
HETATM   10  C   UNL     1     -11.554  12.259  67.479  1.00  0.00    -0.353 C  
BRANCH  10  11
HETATM   11  O   UNL     1     -10.218  12.249  66.957  1.00  0.00    -0.214 OA 
BRANCH  11  12
HETATM   12  C   UNL     1      -9.661  11.007  66.818  1.00  0.00    -0.190 A  
HETATM   13  C   UNL     1     -10.369   9.850  66.508  1.00  0.00    -0.259 A  
HETATM   14  C   UNL     1      -9.704   8.629  66.389  1.00  0.00    -0.333 A  
HETATM   15  C   UNL     1      -8.313   8.548  66.554  1.00  0.00    -0.113 A  
HETATM   16  C   UNL     1      -7.604   9.718  66.847  1.00  0.00    -0.095 A  
HETATM   17  C   UNL     1      -8.274  10.941  66.972  1.00  0.00    -0.134 A  
BRANCH  15  18
HETATM   18  C   UNL     1      -7.605   7.221  66.423  1.00  0.00    -0.092 C  
BRANCH  18  19
HETATM   19  C   UNL     1      -8.574   6.067  66.159  1.00  0.00    -0.142 C  
BRANCH  19  20
HETATM   20  O   UNL     1      -8.533   5.140  67.246  1.00  0.00    -0.107 OA 
BRANCH  20  21
HETATM   21  C   UNL     1      -9.834   4.977  67.814  1.00  0.00    -0.154 C  
BRANCH  21  22
HETATM   22  C   UNL     1     -10.086   6.086  68.784  1.00  0.00    -0.210 C  
HETATM   23  C   UNL     1     -11.022   5.855  69.944  1.00  0.00    -0.444 C  
HETATM   24  C   UNL     1      -9.549   6.023  70.191  1.00  0.00    -0.192 C  
ENDBRANCH  21  22
ENDBRANCH  20  21
ENDBRANCH  19  20
ENDBRANCH  18  19
ENDBRANCH  15  18
ENDBRANCH  11  12
ENDBRANCH  10  11
ENDBRANCH   7  10
ENDBRANCH   6   7
ENDBRANCH   4   6
ENDBRANCH   2   4
TORSDOF 11
ENDMDL
MODEL      178
REMARK 921   NORMALIZED FREE ENERGY PREDICTED BY IDOCK:   -3.80 KCAL/MOL
REMARK 922        TOTAL FREE ENERGY PREDICTED BY IDOCK:   -7.57 KCAL/MOL
REMARK 923 INTER-LIGAND FREE ENERGY PREDICTED BY IDOCK:   -6.93 KCAL/MOL
REMARK 924 INTRA-LIGAND FREE ENERGY PREDICTED BY IDOCK:   -0.64 KCAL/MOL
REMARK 927      BINDING AFFINITY PREDICTED BY RF-SCORE:    0.00 PKD
ROOT
HETATM    1  C   UNL     1      -7.703  17.563  66.273  1.00  0.00    -0.334 C  
HETATM    2  C   UNL     1      -8.828  18.378  66.916  1.00  0.00    -0.279 C  
HETATM    3  C   UNL     1      -8.998  19.698  66.160  1.00  0.00    -0.375 C  
ENDROOT
BRANCH   2   4
HETATM    4  N   UNL     1     -10.055  17.578  66.892  1.00  0.00    -0.312 NA 
HETATM    5  H   UNL     1     -10.834  18.121  66.523  1.00  0.00     0.000 HD 
BRANCH   4   6
HETATM    6  C   UNL     1      -9.908  16.310  66.162  1.00  0.00    -0.334 C  
BRANCH   6   7
HETATM    7  C   UNL     1     -11.215  15.969  65.423  1.00  0.00    -0.047 C  
HETATM    8  O   UNL     1     -10.992  16.013  64.003  1.00  0.00    -0.926 OA 
HETATM    9  H   UNL     1     -11.799  15.802  63.548  1.00  0.00     0.000 HD 
BRANCH   7  10
HETATM   10  C   UNL     1     -11.731  14.577  65.815  1.00  0.00    -0.344 C  
BRANCH  10  11
HETATM   11  O   UNL     1     -11.809  13.760  64.638  1.00  0.00    -0.366 OA 
BRANCH  11  12
HETATM   12  C   UNL     1     -10.950  12.695  64.616  1.00  0.00    -0.313 A  
HETATM   13  C   UNL     1     -10.799  11.819  63.546  1.00  0.00    -0.496 A  
HETATM   14  C   UNL     1      -9.892  10.761  63.626  1.00  0.00    -0.406 A  
HETATM   15  C   UNL     1      -9.100  10.576  64.769  1.00  0.00    -0.242 A  
HETATM   16  C   UNL     1      -9.243  11.472  65.834  1.00  0.00    -0.223 A  
HETATM   17  C   UNL     1     -10.158  12.529  65.755  1.00  0.00    -0.278 A  
BRANCH  15  18
HETATM   18  C   UNL     1      -8.123   9.428  64.843  1.00  0.00    -0.128 C  
BRANCH  18  19
HETATM   19  C   UNL     1      -8.314   8.580  66.101  1.00  0.00    -0.119 C  
BRANCH  19  20
HETATM   20  O   UNL     1      -9.678   8.164  66.204  1.00  0.00    -0.187 OA 
BRANCH  20  21
HETATM   21  C   UNL     1     -10.052   8.011  67.574  1.00  0.00    -0.219 C  
BRANCH  21  22
HETATM   22  C   UNL     1     -10.753   6.703  67.747  1.00  0.00    -0.352 C  
HETATM   23  C   UNL     1      -9.999   5.529  68.319  1.00  0.00    -0.201 C  
HETATM   24  C   UNL     1     -11.093   6.179  69.119  1.00  0.00    -0.448 C  
ENDBRANCH  21  22
ENDBRANCH  20  21
ENDBRANCH  19  20
ENDBRANCH  18  19
ENDBRANCH  15  18
ENDBRANCH  11  12
ENDBRANCH  10  11
ENDBRANCH   7  10
ENDBRANCH   6   7
ENDBRANCH   4   6
ENDBRANCH   2   4
TORSDOF 11
ENDMDL
MODEL      179
REMARK 921   NORMALIZED FREE ENERGY PREDICTED BY IDOCK:   -3.80 KCAL/MOL
REMARK 922        TOTAL FREE ENERGY PREDICTED BY IDOCK:   -7.56 KCAL/MOL
REMARK 923 INTER-LIGAND FREE ENERGY PREDICTED BY IDOCK:   -6.34 KCAL/MOL
REMARK 924 INTRA-LIGAND FREE ENERGY PREDICTED BY IDOCK:   -1.23 KCAL/MOL
REMARK 927      BINDING AFFINITY PREDICTED BY RF-SCORE:    0.00 PKD
ROOT
HETATM    1  C   UNL     1     -13.671   7.333  71.457  1.00  0.00    -0.451 C  
HETATM    2  C   UNL     1     -12.252   7.470  72.015  1.00  0.00    -0.280 C  
HETATM    3  C   UNL     1     -11.256   6.842  71.037  1.00  0.00    -0.323 C  
ENDROOT
BRANCH   2   4
HETATM    4  N   UNL     1     -11.974   8.891  72.235  1.00  0.00    -0.341 NA 
HETATM    5  H   UNL     1     -11.277   9.015  72.969  1.00  0.00     0.000 HD 
BRANCH   4   6
HETATM    6  C   UNL     1     -11.575   9.602  71.010  1.00  0.00    -0.359 C  
BRANCH   6   7
HETATM    7  C   UNL     1     -12.542  10.767  70.733  1.00  0.00    -0.383 C  
HETATM    8  O   UNL     1     -12.856  11.437  71.966  1.00  0.00    -0.359 OA 
HETATM    9  H   UNL     1     -13.453  12.156  71.794  1.00  0.00     0.000 HD 
BRANCH   7  10
HETATM   10  C   UNL     1     -11.937  11.774  69.746  1.00  0.00    -0.322 C  
BRANCH  10  11
HETATM   11  O   UNL     1     -12.324  13.100  70.135  1.00  0.00    -0.289 OA 
BRANCH  11  12
HETATM   12  C   UNL     1     -11.805  14.104  69.363  1.00  0.00    -0.330 A  
HETATM   13  C   UNL     1     -11.370  13.951  68.051  1.00  0.00    -0.317 A  
HETATM   14  C   UNL     1     -10.855  15.042  67.349  1.00  0.00    -0.305 A  
HETATM   15  C   UNL     1     -10.789  16.313  67.941  1.00  0.00    -0.330 A  
HETATM   16  C   UNL     1     -11.245  16.463  69.255  1.00  0.00    -0.272 A  
HETATM   17  C   UNL     1     -11.756  15.366  69.959  1.00  0.00    -0.349 A  
BRANCH  15  18
HETATM   18  C   UNL     1     -10.229  17.485  67.172  1.00  0.00    -0.323 C  
BRANCH  18  19
HETATM   19  C   UNL     1      -8.832  17.203  66.616  1.00  0.00    -0.252 C  
BRANCH  19  20
HETATM   20  O   UNL     1      -7.885  17.149  67.686  1.00  0.00    -0.173 OA 
BRANCH  20  21
HETATM   21  C   UNL     1      -6.836  16.230  67.381  1.00  0.00    -0.178 C  
BRANCH  21  22
HETATM   22  C   UNL     1      -6.901  15.080  68.333  1.00  0.00    -0.110 C  
HETATM   23  C   UNL     1      -6.136  15.150  69.631  1.00  0.00    -0.127 C  
HETATM   24  C   UNL     1      -7.638  15.196  69.643  1.00  0.00    -0.163 C  
ENDBRANCH  21  22
ENDBRANCH  20  21
ENDBRANCH  19  20
ENDBRANCH  18  19
ENDBRANCH  15  18
ENDBRANCH  11  12
ENDBRANCH  10  11
ENDBRANCH   7  10
ENDBRANCH   6   7
ENDBRANCH   4   6
ENDBRANCH   2   4
TORSDOF 11
ENDMDL
MODEL      180
REMARK 921   NORMALIZED FREE ENERGY PREDICTED BY IDOCK:   -3.76 KCAL/MOL
REMARK 922        TOTAL FREE ENERGY PREDICTED BY IDOCK:   -7.51 KCAL/MOL
REMARK 923 INTER-LIGAND FREE ENERGY PREDICTED BY IDOCK:   -6.74 KCAL/MOL
REMARK 924 INTRA-LIGAND FREE ENERGY PREDICTED BY IDOCK:   -0.77 KCAL/MOL
REMARK 927      BINDING AFFINITY PREDICTED BY RF-SCORE:    0.00 PKD
ROOT
HETATM    1  C   UNL     1      -7.452  17.081  68.831  1.00  0.00    -0.237 C  
HETATM    2  C   UNL     1      -7.299  18.560  68.465  1.00  0.00    -0.295 C  
HETATM    3  C   UNL     1      -6.301  18.700  67.313  1.00  0.00    -0.192 C  
ENDROOT
BRANCH   2   4
HETATM    4  N   UNL     1      -8.618  19.089  68.107  1.00  0.00    -0.308 NA 
HETATM    5  H   UNL     1      -8.610  19.472  67.162  1.00  0.00     0.000 HD 
BRANCH   4   6
HETATM    6  C   UNL     1      -9.701  18.106  68.263  1.00  0.00    -0.337 C  
BRANCH   6   7
HETATM    7  C   UNL     1     -10.310  17.764  66.892  1.00  0.00    -0.344 C  
HETATM    8  O   UNL     1      -9.469  18.283  65.847  1.00  0.00    -0.508 OA 
HETATM    9  H   UNL     1      -9.846  18.072  65.001  1.00  0.00     0.000 HD 
BRANCH   7  10
HETATM   10  C   UNL     1     -10.468  16.248  66.712  1.00  0.00    -0.287 C  
BRANCH  10  11
HETATM   11  O   UNL     1     -11.216  15.722  67.818  1.00  0.00    -0.336 OA 
BRANCH  11  12
HETATM   12  C   UNL     1     -11.102  14.370  68.002  1.00  0.00    -0.272 A  
HETATM   13  C   UNL     1     -12.107  13.551  68.504  1.00  0.00    -0.303 A  
HETATM   14  C   UNL     1     -11.888  12.180  68.653  1.00  0.00    -0.358 A  
HETATM   15  C   UNL     1     -10.667  11.601  68.278  1.00  0.00    -0.246 A  
HETATM   16  C   UNL     1      -9.667  12.429  67.755  1.00  0.00    -0.201 A  
HETATM   17  C   UNL     1      -9.886  13.804  67.612  1.00  0.00    -0.234 A  
BRANCH  15  18
HETATM   18  C   UNL     1     -10.443  10.117  68.444  1.00  0.00    -0.237 C  
BRANCH  18  19
HETATM   19  C   UNL     1      -9.516   9.796  69.617  1.00  0.00    -0.219 C  
BRANCH  19  20
HETATM   20  O   UNL     1     -10.173   8.909  70.526  1.00  0.00    -0.185 OA 
BRANCH  20  21
HETATM   21  C   UNL     1     -11.134   9.617  71.311  1.00  0.00    -0.355 C  
BRANCH  21  22
HETATM   22  C   UNL     1     -11.895   8.643  72.149  1.00  0.00    -0.447 C  
HETATM   23  C   UNL     1     -13.391   8.788  72.278  1.00  0.00    -0.460 C  
HETATM   24  C   UNL     1     -12.814   7.627  71.517  1.00  0.00    -0.376 C  
ENDBRANCH  21  22
ENDBRANCH  20  21
ENDBRANCH  19  20
ENDBRANCH  18  19
ENDBRANCH  15  18
ENDBRANCH  11  12
ENDBRANCH  10  11
ENDBRANCH   7  10
ENDBRANCH   6   7
ENDBRANCH   4   6
ENDBRANCH   2   4
TORSDOF 11
ENDMDL
MODEL      181
REMARK 921   NORMALIZED FREE ENERGY PREDICTED BY IDOCK:   -3.76 KCAL/MOL
REMARK 922        TOTAL FREE ENERGY PREDICTED BY IDOCK:   -7.51 KCAL/MOL
REMARK 923 INTER-LIGAND FREE ENERGY PREDICTED BY IDOCK:   -6.13 KCAL/MOL
REMARK 924 INTRA-LIGAND FREE ENERGY PREDICTED BY IDOCK:   -1.37 KCAL/MOL
REMARK 927      BINDING AFFINITY PREDICTED BY RF-SCORE:    0.00 PKD
ROOT
HETATM    1  C   UNL     1      -8.796   9.388  63.207  1.00  0.00    -0.202 C  
HETATM    2  C   UNL     1      -9.009  10.611  64.103  1.00  0.00    -0.198 C  
HETATM    3  C   UNL     1     -10.447  11.111  63.950  1.00  0.00    -0.445 C  
ENDROOT
BRANCH   2   4
HETATM    4  N   UNL     1      -8.710  10.232  65.486  1.00  0.00    -0.155 NA 
HETATM    5  H   UNL     1      -8.954  10.985  66.128  1.00  0.00     0.000 HD 
BRANCH   4   6
HETATM    6  C   UNL     1      -9.347   8.970  65.894  1.00  0.00    -0.242 C  
BRANCH   6   7
HETATM    7  C   UNL     1      -9.796   9.053  67.363  1.00  0.00    -0.190 C  
HETATM    8  O   UNL     1      -8.657   9.308  68.203  1.00  0.00    -0.124 OA 
HETATM    9  H   UNL     1      -8.935   9.359  69.110  1.00  0.00     0.000 HD 
BRANCH   7  10
HETATM   10  C   UNL     1     -10.838  10.162  67.568  1.00  0.00    -0.290 C  
BRANCH  10  11
HETATM   11  O   UNL     1     -10.175  11.345  68.038  1.00  0.00    -0.177 OA 
BRANCH  11  12
HETATM   12  C   UNL     1     -10.422  12.475  67.307  1.00  0.00    -0.220 A  
HETATM   13  C   UNL     1     -11.684  12.894  66.896  1.00  0.00    -0.445 A  
HETATM   14  C   UNL     1     -11.827  14.065  66.151  1.00  0.00    -0.422 A  
HETATM   15  C   UNL     1     -10.713  14.853  65.825  1.00  0.00    -0.338 A  
HETATM   16  C   UNL     1      -9.450  14.435  66.258  1.00  0.00    -0.297 A  
HETATM   17  C   UNL     1      -9.306  13.257  66.999  1.00  0.00    -0.242 A  
BRANCH  15  18
HETATM   18  C   UNL     1     -10.882  16.118  65.019  1.00  0.00    -0.380 C  
BRANCH  18  19
HETATM   19  C   UNL     1     -10.708  17.377  65.868  1.00  0.00    -0.123 C  
BRANCH  19  20
HETATM   20  O   UNL     1      -9.329  17.756  65.898  1.00  0.00    -0.514 OA 
BRANCH  20  21
HETATM   21  C   UNL     1      -9.155  18.949  66.664  1.00  0.00    -0.330 C  
BRANCH  21  22
HETATM   22  C   UNL     1      -8.547  18.599  67.983  1.00  0.00    -0.321 C  
HETATM   23  C   UNL     1      -8.980  17.336  68.686  1.00  0.00    -0.265 C  
HETATM   24  C   UNL     1      -7.593  17.439  68.116  1.00  0.00    -0.214 C  
ENDBRANCH  21  22
ENDBRANCH  20  21
ENDBRANCH  19  20
ENDBRANCH  18  19
ENDBRANCH  15  18
ENDBRANCH  11  12
ENDBRANCH  10  11
ENDBRANCH   7  10
ENDBRANCH   6   7
ENDBRANCH   4   6
ENDBRANCH   2   4
TORSDOF 11
ENDMDL
MODEL      182
REMARK 921   NORMALIZED FREE ENERGY PREDICTED BY IDOCK:   -3.75 KCAL/MOL
REMARK 922        TOTAL FREE ENERGY PREDICTED BY IDOCK:   -7.49 KCAL/MOL
REMARK 923 INTER-LIGAND FREE ENERGY PREDICTED BY IDOCK:   -6.41 KCAL/MOL
REMARK 924 INTRA-LIGAND FREE ENERGY PREDICTED BY IDOCK:   -1.08 KCAL/MOL
REMARK 927      BINDING AFFINITY PREDICTED BY RF-SCORE:    0.00 PKD
ROOT
HETATM    1  C   UNL     1      -8.437   8.853  62.538  1.00  0.00    -0.207 C  
HETATM    2  C   UNL     1      -8.424  10.046  63.498  1.00  0.00    -0.187 C  
HETATM    3  C   UNL     1      -9.773  10.766  63.436  1.00  0.00    -0.394 C  
ENDROOT
BRANCH   2   4
HETATM    4  N   UNL     1      -8.133   9.555  64.847  1.00  0.00    -0.124 NA 
HETATM    5  H   UNL     1      -8.734  10.007  65.534  1.00  0.00     0.000 HD 
BRANCH   4   6
HETATM    6  C   UNL     1      -8.215   8.091  64.963  1.00  0.00    -0.141 C  
BRANCH   6   7
HETATM    7  C   UNL     1      -8.962   7.702  66.251  1.00  0.00    -0.169 C  
HETATM    8  O   UNL     1      -8.027   7.599  67.339  1.00  0.00    -0.115 OA 
HETATM    9  H   UNL     1      -8.489   7.359  68.134  1.00  0.00     0.000 HD 
BRANCH   7  10
HETATM   10  C   UNL     1     -10.043   8.732  66.604  1.00  0.00    -0.288 C  
BRANCH  10  11
HETATM   11  O   UNL     1      -9.475   9.728  67.467  1.00  0.00    -0.145 OA 
BRANCH  11  12
HETATM   12  C   UNL     1     -10.044  10.969  67.372  1.00  0.00    -0.186 A  
HETATM   13  C   UNL     1     -11.270  11.235  66.771  1.00  0.00    -0.265 A  
HETATM   14  C   UNL     1     -11.763  12.540  66.726  1.00  0.00    -0.453 A  
HETATM   15  C   UNL     1     -11.050  13.599  67.307  1.00  0.00    -0.309 A  
HETATM   16  C   UNL     1      -9.827  13.321  67.927  1.00  0.00    -0.234 A  
HETATM   17  C   UNL     1      -9.331  12.013  67.965  1.00  0.00    -0.196 A  
BRANCH  15  18
HETATM   18  C   UNL     1     -11.594  15.006  67.252  1.00  0.00    -0.285 C  
BRANCH  18  19
HETATM   19  C   UNL     1     -10.500  16.061  67.421  1.00  0.00    -0.308 C  
BRANCH  19  20
HETATM   20  O   UNL     1     -11.031  17.210  68.087  1.00  0.00    -0.361 OA 
BRANCH  20  21
HETATM   21  C   UNL     1      -9.976  18.073  68.514  1.00  0.00    -0.390 C  
BRANCH  21  22
HETATM   22  C   UNL     1     -10.279  19.469  68.076  1.00  0.00    -0.552 C  
HETATM   23  C   UNL     1      -9.288  20.203  67.206  1.00  0.00    -0.519 C  
HETATM   24  C   UNL     1     -10.613  19.777  66.638  1.00  0.00    -0.578 C  
ENDBRANCH  21  22
ENDBRANCH  20  21
ENDBRANCH  19  20
ENDBRANCH  18  19
ENDBRANCH  15  18
ENDBRANCH  11  12
ENDBRANCH  10  11
ENDBRANCH   7  10
ENDBRANCH   6   7
ENDBRANCH   4   6
ENDBRANCH   2   4
TORSDOF 11
ENDMDL
MODEL      183
REMARK 921   NORMALIZED FREE ENERGY PREDICTED BY IDOCK:   -3.75 KCAL/MOL
REMARK 922        TOTAL FREE ENERGY PREDICTED BY IDOCK:   -7.48 KCAL/MOL
REMARK 923 INTER-LIGAND FREE ENERGY PREDICTED BY IDOCK:   -6.56 KCAL/MOL
REMARK 924 INTRA-LIGAND FREE ENERGY PREDICTED BY IDOCK:   -0.93 KCAL/MOL
REMARK 927      BINDING AFFINITY PREDICTED BY RF-SCORE:    0.00 PKD
ROOT
HETATM    1  C   UNL     1     -11.588   8.022  72.060  1.00  0.00    -0.369 C  
HETATM    2  C   UNL     1     -12.543   6.990  71.454  1.00  0.00    -0.386 C  
HETATM    3  C   UNL     1     -13.978   7.516  71.530  1.00  0.00    -0.522 C  
ENDROOT
BRANCH   2   4
HETATM    4  N   UNL     1     -12.132   6.733  70.072  1.00  0.00    -0.638 NA 
HETATM    5  H   UNL     1     -12.726   7.241  69.417  1.00  0.00     0.000 HD 
BRANCH   4   6
HETATM    6  C   UNL     1     -10.712   7.023  69.823  1.00  0.00    -0.241 C  
BRANCH   6   7
HETATM    7  C   UNL     1     -10.472   7.255  68.321  1.00  0.00    -0.199 C  
HETATM    8  O   UNL     1     -11.560   6.694  67.566  1.00  0.00    -0.693 OA 
HETATM    9  H   UNL     1     -11.411   6.837  66.639  1.00  0.00     0.000 HD 
BRANCH   7  10
HETATM   10  C   UNL     1     -10.347   8.750  67.998  1.00  0.00    -0.220 C  
BRANCH  10  11
HETATM   11  O   UNL     1     -10.981   9.507  69.039  1.00  0.00    -0.194 OA 
BRANCH  11  12
HETATM   12  C   UNL     1     -10.798  10.862  68.963  1.00  0.00    -0.230 A  
HETATM   13  C   UNL     1     -11.729  11.812  69.370  1.00  0.00    -0.405 A  
HETATM   14  C   UNL     1     -11.442  13.173  69.249  1.00  0.00    -0.348 A  
HETATM   15  C   UNL     1     -10.209  13.607  68.742  1.00  0.00    -0.155 A  
HETATM   16  C   UNL     1      -9.270  12.645  68.353  1.00  0.00    -0.135 A  
HETATM   17  C   UNL     1      -9.561  11.281  68.469  1.00  0.00    -0.199 A  
BRANCH  15  18
HETATM   18  C   UNL     1      -9.912  15.082  68.616  1.00  0.00    -0.220 C  
BRANCH  18  19
HETATM   19  C   UNL     1      -9.584  15.489  67.179  1.00  0.00    -0.222 C  
BRANCH  19  20
HETATM   20  O   UNL     1      -8.309  16.136  67.136  1.00  0.00    -0.171 OA 
BRANCH  20  21
HETATM   21  C   UNL     1      -8.349  17.261  66.257  1.00  0.00    -0.254 C  
BRANCH  21  22
HETATM   22  C   UNL     1      -8.228  18.515  67.060  1.00  0.00    -0.252 C  
HETATM   23  C   UNL     1      -7.345  18.528  68.284  1.00  0.00    -0.294 C  
HETATM   24  C   UNL     1      -6.950  19.314  67.065  1.00  0.00    -0.210 C  
ENDBRANCH  21  22
ENDBRANCH  20  21
ENDBRANCH  19  20
ENDBRANCH  18  19
ENDBRANCH  15  18
ENDBRANCH  11  12
ENDBRANCH  10  11
ENDBRANCH   7  10
ENDBRANCH   6   7
ENDBRANCH   4   6
ENDBRANCH   2   4
TORSDOF 11
ENDMDL
MODEL      184
REMARK 921   NORMALIZED FREE ENERGY PREDICTED BY IDOCK:   -3.74 KCAL/MOL
REMARK 922        TOTAL FREE ENERGY PREDICTED BY IDOCK:   -7.47 KCAL/MOL
REMARK 923 INTER-LIGAND FREE ENERGY PREDICTED BY IDOCK:   -6.20 KCAL/MOL
REMARK 924 INTRA-LIGAND FREE ENERGY PREDICTED BY IDOCK:   -1.27 KCAL/MOL
REMARK 927      BINDING AFFINITY PREDICTED BY RF-SCORE:    0.00 PKD
ROOT
HETATM    1  C   UNL     1     -12.436  14.149  65.200  1.00  0.00    -0.453 C  
HETATM    2  C   UNL     1     -11.029  14.600  64.804  1.00  0.00    -0.386 C  
HETATM    3  C   UNL     1     -10.227  14.937  66.063  1.00  0.00    -0.317 C  
ENDROOT
BRANCH   2   4
HETATM    4  N   UNL     1     -10.398  13.528  64.029  1.00  0.00    -0.691 NA 
HETATM    5  H   UNL     1      -9.678  13.060  64.579  1.00  0.00     0.000 HD 
BRANCH   4   6
HETATM    6  C   UNL     1     -11.360  12.555  63.492  1.00  0.00    -0.486 C  
BRANCH   6   7
HETATM    7  C   UNL     1     -10.844  11.121  63.710  1.00  0.00    -0.262 C  
HETATM    8  O   UNL     1     -10.116  10.689  62.548  1.00  0.00    -0.736 OA 
HETATM    9  H   UNL     1      -9.797   9.804  62.683  1.00  0.00     0.000 HD 
BRANCH   7  10
HETATM   10  C   UNL     1      -9.934  11.036  64.943  1.00  0.00    -0.288 C  
BRANCH  10  11
HETATM   11  O   UNL     1     -10.688  11.407  66.106  1.00  0.00    -0.262 OA 
BRANCH  11  12
HETATM   12  C   UNL     1     -10.623  10.517  67.144  1.00  0.00    -0.264 A  
HETATM   13  C   UNL     1     -11.081  10.769  68.434  1.00  0.00    -0.323 A  
HETATM   14  C   UNL     1     -10.968   9.791  69.423  1.00  0.00    -0.241 A  
HETATM   15  C   UNL     1     -10.417   8.533  69.133  1.00  0.00    -0.217 A  
HETATM   16  C   UNL     1      -9.977   8.281  67.829  1.00  0.00    -0.235 A  
HETATM   17  C   UNL     1     -10.086   9.265  66.840  1.00  0.00    -0.324 A  
BRANCH  15  18
HETATM   18  C   UNL     1     -10.300   7.484  70.212  1.00  0.00    -0.215 C  
BRANCH  18  19
HETATM   19  C   UNL     1      -9.262   7.852  71.272  1.00  0.00    -0.146 C  
BRANCH  19  20
HETATM   20  O   UNL     1      -8.405   6.735  71.522  1.00  0.00    -0.114 OA 
BRANCH  20  21
HETATM   21  C   UNL     1      -7.242   6.801  70.695  1.00  0.00    -0.070 C  
BRANCH  21  22
HETATM   22  C   UNL     1      -7.227   5.623  69.777  1.00  0.00    -0.069 C  
HETATM   23  C   UNL     1      -7.357   5.842  68.290  1.00  0.00    -0.081 C  
HETATM   24  C   UNL     1      -6.054   5.364  68.866  1.00  0.00    -0.025 C  
ENDBRANCH  21  22
ENDBRANCH  20  21
ENDBRANCH  19  20
ENDBRANCH  18  19
ENDBRANCH  15  18
ENDBRANCH  11  12
ENDBRANCH  10  11
ENDBRANCH   7  10
ENDBRANCH   6   7
ENDBRANCH   4   6
ENDBRANCH   2   4
TORSDOF 11
ENDMDL
MODEL      185
REMARK 921   NORMALIZED FREE ENERGY PREDICTED BY IDOCK:   -3.74 KCAL/MOL
REMARK 922        TOTAL FREE ENERGY PREDICTED BY IDOCK:   -7.46 KCAL/MOL
REMARK 923 INTER-LIGAND FREE ENERGY PREDICTED BY IDOCK:   -7.08 KCAL/MOL
REMARK 924 INTRA-LIGAND FREE ENERGY PREDICTED BY IDOCK:   -0.38 KCAL/MOL
REMARK 927      BINDING AFFINITY PREDICTED BY RF-SCORE:    0.00 PKD
ROOT
HETATM    1  C   UNL     1      -8.568   8.027  73.234  1.00  0.00    -0.297 C  
HETATM    2  C   UNL     1      -8.801   7.521  71.809  1.00  0.00    -0.115 C  
HETATM    3  C   UNL     1      -7.932   6.287  71.556  1.00  0.00    -0.106 C  
ENDROOT
BRANCH   2   4
HETATM    4  N   UNL     1     -10.227   7.222  71.649  1.00  0.00    -0.193 NA 
HETATM    5  H   UNL     1     -10.777   7.687  72.371  1.00  0.00     0.000 HD 
BRANCH   4   6
HETATM    6  C   UNL     1     -10.742   7.546  70.310  1.00  0.00    -0.238 C  
BRANCH   6   7
HETATM    7  C   UNL     1     -11.384   8.944  70.312  1.00  0.00    -0.159 C  
HETATM    8  O   UNL     1     -11.203   9.557  71.600  1.00  0.00    -0.378 OA 
HETATM    9  H   UNL     1     -11.599  10.421  71.600  1.00  0.00     0.000 HD 
BRANCH   7  10
HETATM   10  C   UNL     1     -10.771   9.843  69.229  1.00  0.00    -0.224 C  
BRANCH  10  11
HETATM   11  O   UNL     1     -11.819  10.586  68.590  1.00  0.00    -0.318 OA 
BRANCH  11  12
HETATM   12  C   UNL     1     -11.394  11.602  67.777  1.00  0.00    -0.288 A  
HETATM   13  C   UNL     1     -11.329  11.533  66.389  1.00  0.00    -0.246 A  
HETATM   14  C   UNL     1     -10.880  12.629  65.651  1.00  0.00    -0.305 A  
HETATM   15  C   UNL     1     -10.510  13.824  66.288  1.00  0.00    -0.291 A  
HETATM   16  C   UNL     1     -10.596  13.892  67.683  1.00  0.00    -0.247 A  
HETATM   17  C   UNL     1     -11.041  12.790  68.422  1.00  0.00    -0.293 A  
BRANCH  15  18
HETATM   18  C   UNL     1     -10.025  15.002  65.478  1.00  0.00    -0.390 C  
BRANCH  18  19
HETATM   19  C   UNL     1     -11.169  15.742  64.784  1.00  0.00    -0.366 C  
BRANCH  19  20
HETATM   20  O   UNL     1     -10.835  17.124  64.637  1.00  0.00    -0.852 OA 
BRANCH  20  21
HETATM   21  C   UNL     1     -10.244  17.627  65.836  1.00  0.00    -0.232 C  
BRANCH  21  22
HETATM   22  C   UNL     1     -10.521  19.091  65.941  1.00  0.00    -0.468 C  
HETATM   23  C   UNL     1     -10.562  19.741  67.302  1.00  0.00    -0.565 C  
HETATM   24  C   UNL     1      -9.441  20.059  66.353  1.00  0.00    -0.512 C  
ENDBRANCH  21  22
ENDBRANCH  20  21
ENDBRANCH  19  20
ENDBRANCH  18  19
ENDBRANCH  15  18
ENDBRANCH  11  12
ENDBRANCH  10  11
ENDBRANCH   7  10
ENDBRANCH   6   7
ENDBRANCH   4   6
ENDBRANCH   2   4
TORSDOF 11
ENDMDL
MODEL      186
REMARK 921   NORMALIZED FREE ENERGY PREDICTED BY IDOCK:   -3.73 KCAL/MOL
REMARK 922        TOTAL FREE ENERGY PREDICTED BY IDOCK:   -7.46 KCAL/MOL
REMARK 923 INTER-LIGAND FREE ENERGY PREDICTED BY IDOCK:   -6.42 KCAL/MOL
REMARK 924 INTRA-LIGAND FREE ENERGY PREDICTED BY IDOCK:   -1.04 KCAL/MOL
REMARK 927      BINDING AFFINITY PREDICTED BY RF-SCORE:    0.00 PKD
ROOT
HETATM    1  C   UNL     1     -11.440   6.355  69.831  1.00  0.00    -0.483 C  
HETATM    2  C   UNL     1     -10.218   5.559  70.298  1.00  0.00    -0.255 C  
HETATM    3  C   UNL     1      -9.619   4.801  69.111  1.00  0.00    -0.237 C  
ENDROOT
BRANCH   2   4
HETATM    4  N   UNL     1      -9.255   6.491  70.889  1.00  0.00    -0.154 NA 
HETATM    5  H   UNL     1      -8.393   6.515  70.344  1.00  0.00     0.000 HD 
BRANCH   4   6
HETATM    6  C   UNL     1      -9.794   7.847  71.074  1.00  0.00    -0.170 C  
BRANCH   6   7
HETATM    7  C   UNL     1      -8.768   8.895  70.609  1.00  0.00    -0.197 C  
HETATM    8  O   UNL     1      -7.556   8.237  70.204  1.00  0.00    -0.072 OA 
HETATM    9  H   UNL     1      -6.923   8.884  69.917  1.00  0.00     0.000 HD 
BRANCH   7  10
HETATM   10  C   UNL     1      -9.311   9.727  69.439  1.00  0.00    -0.202 C  
BRANCH  10  11
HETATM   11  O   UNL     1      -8.746   9.235  68.214  1.00  0.00    -0.128 OA 
BRANCH  11  12
HETATM   12  C   UNL     1      -9.226   9.827  67.077  1.00  0.00    -0.142 A  
HETATM   13  C   UNL     1      -8.600   9.784  65.836  1.00  0.00    -0.149 A  
HETATM   14  C   UNL     1      -9.175  10.423  64.736  1.00  0.00    -0.273 A  
HETATM   15  C   UNL     1     -10.400  11.096  64.854  1.00  0.00    -0.375 A  
HETATM   16  C   UNL     1     -11.033  11.119  66.102  1.00  0.00    -0.203 A  
HETATM   17  C   UNL     1     -10.453  10.483  67.205  1.00  0.00    -0.302 A  
BRANCH  15  18
HETATM   18  C   UNL     1     -11.011  11.784  63.657  1.00  0.00    -0.513 C  
BRANCH  18  19
HETATM   19  C   UNL     1     -12.512  12.022  63.826  1.00  0.00    -0.485 C  
BRANCH  19  20
HETATM   20  O   UNL     1     -12.732  13.189  64.622  1.00  0.00    -0.653 OA 
BRANCH  20  21
HETATM   21  C   UNL     1     -12.119  14.329  64.019  1.00  0.00    -0.316 C  
BRANCH  21  22
HETATM   22  C   UNL     1     -11.403  15.113  65.071  1.00  0.00    -0.381 C  
HETATM   23  C   UNL     1     -11.192  14.502  66.434  1.00  0.00    -0.341 C  
HETATM   24  C   UNL     1     -10.018  14.724  65.522  1.00  0.00    -0.390 C  
ENDBRANCH  21  22
ENDBRANCH  20  21
ENDBRANCH  19  20
ENDBRANCH  18  19
ENDBRANCH  15  18
ENDBRANCH  11  12
ENDBRANCH  10  11
ENDBRANCH   7  10
ENDBRANCH   6   7
ENDBRANCH   4   6
ENDBRANCH   2   4
TORSDOF 11
ENDMDL
MODEL      187
REMARK 921   NORMALIZED FREE ENERGY PREDICTED BY IDOCK:   -3.73 KCAL/MOL
REMARK 922        TOTAL FREE ENERGY PREDICTED BY IDOCK:   -7.44 KCAL/MOL
REMARK 923 INTER-LIGAND FREE ENERGY PREDICTED BY IDOCK:   -6.79 KCAL/MOL
REMARK 924 INTRA-LIGAND FREE ENERGY PREDICTED BY IDOCK:   -0.65 KCAL/MOL
REMARK 927      BINDING AFFINITY PREDICTED BY RF-SCORE:    0.00 PKD
ROOT
HETATM    1  C   UNL     1      -9.726   8.965  71.363  1.00  0.00    -0.370 C  
HETATM    2  C   UNL     1     -10.902   8.011  71.142  1.00  0.00    -0.238 C  
HETATM    3  C   UNL     1     -11.444   7.548  72.496  1.00  0.00    -0.376 C  
ENDROOT
BRANCH   2   4
HETATM    4  N   UNL     1     -11.925   8.708  70.358  1.00  0.00    -0.472 NA 
HETATM    5  H   UNL     1     -12.651   9.087  70.966  1.00  0.00     0.000 HD 
BRANCH   4   6
HETATM    6  C   UNL     1     -11.375   9.756  69.485  1.00  0.00    -0.083 C  
BRANCH   6   7
HETATM    7  C   UNL     1     -12.217  11.038  69.598  1.00  0.00    -0.300 C  
HETATM    8  O   UNL     1     -12.776  11.134  70.920  1.00  0.00    -0.357 OA 
HETATM    9  H   UNL     1     -13.296  11.926  70.989  1.00  0.00     0.000 HD 
BRANCH   7  10
HETATM   10  C   UNL     1     -11.375  12.288  69.310  1.00  0.00    -0.256 C  
BRANCH  10  11
HETATM   11  O   UNL     1     -12.220  13.300  68.743  1.00  0.00    -0.278 OA 
BRANCH  11  12
HETATM   12  C   UNL     1     -11.595  14.488  68.469  1.00  0.00    -0.313 A  
HETATM   13  C   UNL     1     -11.196  15.413  69.428  1.00  0.00    -0.300 A  
HETATM   14  C   UNL     1     -10.565  16.597  69.042  1.00  0.00    -0.340 A  
HETATM   15  C   UNL     1     -10.300  16.864  67.690  1.00  0.00    -0.317 A  
HETATM   16  C   UNL     1     -10.688  15.920  66.733  1.00  0.00    -0.281 A  
HETATM   17  C   UNL     1     -11.326  14.736  67.121  1.00  0.00    -0.363 A  
BRANCH  15  18
HETATM   18  C   UNL     1      -9.617  18.149  67.286  1.00  0.00    -0.281 C  
BRANCH  18  19
HETATM   19  C   UNL     1      -9.393  19.087  68.472  1.00  0.00    -0.375 C  
BRANCH  19  20
HETATM   20  O   UNL     1      -8.252  19.914  68.228  1.00  0.00    -0.300 OA 
BRANCH  20  21
HETATM   21  C   UNL     1      -8.200  20.304  66.856  1.00  0.00    -0.294 C  
BRANCH  21  22
HETATM   22  C   UNL     1      -6.794  20.187  66.366  1.00  0.00    -0.260 C  
HETATM   23  C   UNL     1      -6.431  19.072  65.417  1.00  0.00    -0.308 C  
HETATM   24  C   UNL     1      -6.442  20.494  64.932  1.00  0.00    -0.333 C  
ENDBRANCH  21  22
ENDBRANCH  20  21
ENDBRANCH  19  20
ENDBRANCH  18  19
ENDBRANCH  15  18
ENDBRANCH  11  12
ENDBRANCH  10  11
ENDBRANCH   7  10
ENDBRANCH   6   7
ENDBRANCH   4   6
ENDBRANCH   2   4
TORSDOF 11
ENDMDL
MODEL      188
REMARK 921   NORMALIZED FREE ENERGY PREDICTED BY IDOCK:   -3.72 KCAL/MOL
REMARK 922        TOTAL FREE ENERGY PREDICTED BY IDOCK:   -7.44 KCAL/MOL
REMARK 923 INTER-LIGAND FREE ENERGY PREDICTED BY IDOCK:   -6.31 KCAL/MOL
REMARK 924 INTRA-LIGAND FREE ENERGY PREDICTED BY IDOCK:   -1.13 KCAL/MOL
REMARK 927      BINDING AFFINITY PREDICTED BY RF-SCORE:    0.00 PKD
ROOT
HETATM    1  C   UNL     1     -12.021  14.087  68.843  1.00  0.00    -0.387 C  
HETATM    2  C   UNL     1     -10.741  14.492  68.109  1.00  0.00    -0.239 C  
HETATM    3  C   UNL     1     -10.741  16.006  67.880  1.00  0.00    -0.316 C  
ENDROOT
BRANCH   2   4
HETATM    4  N   UNL     1      -9.591  14.065  68.910  1.00  0.00    -0.399 NA 
HETATM    5  H   UNL     1      -9.746  13.134  69.297  1.00  0.00     0.000 HD 
BRANCH   4   6
HETATM    6  C   UNL     1      -8.318  14.120  68.175  1.00  0.00    -0.161 C  
BRANCH   6   7
HETATM    7  C   UNL     1      -8.115  12.828  67.365  1.00  0.00    -0.185 C  
HETATM    8  O   UNL     1      -6.786  12.805  66.817  1.00  0.00    -0.422 OA 
HETATM    9  H   UNL     1      -6.662  12.006  66.317  1.00  0.00     0.000 HD 
BRANCH   7  10
HETATM   10  C   UNL     1      -8.329  11.582  68.235  1.00  0.00    -0.154 C  
BRANCH  10  11
HETATM   11  O   UNL     1      -9.663  11.094  68.032  1.00  0.00    -0.167 OA 
BRANCH  11  12
HETATM   12  C   UNL     1     -10.240  10.516  69.131  1.00  0.00    -0.224 A  
HETATM   13  C   UNL     1     -11.590  10.605  69.457  1.00  0.00    -0.360 A  
HETATM   14  C   UNL     1     -12.078   9.976  70.604  1.00  0.00    -0.381 A  
HETATM   15  C   UNL     1     -11.230   9.225  71.431  1.00  0.00    -0.433 A  
HETATM   16  C   UNL     1      -9.878   9.124  71.085  1.00  0.00    -0.371 A  
HETATM   17  C   UNL     1      -9.388   9.760  69.939  1.00  0.00    -0.262 A  
BRANCH  15  18
HETATM   18  C   UNL     1     -11.771   8.550  72.668  1.00  0.00    -0.301 C  
BRANCH  18  19
HETATM   19  C   UNL     1     -10.900   7.378  73.120  1.00  0.00    -0.386 C  
BRANCH  19  20
HETATM   20  O   UNL     1     -11.313   6.181  72.457  1.00  0.00    -0.270 OA 
BRANCH  20  21
HETATM   21  C   UNL     1     -10.187   5.509  71.890  1.00  0.00    -0.199 C  
BRANCH  21  22
HETATM   22  C   UNL     1     -10.124   4.118  72.431  1.00  0.00    -0.243 C  
HETATM   23  C   UNL     1      -9.479   3.875  73.773  1.00  0.00    -0.118 C  
HETATM   24  C   UNL     1     -10.964   3.705  73.613  1.00  0.00    -0.333 C  
ENDBRANCH  21  22
ENDBRANCH  20  21
ENDBRANCH  19  20
ENDBRANCH  18  19
ENDBRANCH  15  18
ENDBRANCH  11  12
ENDBRANCH  10  11
ENDBRANCH   7  10
ENDBRANCH   6   7
ENDBRANCH   4   6
ENDBRANCH   2   4
TORSDOF 11
ENDMDL
MODEL      189
REMARK 921   NORMALIZED FREE ENERGY PREDICTED BY IDOCK:   -3.71 KCAL/MOL
REMARK 922        TOTAL FREE ENERGY PREDICTED BY IDOCK:   -7.42 KCAL/MOL
REMARK 923 INTER-LIGAND FREE ENERGY PREDICTED BY IDOCK:   -6.92 KCAL/MOL
REMARK 924 INTRA-LIGAND FREE ENERGY PREDICTED BY IDOCK:   -0.50 KCAL/MOL
REMARK 927      BINDING AFFINITY PREDICTED BY RF-SCORE:    0.00 PKD
ROOT
HETATM    1  C   UNL     1     -10.069  19.016  68.340  1.00  0.00    -0.471 C  
HETATM    2  C   UNL     1     -10.771  18.272  67.202  1.00  0.00    -0.305 C  
HETATM    3  C   UNL     1     -10.514  19.000  65.881  1.00  0.00    -0.468 C  
ENDROOT
BRANCH   2   4
HETATM    4  N   UNL     1     -10.272  16.895  67.169  1.00  0.00    -0.291 NA 
HETATM    5  H   UNL     1     -10.906  16.268  67.664  1.00  0.00     0.000 HD 
BRANCH   4   6
HETATM    6  C   UNL     1     -10.008  16.404  65.808  1.00  0.00    -0.302 C  
BRANCH   6   7
HETATM    7  C   UNL     1     -11.308  15.882  65.171  1.00  0.00    -0.118 C  
HETATM    8  O   UNL     1     -11.333  16.226  63.775  1.00  0.00    -1.368 OA 
HETATM    9  H   UNL     1     -12.136  15.904  63.382  1.00  0.00     0.000 HD 
BRANCH   7  10
HETATM   10  C   UNL     1     -11.434  14.360  65.322  1.00  0.00    -0.350 C  
BRANCH  10  11
HETATM   11  O   UNL     1     -10.336  13.877  66.111  1.00  0.00    -0.286 OA 
BRANCH  11  12
HETATM   12  C   UNL     1     -10.367  12.536  66.383  1.00  0.00    -0.243 A  
HETATM   13  C   UNL     1      -9.583  11.579  65.746  1.00  0.00    -0.259 A  
HETATM   14  C   UNL     1      -9.691  10.234  66.100  1.00  0.00    -0.266 A  
HETATM   15  C   UNL     1     -10.568   9.824  67.116  1.00  0.00    -0.298 A  
HETATM   16  C   UNL     1     -11.339  10.794  67.765  1.00  0.00    -0.354 A  
HETATM   17  C   UNL     1     -11.234  12.143  67.405  1.00  0.00    -0.362 A  
BRANCH  15  18
HETATM   18  C   UNL     1     -10.675   8.365  67.489  1.00  0.00    -0.207 C  
BRANCH  18  19
HETATM   19  C   UNL     1      -9.624   7.505  66.786  1.00  0.00    -0.206 C  
BRANCH  19  20
HETATM   20  O   UNL     1     -10.082   6.154  66.696  1.00  0.00    -0.170 OA 
BRANCH  20  21
HETATM   21  C   UNL     1      -8.986   5.245  66.803  1.00  0.00    -0.111 C  
BRANCH  21  22
HETATM   22  C   UNL     1      -8.815   4.529  65.503  1.00  0.00    -0.130 C  
HETATM   23  C   UNL     1      -9.160   3.063  65.414  1.00  0.00    -0.150 C  
HETATM   24  C   UNL     1     -10.009   4.078  64.701  1.00  0.00    -0.205 C  
ENDBRANCH  21  22
ENDBRANCH  20  21
ENDBRANCH  19  20
ENDBRANCH  18  19
ENDBRANCH  15  18
ENDBRANCH  11  12
ENDBRANCH  10  11
ENDBRANCH   7  10
ENDBRANCH   6   7
ENDBRANCH   4   6
ENDBRANCH   2   4
TORSDOF 11
ENDMDL
MODEL      190
REMARK 921   NORMALIZED FREE ENERGY PREDICTED BY IDOCK:   -3.70 KCAL/MOL
REMARK 922        TOTAL FREE ENERGY PREDICTED BY IDOCK:   -7.40 KCAL/MOL
REMARK 923 INTER-LIGAND FREE ENERGY PREDICTED BY IDOCK:   -6.50 KCAL/MOL
REMARK 924 INTRA-LIGAND FREE ENERGY PREDICTED BY IDOCK:   -0.90 KCAL/MOL
REMARK 927      BINDING AFFINITY PREDICTED BY RF-SCORE:    0.00 PKD
ROOT
HETATM    1  C   UNL     1      -7.504   8.096  64.108  1.00  0.00    -0.106 C  
HETATM    2  C   UNL     1      -7.542   7.015  65.191  1.00  0.00    -0.102 C  
HETATM    3  C   UNL     1      -7.099   7.616  66.527  1.00  0.00    -0.075 C  
ENDROOT
BRANCH   2   4
HETATM    4  N   UNL     1      -8.903   6.477  65.263  1.00  0.00    -0.363 NA 
HETATM    5  H   UNL     1      -9.457   6.788  64.465  1.00  0.00     0.000 HD 
BRANCH   4   6
HETATM    6  C   UNL     1      -8.943   5.012  65.389  1.00  0.00    -0.152 C  
BRANCH   6   7
HETATM    7  C   UNL     1     -10.210   4.579  66.147  1.00  0.00    -0.254 C  
HETATM    8  O   UNL     1      -9.892   3.500  67.043  1.00  0.00    -0.362 OA 
HETATM    9  H   UNL     1     -10.675   3.233  67.510  1.00  0.00     0.000 HD 
BRANCH   7  10
HETATM   10  C   UNL     1     -10.810   5.744  66.947  1.00  0.00    -0.254 C  
BRANCH  10  11
HETATM   11  O   UNL     1      -9.897   6.111  67.992  1.00  0.00    -0.121 OA 
BRANCH  11  12
HETATM   12  C   UNL     1     -10.415   6.946  68.945  1.00  0.00    -0.208 A  
HETATM   13  C   UNL     1     -10.137   8.306  69.044  1.00  0.00    -0.208 A  
HETATM   14  C   UNL     1     -10.720   9.070  70.056  1.00  0.00    -0.247 A  
HETATM   15  C   UNL     1     -11.611   8.493  70.972  1.00  0.00    -0.317 A  
HETATM   16  C   UNL     1     -11.901   7.129  70.855  1.00  0.00    -0.379 A  
HETATM   17  C   UNL     1     -11.312   6.363  69.843  1.00  0.00    -0.500 A  
BRANCH  15  18
HETATM   18  C   UNL     1     -12.234   9.331  72.062  1.00  0.00    -0.418 C  
BRANCH  18  19
HETATM   19  C   UNL     1     -13.293  10.295  71.524  1.00  0.00    -0.318 C  
BRANCH  19  20
HETATM   20  O   UNL     1     -13.186  11.555  72.189  1.00  0.00    -0.505 OA 
BRANCH  20  21
HETATM   21  C   UNL     1     -12.813  12.579  71.266  1.00  0.00    -0.241 C  
BRANCH  21  22
HETATM   22  C   UNL     1     -13.267  13.902  71.792  1.00  0.00    -0.455 C  
HETATM   23  C   UNL     1     -12.242  14.894  72.284  1.00  0.00    -0.419 C  
HETATM   24  C   UNL     1     -13.011  15.173  71.023  1.00  0.00    -0.494 C  
ENDBRANCH  21  22
ENDBRANCH  20  21
ENDBRANCH  19  20
ENDBRANCH  18  19
ENDBRANCH  15  18
ENDBRANCH  11  12
ENDBRANCH  10  11
ENDBRANCH   7  10
ENDBRANCH   6   7
ENDBRANCH   4   6
ENDBRANCH   2   4
TORSDOF 11
ENDMDL
MODEL      191
REMARK 921   NORMALIZED FREE ENERGY PREDICTED BY IDOCK:   -3.69 KCAL/MOL
REMARK 922        TOTAL FREE ENERGY PREDICTED BY IDOCK:   -7.38 KCAL/MOL
REMARK 923 INTER-LIGAND FREE ENERGY PREDICTED BY IDOCK:   -6.46 KCAL/MOL
REMARK 924 INTRA-LIGAND FREE ENERGY PREDICTED BY IDOCK:   -0.93 KCAL/MOL
REMARK 927      BINDING AFFINITY PREDICTED BY RF-SCORE:    0.00 PKD
ROOT
HETATM    1  C   UNL     1      -5.990  11.662  67.156  1.00  0.00    -0.127 C  
HETATM    2  C   UNL     1      -7.466  12.068  67.169  1.00  0.00    -0.138 C  
HETATM    3  C   UNL     1      -8.092  11.672  68.508  1.00  0.00    -0.145 C  
ENDROOT
BRANCH   2   4
HETATM    4  N   UNL     1      -7.553  13.511  66.935  1.00  0.00    -0.281 NA 
HETATM    5  H   UNL     1      -6.963  13.787  66.151  1.00  0.00     0.000 HD 
BRANCH   4   6
HETATM    6  C   UNL     1      -8.931  13.988  66.744  1.00  0.00    -0.197 C  
BRANCH   6   7
HETATM    7  C   UNL     1      -9.296  15.009  67.836  1.00  0.00    -0.183 C  
HETATM    8  O   UNL     1      -8.431  16.153  67.735  1.00  0.00    -0.157 OA 
HETATM    9  H   UNL     1      -8.657  16.784  68.409  1.00  0.00     0.000 HD 
BRANCH   7  10
HETATM   10  C   UNL     1     -10.757  15.463  67.712  1.00  0.00    -0.289 C  
BRANCH  10  11
HETATM   11  O   UNL     1     -11.581  14.317  67.448  1.00  0.00    -0.330 OA 
BRANCH  11  12
HETATM   12  C   UNL     1     -11.863  13.544  68.542  1.00  0.00    -0.362 A  
HETATM   13  C   UNL     1     -12.252  14.037  69.783  1.00  0.00    -0.396 A  
HETATM   14  C   UNL     1     -12.517  13.161  70.836  1.00  0.00    -0.407 A  
HETATM   15  C   UNL     1     -12.421  11.772  70.659  1.00  0.00    -0.364 A  
HETATM   16  C   UNL     1     -12.048  11.283  69.403  1.00  0.00    -0.384 A  
HETATM   17  C   UNL     1     -11.776  12.163  68.349  1.00  0.00    -0.388 A  
BRANCH  15  18
HETATM   18  C   UNL     1     -12.710  10.835  71.807  1.00  0.00    -0.464 C  
BRANCH  18  19
HETATM   19  C   UNL     1     -12.478   9.370  71.435  1.00  0.00    -0.352 C  
BRANCH  19  20
HETATM   20  O   UNL     1     -11.957   8.659  72.560  1.00  0.00    -0.368 OA 
BRANCH  20  21
HETATM   21  C   UNL     1     -11.071   7.624  72.132  1.00  0.00    -0.267 C  
BRANCH  21  22
HETATM   22  C   UNL     1     -11.343   7.310  70.697  1.00  0.00    -0.311 C  
HETATM   23  C   UNL     1     -10.205   6.880  69.805  1.00  0.00    -0.210 C  
HETATM   24  C   UNL     1     -11.273   5.893  70.186  1.00  0.00    -0.338 C  
ENDBRANCH  21  22
ENDBRANCH  20  21
ENDBRANCH  19  20
ENDBRANCH  18  19
ENDBRANCH  15  18
ENDBRANCH  11  12
ENDBRANCH  10  11
ENDBRANCH   7  10
ENDBRANCH   6   7
ENDBRANCH   4   6
ENDBRANCH   2   4
TORSDOF 11
ENDMDL
MODEL      192
REMARK 921   NORMALIZED FREE ENERGY PREDICTED BY IDOCK:   -3.69 KCAL/MOL
REMARK 922        TOTAL FREE ENERGY PREDICTED BY IDOCK:   -7.38 KCAL/MOL
REMARK 923 INTER-LIGAND FREE ENERGY PREDICTED BY IDOCK:   -5.37 KCAL/MOL
REMARK 924 INTRA-LIGAND FREE ENERGY PREDICTED BY IDOCK:   -2.01 KCAL/MOL
REMARK 927      BINDING AFFINITY PREDICTED BY RF-SCORE:    0.00 PKD
ROOT
HETATM    1  C   UNL     1      -8.295  15.307  69.142  1.00  0.00    -0.233 C  
HETATM    2  C   UNL     1      -7.530  16.440  68.453  1.00  0.00    -0.171 C  
HETATM    3  C   UNL     1      -6.808  15.893  67.220  1.00  0.00    -0.232 C  
ENDROOT
BRANCH   2   4
HETATM    4  N   UNL     1      -8.481  17.497  68.101  1.00  0.00    -0.246 NA 
HETATM    5  H   UNL     1      -8.183  17.986  67.258  1.00  0.00     0.000 HD 
BRANCH   4   6
HETATM    6  C   UNL     1      -9.863  17.013  67.963  1.00  0.00    -0.275 C  
BRANCH   6   7
HETATM    7  C   UNL     1     -10.335  17.160  66.506  1.00  0.00    -0.306 C  
HETATM    8  O   UNL     1      -9.317  17.821  65.734  1.00  0.00    -0.512 OA 
HETATM    9  H   UNL     1      -9.609  17.912  64.834  1.00  0.00     0.000 HD 
BRANCH   7  10
HETATM   10  C   UNL     1     -10.644  15.795  65.877  1.00  0.00    -0.339 C  
BRANCH  10  11
HETATM   11  O   UNL     1     -11.204  14.935  66.880  1.00  0.00    -0.335 OA 
BRANCH  11  12
HETATM   12  C   UNL     1     -10.913  13.605  66.730  1.00  0.00    -0.292 A  
HETATM   13  C   UNL     1      -9.992  13.093  65.822  1.00  0.00    -0.260 A  
HETATM   14  C   UNL     1      -9.769  11.717  65.748  1.00  0.00    -0.260 A  
HETATM   15  C   UNL     1     -10.446  10.831  66.598  1.00  0.00    -0.302 A  
HETATM   16  C   UNL     1     -11.358  11.355  67.522  1.00  0.00    -0.362 A  
HETATM   17  C   UNL     1     -11.584  12.735  67.591  1.00  0.00    -0.412 A  
BRANCH  15  18
HETATM   18  C   UNL     1     -10.196   9.345  66.508  1.00  0.00    -0.308 C  
BRANCH  18  19
HETATM   19  C   UNL     1      -8.755   9.020  66.115  1.00  0.00    -0.147 C  
BRANCH  19  20
HETATM   20  O   UNL     1      -7.938   8.943  67.286  1.00  0.00    -0.096 OA 
BRANCH  20  21
HETATM   21  C   UNL     1      -6.870   9.889  67.214  1.00  0.00    -0.083 C  
BRANCH  21  22
HETATM   22  C   UNL     1      -6.792  10.638  68.505  1.00  0.00    -0.065 C  
HETATM   23  C   UNL     1      -6.567  12.129  68.483  1.00  0.00    -0.063 C  
HETATM   24  C   UNL     1      -7.893  11.578  68.926  1.00  0.00    -0.071 C  
ENDBRANCH  21  22
ENDBRANCH  20  21
ENDBRANCH  19  20
ENDBRANCH  18  19
ENDBRANCH  15  18
ENDBRANCH  11  12
ENDBRANCH  10  11
ENDBRANCH   7  10
ENDBRANCH   6   7
ENDBRANCH   4   6
ENDBRANCH   2   4
TORSDOF 11
ENDMDL
MODEL      193
REMARK 921   NORMALIZED FREE ENERGY PREDICTED BY IDOCK:   -3.68 KCAL/MOL
REMARK 922        TOTAL FREE ENERGY PREDICTED BY IDOCK:   -7.37 KCAL/MOL
REMARK 923 INTER-LIGAND FREE ENERGY PREDICTED BY IDOCK:   -6.17 KCAL/MOL
REMARK 924 INTRA-LIGAND FREE ENERGY PREDICTED BY IDOCK:   -1.20 KCAL/MOL
REMARK 927      BINDING AFFINITY PREDICTED BY RF-SCORE:    0.00 PKD
ROOT
HETATM    1  C   UNL     1     -13.730  14.485  72.548  1.00  0.00    -0.580 C  
HETATM    2  C   UNL     1     -13.225  15.598  71.627  1.00  0.00    -0.472 C  
HETATM    3  C   UNL     1     -11.905  16.150  72.170  1.00  0.00    -0.626 C  
ENDROOT
BRANCH   2   4
HETATM    4  N   UNL     1     -13.070  15.050  70.277  1.00  0.00    -0.638 NA 
HETATM    5  H   UNL     1     -13.777  15.431  69.649  1.00  0.00     0.000 HD 
BRANCH   4   6
HETATM    6  C   UNL     1     -11.721  15.241  69.724  1.00  0.00    -0.323 C  
BRANCH   6   7
HETATM    7  C   UNL     1     -11.680  14.781  68.255  1.00  0.00    -0.311 C  
HETATM    8  O   UNL     1     -10.590  15.429  67.577  1.00  0.00    -0.270 OA 
HETATM    9  H   UNL     1     -10.565  15.145  66.671  1.00  0.00     0.000 HD 
BRANCH   7  10
HETATM   10  C   UNL     1     -11.513  13.259  68.150  1.00  0.00    -0.312 C  
BRANCH  10  11
HETATM   11  O   UNL     1     -10.552  12.965  67.125  1.00  0.00    -0.236 OA 
BRANCH  11  12
HETATM   12  C   UNL     1     -10.080  11.680  67.127  1.00  0.00    -0.204 A  
HETATM   13  C   UNL     1      -8.758  11.321  66.885  1.00  0.00    -0.157 A  
HETATM   14  C   UNL     1      -8.379   9.978  66.910  1.00  0.00    -0.125 A  
HETATM   15  C   UNL     1      -9.312   8.971  67.204  1.00  0.00    -0.184 A  
HETATM   16  C   UNL     1     -10.635   9.342  67.466  1.00  0.00    -0.333 A  
HETATM   17  C   UNL     1     -11.015  10.689  67.434  1.00  0.00    -0.361 A  
BRANCH  15  18
HETATM   18  C   UNL     1      -8.889   7.523  67.228  1.00  0.00    -0.124 C  
BRANCH  18  19
HETATM   19  C   UNL     1      -7.446   7.345  67.704  1.00  0.00    -0.097 C  
BRANCH  19  20
HETATM   20  O   UNL     1      -7.429   7.039  69.101  1.00  0.00    -0.090 OA 
BRANCH  20  21
HETATM   21  C   UNL     1      -8.668   6.449  69.499  1.00  0.00    -0.133 C  
BRANCH  21  22
HETATM   22  C   UNL     1      -9.136   7.100  70.760  1.00  0.00    -0.153 C  
HETATM   23  C   UNL     1      -9.032   8.598  70.903  1.00  0.00    -0.227 C  
HETATM   24  C   UNL     1     -10.382   7.948  70.780  1.00  0.00    -0.211 C  
ENDBRANCH  21  22
ENDBRANCH  20  21
ENDBRANCH  19  20
ENDBRANCH  18  19
ENDBRANCH  15  18
ENDBRANCH  11  12
ENDBRANCH  10  11
ENDBRANCH   7  10
ENDBRANCH   6   7
ENDBRANCH   4   6
ENDBRANCH   2   4
TORSDOF 11
ENDMDL
MODEL      194
REMARK 921   NORMALIZED FREE ENERGY PREDICTED BY IDOCK:   -3.65 KCAL/MOL
REMARK 922        TOTAL FREE ENERGY PREDICTED BY IDOCK:   -7.33 KCAL/MOL
REMARK 923 INTER-LIGAND FREE ENERGY PREDICTED BY IDOCK:   -6.39 KCAL/MOL
REMARK 924 INTRA-LIGAND FREE ENERGY PREDICTED BY IDOCK:   -0.94 KCAL/MOL
REMARK 927      BINDING AFFINITY PREDICTED BY RF-SCORE:    0.00 PKD
ROOT
HETATM    1  C   UNL     1      -9.447   4.390  64.705  1.00  0.00    -0.144 C  
HETATM    2  C   UNL     1      -9.934   4.658  66.131  1.00  0.00    -0.247 C  
HETATM    3  C   UNL     1      -8.914   4.108  67.131  1.00  0.00    -0.139 C  
ENDROOT
BRANCH   2   4
HETATM    4  N   UNL     1     -10.128   6.101  66.292  1.00  0.00    -0.399 NA 
HETATM    5  H   UNL     1     -10.361   6.537  65.400  1.00  0.00     0.000 HD 
BRANCH   4   6
HETATM    6  C   UNL     1     -11.127   6.443  67.316  1.00  0.00    -0.330 C  
BRANCH   6   7
HETATM    7  C   UNL     1     -10.532   7.439  68.327  1.00  0.00    -0.189 C  
HETATM    8  O   UNL     1      -9.696   6.736  69.263  1.00  0.00    -0.150 OA 
HETATM    9  H   UNL     1      -9.329   7.352  69.886  1.00  0.00     0.000 HD 
BRANCH   7  10
HETATM   10  C   UNL     1      -9.706   8.525  67.623  1.00  0.00    -0.160 C  
BRANCH  10  11
HETATM   11  O   UNL     1     -10.588   9.362  66.861  1.00  0.00    -0.231 OA 
BRANCH  11  12
HETATM   12  C   UNL     1     -10.995  10.503  67.498  1.00  0.00    -0.303 A  
HETATM   13  C   UNL     1     -11.152  10.630  68.874  1.00  0.00    -0.314 A  
HETATM   14  C   UNL     1     -11.573  11.842  69.425  1.00  0.00    -0.386 A  
HETATM   15  C   UNL     1     -11.820  12.957  68.609  1.00  0.00    -0.347 A  
HETATM   16  C   UNL     1     -11.640  12.827  67.228  1.00  0.00    -0.420 A  
HETATM   17  C   UNL     1     -11.224  11.610  66.677  1.00  0.00    -0.362 A  
BRANCH  15  18
HETATM   18  C   UNL     1     -12.275  14.261  69.217  1.00  0.00    -0.289 C  
BRANCH  18  19
HETATM   19  C   UNL     1     -11.160  15.307  69.255  1.00  0.00    -0.274 C  
BRANCH  19  20
HETATM   20  O   UNL     1     -11.322  16.229  68.175  1.00  0.00    -0.337 OA 
BRANCH  20  21
HETATM   21  C   UNL     1     -10.145  17.022  68.012  1.00  0.00    -0.305 C  
BRANCH  21  22
HETATM   22  C   UNL     1      -9.678  16.920  66.597  1.00  0.00    -0.283 C  
HETATM   23  C   UNL     1      -9.129  15.609  66.090  1.00  0.00    -0.378 C  
HETATM   24  C   UNL     1     -10.449  16.116  65.580  1.00  0.00    -0.402 C  
ENDBRANCH  21  22
ENDBRANCH  20  21
ENDBRANCH  19  20
ENDBRANCH  18  19
ENDBRANCH  15  18
ENDBRANCH  11  12
ENDBRANCH  10  11
ENDBRANCH   7  10
ENDBRANCH   6   7
ENDBRANCH   4   6
ENDBRANCH   2   4
TORSDOF 11
ENDMDL
MODEL      195
REMARK 921   NORMALIZED FREE ENERGY PREDICTED BY IDOCK:   -3.65 KCAL/MOL
REMARK 922        TOTAL FREE ENERGY PREDICTED BY IDOCK:   -7.32 KCAL/MOL
REMARK 923 INTER-LIGAND FREE ENERGY PREDICTED BY IDOCK:   -6.76 KCAL/MOL
REMARK 924 INTRA-LIGAND FREE ENERGY PREDICTED BY IDOCK:   -0.56 KCAL/MOL
REMARK 927      BINDING AFFINITY PREDICTED BY RF-SCORE:    0.00 PKD
ROOT
HETATM    1  C   UNL     1      -9.397   1.963  72.434  1.00  0.00    -0.129 C  
HETATM    2  C   UNL     1      -9.863   3.142  73.293  1.00  0.00    -0.110 C  
HETATM    3  C   UNL     1      -8.665   3.734  74.039  1.00  0.00    -0.089 C  
ENDROOT
BRANCH   2   4
HETATM    4  N   UNL     1     -10.501   4.130  72.420  1.00  0.00    -0.144 NA 
HETATM    5  H   UNL     1     -11.114   3.674  71.745  1.00  0.00     0.000 HD 
BRANCH   4   6
HETATM    6  C   UNL     1     -11.222   5.178  73.157  1.00  0.00    -0.330 C  
BRANCH   6   7
HETATM    7  C   UNL     1     -11.629   6.315  72.203  1.00  0.00    -0.319 C  
HETATM    8  O   UNL     1     -13.058   6.474  72.223  1.00  0.00    -0.548 OA 
HETATM    9  H   UNL     1     -13.308   7.176  71.633  1.00  0.00     0.000 HD 
BRANCH   7  10
HETATM   10  C   UNL     1     -10.964   7.641  72.597  1.00  0.00    -0.351 C  
BRANCH  10  11
HETATM   11  O   UNL     1     -11.954   8.680  72.590  1.00  0.00    -0.340 OA 
BRANCH  11  12
HETATM   12  C   UNL     1     -11.807   9.611  71.597  1.00  0.00    -0.384 A  
HETATM   13  C   UNL     1     -10.878   9.530  70.565  1.00  0.00    -0.352 A  
HETATM   14  C   UNL     1     -10.810  10.536  69.600  1.00  0.00    -0.320 A  
HETATM   15  C   UNL     1     -11.689  11.630  69.637  1.00  0.00    -0.418 A  
HETATM   16  C   UNL     1     -12.633  11.695  70.667  1.00  0.00    -0.319 A  
HETATM   17  C   UNL     1     -12.696  10.688  71.637  1.00  0.00    -0.531 A  
BRANCH  15  18
HETATM   18  C   UNL     1     -11.604  12.711  68.587  1.00  0.00    -0.356 C  
BRANCH  18  19
HETATM   19  C   UNL     1     -10.165  13.154  68.321  1.00  0.00    -0.250 C  
BRANCH  19  20
HETATM   20  O   UNL     1     -10.162  14.355  67.544  1.00  0.00    -0.238 OA 
BRANCH  20  21
HETATM   21  C   UNL     1     -11.182  15.246  67.996  1.00  0.00    -0.326 C  
BRANCH  21  22
HETATM   22  C   UNL     1     -10.575  16.265  68.904  1.00  0.00    -0.284 C  
HETATM   23  C   UNL     1      -9.138  16.677  68.698  1.00  0.00    -0.245 C  
HETATM   24  C   UNL     1     -10.246  17.650  68.407  1.00  0.00    -0.381 C  
ENDBRANCH  21  22
ENDBRANCH  20  21
ENDBRANCH  19  20
ENDBRANCH  18  19
ENDBRANCH  15  18
ENDBRANCH  11  12
ENDBRANCH  10  11
ENDBRANCH   7  10
ENDBRANCH   6   7
ENDBRANCH   4   6
ENDBRANCH   2   4
TORSDOF 11
ENDMDL
MODEL      196
REMARK 921   NORMALIZED FREE ENERGY PREDICTED BY IDOCK:   -3.64 KCAL/MOL
REMARK 922        TOTAL FREE ENERGY PREDICTED BY IDOCK:   -7.30 KCAL/MOL
REMARK 923 INTER-LIGAND FREE ENERGY PREDICTED BY IDOCK:   -5.48 KCAL/MOL
REMARK 924 INTRA-LIGAND FREE ENERGY PREDICTED BY IDOCK:   -1.82 KCAL/MOL
REMARK 927      BINDING AFFINITY PREDICTED BY RF-SCORE:    0.00 PKD
ROOT
HETATM    1  C   UNL     1      -6.932  10.602  69.637  1.00  0.00    -0.134 C  
HETATM    2  C   UNL     1      -7.916  11.128  68.589  1.00  0.00    -0.145 C  
HETATM    3  C   UNL     1      -7.767  12.646  68.467  1.00  0.00    -0.114 C  
ENDROOT
BRANCH   2   4
HETATM    4  N   UNL     1      -7.647  10.452  67.318  1.00  0.00    -0.094 NA 
HETATM    5  H   UNL     1      -6.652  10.253  67.217  1.00  0.00     0.000 HD 
BRANCH   4   6
HETATM    6  C   UNL     1      -8.447   9.233  67.127  1.00  0.00    -0.124 C  
BRANCH   6   7
HETATM    7  C   UNL     1      -9.219   9.306  65.797  1.00  0.00    -0.224 C  
HETATM    8  O   UNL     1      -9.529   7.977  65.345  1.00  0.00    -0.362 OA 
HETATM    9  H   UNL     1     -10.006   8.023  64.525  1.00  0.00     0.000 HD 
BRANCH   7  10
HETATM   10  C   UNL     1     -10.518  10.109  65.949  1.00  0.00    -0.071 C  
BRANCH  10  11
HETATM   11  O   UNL     1     -10.981   9.998  67.303  1.00  0.00    -0.262 OA 
BRANCH  11  12
HETATM   12  C   UNL     1     -11.315  11.184  67.899  1.00  0.00    -0.309 A  
HETATM   13  C   UNL     1     -11.661  11.328  69.238  1.00  0.00    -0.390 A  
HETATM   14  C   UNL     1     -11.985  12.586  69.749  1.00  0.00    -0.359 A  
HETATM   15  C   UNL     1     -11.945  13.727  68.933  1.00  0.00    -0.394 A  
HETATM   16  C   UNL     1     -11.577  13.577  67.591  1.00  0.00    -0.374 A  
HETATM   17  C   UNL     1     -11.258  12.314  67.079  1.00  0.00    -0.367 A  
BRANCH  15  18
HETATM   18  C   UNL     1     -12.299  15.082  69.497  1.00  0.00    -0.199 C  
BRANCH  18  19
HETATM   19  C   UNL     1     -11.575  16.220  68.776  1.00  0.00    -0.223 C  
BRANCH  19  20
HETATM   20  O   UNL     1     -10.464  16.662  69.560  1.00  0.00    -0.305 OA 
BRANCH  20  21
HETATM   21  C   UNL     1      -9.242  16.143  69.034  1.00  0.00    -0.252 C  
BRANCH  21  22
HETATM   22  C   UNL     1      -9.094  16.584  67.614  1.00  0.00    -0.199 C  
HETATM   23  C   UNL     1      -7.719  16.633  66.994  1.00  0.00    -0.235 C  
HETATM   24  C   UNL     1      -8.714  15.606  66.532  1.00  0.00    -0.342 C  
ENDBRANCH  21  22
ENDBRANCH  20  21
ENDBRANCH  19  20
ENDBRANCH  18  19
ENDBRANCH  15  18
ENDBRANCH  11  12
ENDBRANCH  10  11
ENDBRANCH   7  10
ENDBRANCH   6   7
ENDBRANCH   4   6
ENDBRANCH   2   4
TORSDOF 11
ENDMDL
MODEL      197
REMARK 921   NORMALIZED FREE ENERGY PREDICTED BY IDOCK:   -3.63 KCAL/MOL
REMARK 922        TOTAL FREE ENERGY PREDICTED BY IDOCK:   -7.30 KCAL/MOL
REMARK 923 INTER-LIGAND FREE ENERGY PREDICTED BY IDOCK:   -5.73 KCAL/MOL
REMARK 924 INTRA-LIGAND FREE ENERGY PREDICTED BY IDOCK:   -1.57 KCAL/MOL
REMARK 927      BINDING AFFINITY PREDICTED BY RF-SCORE:    0.00 PKD
ROOT
HETATM    1  C   UNL     1     -10.557  12.535  63.832  1.00  0.00    -0.472 C  
HETATM    2  C   UNL     1     -11.095  13.350  65.011  1.00  0.00    -0.319 C  
HETATM    3  C   UNL     1     -12.609  13.155  65.118  1.00  0.00    -0.525 C  
ENDROOT
BRANCH   2   4
HETATM    4  N   UNL     1     -10.404  12.915  66.228  1.00  0.00    -0.263 NA 
HETATM    5  H   UNL     1     -10.275  13.698  66.870  1.00  0.00     0.000 HD 
BRANCH   4   6
HETATM    6  C   UNL     1     -11.069  11.790  66.904  1.00  0.00    -0.307 C  
BRANCH   6   7
HETATM    7  C   UNL     1     -10.603  11.700  68.368  1.00  0.00    -0.211 C  
HETATM    8  O   UNL     1     -10.266  13.012  68.849  1.00  0.00    -0.414 OA 
HETATM    9  H   UNL     1      -9.978  12.956  69.753  1.00  0.00     0.000 HD 
BRANCH   7  10
HETATM   10  C   UNL     1     -11.691  11.093  69.265  1.00  0.00    -0.331 C  
BRANCH  10  11
HETATM   11  O   UNL     1     -11.082  10.593  70.464  1.00  0.00    -0.276 OA 
BRANCH  11  12
HETATM   12  C   UNL     1     -10.494   9.363  70.345  1.00  0.00    -0.256 A  
HETATM   13  C   UNL     1     -11.100   8.247  69.776  1.00  0.00    -0.056 A  
HETATM   14  C   UNL     1     -10.411   7.035  69.702  1.00  0.00    -0.238 A  
HETATM   15  C   UNL     1      -9.094   6.925  70.174  1.00  0.00    -0.152 A  
HETATM   16  C   UNL     1      -8.485   8.056  70.727  1.00  0.00    -0.124 A  
HETATM   17  C   UNL     1      -9.179   9.269  70.806  1.00  0.00    -0.316 A  
BRANCH  15  18
HETATM   18  C   UNL     1      -8.361   5.608  70.089  1.00  0.00    -0.118 C  
BRANCH  18  19
HETATM   19  C   UNL     1      -9.132   4.468  70.754  1.00  0.00    -0.127 C  
BRANCH  19  20
HETATM   20  O   UNL     1      -9.073   4.606  72.176  1.00  0.00    -0.124 OA 
BRANCH  20  21
HETATM   21  C   UNL     1     -10.376   4.477  72.746  1.00  0.00    -0.187 C  
BRANCH  21  22
HETATM   22  C   UNL     1     -10.572   5.549  73.768  1.00  0.00    -0.316 C  
HETATM   23  C   UNL     1      -9.474   6.557  74.003  1.00  0.00    -0.217 C  
HETATM   24  C   UNL     1     -10.761   6.988  73.357  1.00  0.00    -0.379 C  
ENDBRANCH  21  22
ENDBRANCH  20  21
ENDBRANCH  19  20
ENDBRANCH  18  19
ENDBRANCH  15  18
ENDBRANCH  11  12
ENDBRANCH  10  11
ENDBRANCH   7  10
ENDBRANCH   6   7
ENDBRANCH   4   6
ENDBRANCH   2   4
TORSDOF 11
ENDMDL
MODEL      198
REMARK 921   NORMALIZED FREE ENERGY PREDICTED BY IDOCK:   -3.63 KCAL/MOL
REMARK 922        TOTAL FREE ENERGY PREDICTED BY IDOCK:   -7.28 KCAL/MOL
REMARK 923 INTER-LIGAND FREE ENERGY PREDICTED BY IDOCK:   -6.04 KCAL/MOL
REMARK 924 INTRA-LIGAND FREE ENERGY PREDICTED BY IDOCK:   -1.24 KCAL/MOL
REMARK 927      BINDING AFFINITY PREDICTED BY RF-SCORE:    0.00 PKD
ROOT
HETATM    1  C   UNL     1      -7.176  10.954  66.427  1.00  0.00    -0.140 C  
HETATM    2  C   UNL     1      -8.336  11.688  67.103  1.00  0.00    -0.164 C  
HETATM    3  C   UNL     1      -7.852  12.311  68.414  1.00  0.00    -0.151 C  
ENDROOT
BRANCH   2   4
HETATM    4  N   UNL     1      -8.846  12.702  66.177  1.00  0.00    -0.417 NA 
HETATM    5  H   UNL     1      -8.409  12.608  65.260  1.00  0.00     0.000 HD 
BRANCH   4   6
HETATM    6  C   UNL     1     -10.312  12.698  66.059  1.00  0.00    -0.270 C  
BRANCH   6   7
HETATM    7  C   UNL     1     -10.924  13.750  67.000  1.00  0.00    -0.290 C  
HETATM    8  O   UNL     1     -11.669  14.710  66.231  1.00  0.00    -0.370 OA 
HETATM    9  H   UNL     1     -12.047  15.360  66.812  1.00  0.00     0.000 HD 
BRANCH   7  10
HETATM   10  C   UNL     1     -11.850  13.102  68.039  1.00  0.00    -0.358 C  
BRANCH  10  11
HETATM   11  O   UNL     1     -11.867  11.683  67.827  1.00  0.00    -0.564 OA 
BRANCH  11  12
HETATM   12  C   UNL     1     -11.750  10.928  68.963  1.00  0.00    -0.320 A  
HETATM   13  C   UNL     1     -12.388  11.204  70.168  1.00  0.00    -0.373 A  
HETATM   14  C   UNL     1     -12.201  10.368  71.270  1.00  0.00    -0.491 A  
HETATM   15  C   UNL     1     -11.391   9.226  71.179  1.00  0.00    -0.412 A  
HETATM   16  C   UNL     1     -10.768   8.944  69.959  1.00  0.00    -0.241 A  
HETATM   17  C   UNL     1     -10.951   9.787  68.856  1.00  0.00    -0.183 A  
BRANCH  15  18
HETATM   18  C   UNL     1     -11.197   8.330  72.378  1.00  0.00    -0.451 C  
BRANCH  18  19
HETATM   19  C   UNL     1     -10.892   6.885  71.983  1.00  0.00    -0.225 C  
BRANCH  19  20
HETATM   20  O   UNL     1      -9.833   6.372  72.796  1.00  0.00    -0.168 OA 
BRANCH  20  21
HETATM   21  C   UNL     1      -8.660   6.155  72.012  1.00  0.00    -0.132 C  
BRANCH  21  22
HETATM   22  C   UNL     1      -7.884   7.430  71.929  1.00  0.00    -0.091 C  
HETATM   23  C   UNL     1      -7.478   8.133  73.201  1.00  0.00    -0.175 C  
HETATM   24  C   UNL     1      -6.434   7.484  72.336  1.00  0.00    -0.054 C  
ENDBRANCH  21  22
ENDBRANCH  20  21
ENDBRANCH  19  20
ENDBRANCH  18  19
ENDBRANCH  15  18
ENDBRANCH  11  12
ENDBRANCH  10  11
ENDBRANCH   7  10
ENDBRANCH   6   7
ENDBRANCH   4   6
ENDBRANCH   2   4
TORSDOF 11
ENDMDL
MODEL      199
REMARK 921   NORMALIZED FREE ENERGY PREDICTED BY IDOCK:   -3.62 KCAL/MOL
REMARK 922        TOTAL FREE ENERGY PREDICTED BY IDOCK:   -7.28 KCAL/MOL
REMARK 923 INTER-LIGAND FREE ENERGY PREDICTED BY IDOCK:   -6.31 KCAL/MOL
REMARK 924 INTRA-LIGAND FREE ENERGY PREDICTED BY IDOCK:   -0.96 KCAL/MOL
REMARK 927      BINDING AFFINITY PREDICTED BY RF-SCORE:    0.00 PKD
ROOT
HETATM    1  C   UNL     1      -8.490   8.496  67.701  1.00  0.00    -0.129 C  
HETATM    2  C   UNL     1      -8.916   8.122  66.279  1.00  0.00    -0.177 C  
HETATM    3  C   UNL     1      -9.390   6.667  66.254  1.00  0.00    -0.144 C  
ENDROOT
BRANCH   2   4
HETATM    4  N   UNL     1      -9.971   9.044  65.852  1.00  0.00    -0.436 NA 
HETATM    5  H   UNL     1     -10.841   8.853  66.349  1.00  0.00     0.000 HD 
BRANCH   4   6
HETATM    6  C   UNL     1      -9.595  10.459  65.982  1.00  0.00    -0.201 C  
BRANCH   6   7
HETATM    7  C   UNL     1     -10.681  11.230  66.753  1.00  0.00    -0.275 C  
HETATM    8  O   UNL     1     -10.360  11.243  68.155  1.00  0.00    -0.175 OA 
HETATM    9  H   UNL     1     -11.031  11.719  68.631  1.00  0.00     0.000 HD 
BRANCH   7  10
HETATM   10  C   UNL     1     -10.810  12.673  66.247  1.00  0.00    -0.273 C  
BRANCH  10  11
HETATM   11  O   UNL     1      -9.714  13.446  66.756  1.00  0.00    -0.247 OA 
BRANCH  11  12
HETATM   12  C   UNL     1      -9.934  14.796  66.807  1.00  0.00    -0.251 A  
HETATM   13  C   UNL     1     -10.154  15.607  65.698  1.00  0.00    -0.395 A  
HETATM   14  C   UNL     1     -10.368  16.976  65.860  1.00  0.00    -0.310 A  
HETATM   15  C   UNL     1     -10.391  17.556  67.137  1.00  0.00    -0.330 A  
HETATM   16  C   UNL     1     -10.188  16.732  68.249  1.00  0.00    -0.295 A  
HETATM   17  C   UNL     1      -9.967  15.359  68.085  1.00  0.00    -0.221 A  
BRANCH  15  18
HETATM   18  C   UNL     1     -10.624  19.039  67.298  1.00  0.00    -0.554 C  
BRANCH  18  19
HETATM   19  C   UNL     1      -9.628  19.875  66.494  1.00  0.00    -0.423 C  
BRANCH  19  20
HETATM   20  O   UNL     1      -8.746  20.566  67.383  1.00  0.00    -0.342 OA 
BRANCH  20  21
HETATM   21  C   UNL     1      -7.406  20.098  67.222  1.00  0.00    -0.276 C  
BRANCH  21  22
HETATM   22  C   UNL     1      -7.355  19.147  66.070  1.00  0.00    -0.295 C  
HETATM   23  C   UNL     1      -6.016  18.726  65.517  1.00  0.00    -0.255 C  
HETATM   24  C   UNL     1      -6.869  17.732  66.253  1.00  0.00    -0.308 C  
ENDBRANCH  21  22
ENDBRANCH  20  21
ENDBRANCH  19  20
ENDBRANCH  18  19
ENDBRANCH  15  18
ENDBRANCH  11  12
ENDBRANCH  10  11
ENDBRANCH   7  10
ENDBRANCH   6   7
ENDBRANCH   4   6
ENDBRANCH   2   4
TORSDOF 11
ENDMDL
MODEL      200
REMARK 921   NORMALIZED FREE ENERGY PREDICTED BY IDOCK:   -3.60 KCAL/MOL
REMARK 922        TOTAL FREE ENERGY PREDICTED BY IDOCK:   -7.24 KCAL/MOL
REMARK 923 INTER-LIGAND FREE ENERGY PREDICTED BY IDOCK:   -6.54 KCAL/MOL
REMARK 924 INTRA-LIGAND FREE ENERGY PREDICTED BY IDOCK:   -0.70 KCAL/MOL
REMARK 927      BINDING AFFINITY PREDICTED BY RF-SCORE:    0.00 PKD
ROOT
HETATM    1  C   UNL     1     -10.664  14.887  67.291  1.00  0.00    -0.294 C  
HETATM    2  C   UNL     1     -10.511  15.896  66.150  1.00  0.00    -0.326 C  
HETATM    3  C   UNL     1      -9.118  16.528  66.210  1.00  0.00    -0.348 C  
ENDROOT
BRANCH   2   4
HETATM    4  N   UNL     1     -10.737  15.200  64.881  1.00  0.00    -0.519 NA 
HETATM    5  H   UNL     1     -10.022  14.490  64.725  1.00  0.00     0.000 HD 
BRANCH   4   6
HETATM    6  C   UNL     1     -12.083  14.619  64.767  1.00  0.00    -0.421 C  
BRANCH   6   7
HETATM    7  C   UNL     1     -11.994  13.165  64.271  1.00  0.00    -0.411 C  
HETATM    8  O   UNL     1     -12.033  13.142  62.834  1.00  0.00    -0.788 OA 
HETATM    9  H   UNL     1     -11.978  12.245  62.528  1.00  0.00     0.000 HD 
BRANCH   7  10
HETATM   10  C   UNL     1     -10.706  12.486  64.756  1.00  0.00    -0.302 C  
BRANCH  10  11
HETATM   11  O   UNL     1     -10.749  11.096  64.403  1.00  0.00    -0.350 OA 
BRANCH  11  12
HETATM   12  C   UNL     1     -10.143  10.253  65.295  1.00  0.00    -0.289 A  
HETATM   13  C   UNL     1     -10.564  10.050  66.605  1.00  0.00    -0.196 A  
HETATM   14  C   UNL     1      -9.873   9.167  67.436  1.00  0.00    -0.237 A  
HETATM   15  C   UNL     1      -8.763   8.451  66.962  1.00  0.00    -0.132 A  
HETATM   16  C   UNL     1      -8.358   8.646  65.638  1.00  0.00    -0.151 A  
HETATM   17  C   UNL     1      -9.048   9.537  64.808  1.00  0.00    -0.271 A  
BRANCH  15  18
HETATM   18  C   UNL     1      -8.025   7.498  67.871  1.00  0.00    -0.119 C  
BRANCH  18  19
HETATM   19  C   UNL     1      -8.970   6.697  68.767  1.00  0.00    -0.125 C  
BRANCH  19  20
HETATM   20  O   UNL     1      -8.562   6.812  70.132  1.00  0.00    -0.138 OA 
BRANCH  20  21
HETATM   21  C   UNL     1      -9.631   7.315  70.934  1.00  0.00    -0.170 C  
BRANCH  21  22
HETATM   22  C   UNL     1     -10.813   6.411  70.796  1.00  0.00    -0.321 C  
HETATM   23  C   UNL     1     -11.874   6.412  71.869  1.00  0.00    -0.380 C  
HETATM   24  C   UNL     1     -12.185   6.965  70.507  1.00  0.00    -0.253 C  
ENDBRANCH  21  22
ENDBRANCH  20  21
ENDBRANCH  19  20
ENDBRANCH  18  19
ENDBRANCH  15  18
ENDBRANCH  11  12
ENDBRANCH  10  11
ENDBRANCH   7  10
ENDBRANCH   6   7
ENDBRANCH   4   6
ENDBRANCH   2   4
TORSDOF 11
ENDMDL
MODEL      201
REMARK 921   NORMALIZED FREE ENERGY PREDICTED BY IDOCK:   -3.60 KCAL/MOL
REMARK 922        TOTAL FREE ENERGY PREDICTED BY IDOCK:   -7.24 KCAL/MOL
REMARK 923 INTER-LIGAND FREE ENERGY PREDICTED BY IDOCK:   -5.82 KCAL/MOL
REMARK 924 INTRA-LIGAND FREE ENERGY PREDICTED BY IDOCK:   -1.42 KCAL/MOL
REMARK 927      BINDING AFFINITY PREDICTED BY RF-SCORE:    0.00 PKD
ROOT
HETATM    1  C   UNL     1     -11.577  12.421  66.977  1.00  0.00    -0.434 C  
HETATM    2  C   UNL     1     -10.307  13.260  66.817  1.00  0.00    -0.257 C  
HETATM    3  C   UNL     1      -9.462  13.154  68.089  1.00  0.00    -0.222 C  
ENDROOT
BRANCH   2   4
HETATM    4  N   UNL     1      -9.578  12.780  65.641  1.00  0.00    -0.457 NA 
HETATM    5  H   UNL     1      -9.023  11.955  65.870  1.00  0.00     0.000 HD 
BRANCH   4   6
HETATM    6  C   UNL     1     -10.447  12.519  64.484  1.00  0.00    -0.341 C  
BRANCH   6   7
HETATM    7  C   UNL     1      -9.930  11.305  63.693  1.00  0.00    -0.359 C  
HETATM    8  O   UNL     1      -9.030  11.748  62.662  1.00  0.00    -0.580 OA 
HETATM    9  H   UNL     1      -8.711  10.997  62.174  1.00  0.00     0.000 HD 
BRANCH   7  10
HETATM   10  C   UNL     1      -9.205  10.309  64.608  1.00  0.00    -0.244 C  
BRANCH  10  11
HETATM   11  O   UNL     1     -10.160   9.710  65.496  1.00  0.00    -0.290 OA 
BRANCH  11  12
HETATM   12  C   UNL     1      -9.624   8.895  66.457  1.00  0.00    -0.232 A  
HETATM   13  C   UNL     1      -8.323   8.988  66.940  1.00  0.00    -0.119 A  
HETATM   14  C   UNL     1      -7.874   8.106  67.924  1.00  0.00    -0.122 A  
HETATM   15  C   UNL     1      -8.727   7.130  68.461  1.00  0.00    -0.126 A  
HETATM   16  C   UNL     1     -10.041   7.055  67.984  1.00  0.00    -0.199 A  
HETATM   17  C   UNL     1     -10.488   7.937  66.993  1.00  0.00    -0.419 A  
BRANCH  15  18
HETATM   18  C   UNL     1      -8.229   6.182  69.524  1.00  0.00    -0.116 C  
BRANCH  18  19
HETATM   19  C   UNL     1      -7.792   6.910  70.795  1.00  0.00    -0.097 C  
BRANCH  19  20
HETATM   20  O   UNL     1      -8.897   7.629  71.348  1.00  0.00    -0.129 OA 
BRANCH  20  21
HETATM   21  C   UNL     1      -9.327   7.025  72.568  1.00  0.00    -0.138 C  
BRANCH  21  22
HETATM   22  C   UNL     1     -10.821   7.014  72.609  1.00  0.00    -0.303 C  
HETATM   23  C   UNL     1     -11.588   6.427  71.451  1.00  0.00    -0.368 C  
HETATM   24  C   UNL     1     -11.584   5.726  72.780  1.00  0.00    -0.266 C  
ENDBRANCH  21  22
ENDBRANCH  20  21
ENDBRANCH  19  20
ENDBRANCH  18  19
ENDBRANCH  15  18
ENDBRANCH  11  12
ENDBRANCH  10  11
ENDBRANCH   7  10
ENDBRANCH   6   7
ENDBRANCH   4   6
ENDBRANCH   2   4
TORSDOF 11
ENDMDL
MODEL      202
REMARK 921   NORMALIZED FREE ENERGY PREDICTED BY IDOCK:   -3.55 KCAL/MOL
REMARK 922        TOTAL FREE ENERGY PREDICTED BY IDOCK:   -7.16 KCAL/MOL
REMARK 923 INTER-LIGAND FREE ENERGY PREDICTED BY IDOCK:   -6.66 KCAL/MOL
REMARK 924 INTRA-LIGAND FREE ENERGY PREDICTED BY IDOCK:   -0.50 KCAL/MOL
REMARK 927      BINDING AFFINITY PREDICTED BY RF-SCORE:    0.00 PKD
ROOT
HETATM    1  C   UNL     1      -7.797   1.748  71.830  1.00  0.00    -0.041 C  
HETATM    2  C   UNL     1      -8.249   2.806  72.840  1.00  0.00    -0.070 C  
HETATM    3  C   UNL     1      -7.032   3.343  73.596  1.00  0.00    -0.045 C  
ENDROOT
BRANCH   2   4
HETATM    4  N   UNL     1      -8.952   3.869  72.117  1.00  0.00    -0.111 NA 
HETATM    5  H   UNL     1      -9.778   3.501  71.645  1.00  0.00     0.000 HD 
BRANCH   4   6
HETATM    6  C   UNL     1      -9.302   5.017  72.966  1.00  0.00    -0.129 C  
BRANCH   6   7
HETATM    7  C   UNL     1     -10.578   5.698  72.439  1.00  0.00    -0.224 C  
HETATM    8  O   UNL     1     -11.657   5.483  73.365  1.00  0.00    -0.484 OA 
HETATM    9  H   UNL     1     -12.444   5.904  73.039  1.00  0.00     0.000 HD 
BRANCH   7  10
HETATM   10  C   UNL     1     -10.367   7.206  72.244  1.00  0.00    -0.201 C  
BRANCH  10  11
HETATM   11  O   UNL     1     -11.617   7.882  72.445  1.00  0.00    -0.332 OA 
BRANCH  11  12
HETATM   12  C   UNL     1     -11.776   9.030  71.717  1.00  0.00    -0.369 A  
HETATM   13  C   UNL     1     -12.791   9.961  71.916  1.00  0.00    -0.524 A  
HETATM   14  C   UNL     1     -12.864  11.102  71.117  1.00  0.00    -0.473 A  
HETATM   15  C   UNL     1     -11.908  11.346  70.120  1.00  0.00    -0.440 A  
HETATM   16  C   UNL     1     -10.879  10.416  69.939  1.00  0.00    -0.353 A  
HETATM   17  C   UNL     1     -10.810   9.268  70.737  1.00  0.00    -0.349 A  
BRANCH  15  18
HETATM   18  C   UNL     1     -11.999  12.585  69.262  1.00  0.00    -0.304 C  
BRANCH  18  19
HETATM   19  C   UNL     1     -11.936  12.265  67.768  1.00  0.00    -0.159 C  
BRANCH  19  20
HETATM   20  O   UNL     1     -12.045  13.471  67.008  1.00  0.00    -0.384 OA 
BRANCH  20  21
HETATM   21  C   UNL     1     -11.410  13.321  65.737  1.00  0.00    -0.307 C  
BRANCH  21  22
HETATM   22  C   UNL     1     -11.980  12.127  65.043  1.00  0.00    -0.343 C  
HETATM   23  C   UNL     1     -12.380  12.236  63.592  1.00  0.00    -0.664 C  
HETATM   24  C   UNL     1     -11.196  11.397  63.983  1.00  0.00    -0.350 C  
ENDBRANCH  21  22
ENDBRANCH  20  21
ENDBRANCH  19  20
ENDBRANCH  18  19
ENDBRANCH  15  18
ENDBRANCH  11  12
ENDBRANCH  10  11
ENDBRANCH   7  10
ENDBRANCH   6   7
ENDBRANCH   4   6
ENDBRANCH   2   4
TORSDOF 11
ENDMDL
MODEL      203
REMARK 921   NORMALIZED FREE ENERGY PREDICTED BY IDOCK:   -3.55 KCAL/MOL
REMARK 922        TOTAL FREE ENERGY PREDICTED BY IDOCK:   -7.16 KCAL/MOL
REMARK 923 INTER-LIGAND FREE ENERGY PREDICTED BY IDOCK:   -6.03 KCAL/MOL
REMARK 924 INTRA-LIGAND FREE ENERGY PREDICTED BY IDOCK:   -1.13 KCAL/MOL
REMARK 927      BINDING AFFINITY PREDICTED BY RF-SCORE:    0.00 PKD
ROOT
HETATM    1  C   UNL     1      -8.373  17.463  66.663  1.00  0.00    -0.295 C  
HETATM    2  C   UNL     1      -9.017  18.238  67.815  1.00  0.00    -0.267 C  
HETATM    3  C   UNL     1      -9.858  19.386  67.251  1.00  0.00    -0.445 C  
ENDROOT
BRANCH   2   4
HETATM    4  N   UNL     1      -9.827  17.309  68.606  1.00  0.00    -0.298 NA 
HETATM    5  H   UNL     1     -10.772  17.671  68.734  1.00  0.00     0.000 HD 
BRANCH   4   6
HETATM    6  C   UNL     1      -9.861  15.948  68.049  1.00  0.00    -0.218 C  
BRANCH   6   7
HETATM    7  C   UNL     1     -11.297  15.575  67.642  1.00  0.00    -0.260 C  
HETATM    8  O   UNL     1     -11.313  15.138  66.272  1.00  0.00    -0.317 OA 
HETATM    9  H   UNL     1     -12.200  14.908  66.021  1.00  0.00     0.000 HD 
BRANCH   7  10
HETATM   10  C   UNL     1     -11.862  14.464  68.537  1.00  0.00    -0.334 C  
BRANCH  10  11
HETATM   11  O   UNL     1     -11.924  13.244  67.784  1.00  0.00    -0.349 OA 
BRANCH  11  12
HETATM   12  C   UNL     1     -11.138  12.229  68.262  1.00  0.00    -0.240 A  
HETATM   13  C   UNL     1      -9.816  12.008  67.890  1.00  0.00    -0.196 A  
HETATM   14  C   UNL     1      -9.101  10.942  68.438  1.00  0.00    -0.164 A  
HETATM   15  C   UNL     1      -9.689  10.093  69.387  1.00  0.00    -0.247 A  
HETATM   16  C   UNL     1     -11.013  10.333  69.770  1.00  0.00    -0.338 A  
HETATM   17  C   UNL     1     -11.730  11.399  69.215  1.00  0.00    -0.404 A  
BRANCH  15  18
HETATM   18  C   UNL     1      -8.904   8.943  69.971  1.00  0.00    -0.165 C  
BRANCH  18  19
HETATM   19  C   UNL     1      -9.335   7.592  69.398  1.00  0.00    -0.152 C  
BRANCH  19  20
HETATM   20  O   UNL     1      -9.399   6.619  70.443  1.00  0.00    -0.158 OA 
BRANCH  20  21
HETATM   21  C   UNL     1      -9.597   7.253  71.707  1.00  0.00    -0.150 C  
BRANCH  21  22
HETATM   22  C   UNL     1     -10.939   6.872  72.242  1.00  0.00    -0.275 C  
HETATM   23  C   UNL     1     -11.944   7.951  72.560  1.00  0.00    -0.349 C  
HETATM   24  C   UNL     1     -12.182   7.024  71.401  1.00  0.00    -0.407 C  
ENDBRANCH  21  22
ENDBRANCH  20  21
ENDBRANCH  19  20
ENDBRANCH  18  19
ENDBRANCH  15  18
ENDBRANCH  11  12
ENDBRANCH  10  11
ENDBRANCH   7  10
ENDBRANCH   6   7
ENDBRANCH   4   6
ENDBRANCH   2   4
TORSDOF 11
ENDMDL
MODEL      204
REMARK 921   NORMALIZED FREE ENERGY PREDICTED BY IDOCK:   -3.55 KCAL/MOL
REMARK 922        TOTAL FREE ENERGY PREDICTED BY IDOCK:   -7.16 KCAL/MOL
REMARK 923 INTER-LIGAND FREE ENERGY PREDICTED BY IDOCK:   -5.93 KCAL/MOL
REMARK 924 INTRA-LIGAND FREE ENERGY PREDICTED BY IDOCK:   -1.22 KCAL/MOL
REMARK 927      BINDING AFFINITY PREDICTED BY RF-SCORE:    0.00 PKD
ROOT
HETATM    1  C   UNL     1      -8.302   7.247  71.811  1.00  0.00    -0.107 C  
HETATM    2  C   UNL     1      -8.616   6.632  73.177  1.00  0.00    -0.120 C  
HETATM    3  C   UNL     1      -7.822   7.365  74.261  1.00  0.00    -0.174 C  
ENDROOT
BRANCH   2   4
HETATM    4  N   UNL     1     -10.060   6.722  73.407  1.00  0.00    -0.213 NA 
HETATM    5  H   UNL     1     -10.353   7.695  73.489  1.00  0.00     0.000 HD 
BRANCH   4   6
HETATM    6  C   UNL     1     -10.856   6.020  72.389  1.00  0.00    -0.247 C  
BRANCH   6   7
HETATM    7  C   UNL     1     -12.212   6.723  72.198  1.00  0.00    -0.222 C  
HETATM    8  O   UNL     1     -12.247   7.926  72.985  1.00  0.00    -0.630 OA 
HETATM    9  H   UNL     1     -13.085   8.359  72.866  1.00  0.00     0.000 HD 
BRANCH   7  10
HETATM   10  C   UNL     1     -12.459   7.071  70.724  1.00  0.00    -0.203 C  
BRANCH  10  11
HETATM   11  O   UNL     1     -11.446   6.447  69.921  1.00  0.00    -0.404 OA 
BRANCH  11  12
HETATM   12  C   UNL     1     -10.901   7.247  68.953  1.00  0.00    -0.089 A  
HETATM   13  C   UNL     1     -10.569   6.825  67.670  1.00  0.00    -0.323 A  
HETATM   14  C   UNL     1     -10.016   7.724  66.756  1.00  0.00    -0.331 A  
HETATM   15  C   UNL     1      -9.810   9.068  67.102  1.00  0.00    -0.262 A  
HETATM   16  C   UNL     1     -10.164   9.489  68.388  1.00  0.00    -0.221 A  
HETATM   17  C   UNL     1     -10.713   8.585  69.306  1.00  0.00    -0.147 A  
BRANCH  15  18
HETATM   18  C   UNL     1      -9.211  10.030  66.104  1.00  0.00    -0.205 C  
BRANCH  18  19
HETATM   19  C   UNL     1     -10.147  10.306  64.928  1.00  0.00    -0.276 C  
BRANCH  19  20
HETATM   20  O   UNL     1     -10.345  11.715  64.785  1.00  0.00    -0.254 OA 
BRANCH  20  21
HETATM   21  C   UNL     1     -11.514  12.131  65.492  1.00  0.00    -0.343 C  
BRANCH  21  22
HETATM   22  C   UNL     1     -11.119  13.088  66.569  1.00  0.00    -0.315 C  
HETATM   23  C   UNL     1     -12.125  14.096  67.069  1.00  0.00    -0.449 C  
HETATM   24  C   UNL     1     -11.685  12.969  67.961  1.00  0.00    -0.397 C  
ENDBRANCH  21  22
ENDBRANCH  20  21
ENDBRANCH  19  20
ENDBRANCH  18  19
ENDBRANCH  15  18
ENDBRANCH  11  12
ENDBRANCH  10  11
ENDBRANCH   7  10
ENDBRANCH   6   7
ENDBRANCH   4   6
ENDBRANCH   2   4
TORSDOF 11
ENDMDL
MODEL      205
REMARK 921   NORMALIZED FREE ENERGY PREDICTED BY IDOCK:   -3.54 KCAL/MOL
REMARK 922        TOTAL FREE ENERGY PREDICTED BY IDOCK:   -7.14 KCAL/MOL
REMARK 923 INTER-LIGAND FREE ENERGY PREDICTED BY IDOCK:   -6.19 KCAL/MOL
REMARK 924 INTRA-LIGAND FREE ENERGY PREDICTED BY IDOCK:   -0.95 KCAL/MOL
REMARK 927      BINDING AFFINITY PREDICTED BY RF-SCORE:    0.00 PKD
ROOT
HETATM    1  C   UNL     1      -5.188  16.782  70.440  1.00  0.00    -0.218 C  
HETATM    2  C   UNL     1      -5.459  16.132  69.081  1.00  0.00    -0.112 C  
HETATM    3  C   UNL     1      -5.139  14.637  69.158  1.00  0.00    -0.086 C  
ENDROOT
BRANCH   2   4
HETATM    4  N   UNL     1      -6.859  16.369  68.723  1.00  0.00    -0.153 NA 
HETATM    5  H   UNL     1      -7.018  16.177  67.734  1.00  0.00     0.000 HD 
BRANCH   4   6
HETATM    6  C   UNL     1      -7.809  15.621  69.559  1.00  0.00    -0.180 C  
BRANCH   6   7
HETATM    7  C   UNL     1      -9.088  15.307  68.762  1.00  0.00    -0.200 C  
HETATM    8  O   UNL     1      -9.976  14.513  69.567  1.00  0.00    -0.415 OA 
HETATM    9  H   UNL     1     -10.765  14.320  69.074  1.00  0.00     0.000 HD 
BRANCH   7  10
HETATM   10  C   UNL     1      -9.805  16.593  68.327  1.00  0.00    -0.253 C  
BRANCH  10  11
HETATM   11  O   UNL     1     -11.177  16.286  68.037  1.00  0.00    -0.334 OA 
BRANCH  11  12
HETATM   12  C   UNL     1     -11.376  15.536  66.910  1.00  0.00    -0.079 A  
HETATM   13  C   UNL     1     -10.909  15.871  65.643  1.00  0.00    -0.292 A  
HETATM   14  C   UNL     1     -11.167  15.034  64.555  1.00  0.00    -0.276 A  
HETATM   15  C   UNL     1     -11.875  13.834  64.722  1.00  0.00    -0.413 A  
HETATM   16  C   UNL     1     -12.325  13.495  66.002  1.00  0.00    -0.486 A  
HETATM   17  C   UNL     1     -12.071  14.338  67.091  1.00  0.00    -0.412 A  
BRANCH  15  18
HETATM   18  C   UNL     1     -12.148  12.939  63.537  1.00  0.00    -0.633 C  
BRANCH  18  19
HETATM   19  C   UNL     1     -11.375  11.622  63.613  1.00  0.00    -0.394 C  
BRANCH  19  20
HETATM   20  O   UNL     1      -9.988  11.857  63.355  1.00  0.00    -0.409 OA 
BRANCH  20  21
HETATM   21  C   UNL     1      -9.192  10.802  63.897  1.00  0.00    -0.235 C  
BRANCH  21  22
HETATM   22  C   UNL     1      -9.535  10.623  65.341  1.00  0.00    -0.263 C  
HETATM   23  C   UNL     1      -8.436  10.321  66.330  1.00  0.00    -0.138 C  
HETATM   24  C   UNL     1      -9.133  11.652  66.367  1.00  0.00    -0.209 C  
ENDBRANCH  21  22
ENDBRANCH  20  21
ENDBRANCH  19  20
ENDBRANCH  18  19
ENDBRANCH  15  18
ENDBRANCH  11  12
ENDBRANCH  10  11
ENDBRANCH   7  10
ENDBRANCH   6   7
ENDBRANCH   4   6
ENDBRANCH   2   4
TORSDOF 11
ENDMDL
MODEL      206
REMARK 921   NORMALIZED FREE ENERGY PREDICTED BY IDOCK:   -3.54 KCAL/MOL
REMARK 922        TOTAL FREE ENERGY PREDICTED BY IDOCK:   -7.14 KCAL/MOL
REMARK 923 INTER-LIGAND FREE ENERGY PREDICTED BY IDOCK:   -5.80 KCAL/MOL
REMARK 924 INTRA-LIGAND FREE ENERGY PREDICTED BY IDOCK:   -1.33 KCAL/MOL
REMARK 927      BINDING AFFINITY PREDICTED BY RF-SCORE:    0.00 PKD
ROOT
HETATM    1  C   UNL     1      -9.244  14.574  66.705  1.00  0.00    -0.290 C  
HETATM    2  C   UNL     1     -10.361  15.589  66.452  1.00  0.00    -0.296 C  
HETATM    3  C   UNL     1     -10.920  15.391  65.041  1.00  0.00    -0.450 C  
ENDROOT
BRANCH   2   4
HETATM    4  N   UNL     1     -11.394  15.408  67.475  1.00  0.00    -0.308 NA 
HETATM    5  H   UNL     1     -11.413  14.443  67.803  1.00  0.00     0.000 HD 
BRANCH   4   6
HETATM    6  C   UNL     1     -11.263  16.341  68.604  1.00  0.00    -0.354 C  
BRANCH   6   7
HETATM    7  C   UNL     1     -11.724  15.665  69.908  1.00  0.00    -0.362 C  
HETATM    8  O   UNL     1     -13.161  15.662  69.968  1.00  0.00    -0.658 OA 
HETATM    9  H   UNL     1     -13.445  15.245  70.773  1.00  0.00     0.000 HD 
BRANCH   7  10
HETATM   10  C   UNL     1     -11.207  14.223  70.004  1.00  0.00    -0.099 C  
BRANCH  10  11
HETATM   11  O   UNL     1     -12.229  13.329  69.539  1.00  0.00    -0.269 OA 
BRANCH  11  12
HETATM   12  C   UNL     1     -11.769  12.177  68.960  1.00  0.00    -0.322 A  
HETATM   13  C   UNL     1     -11.621  11.982  67.591  1.00  0.00    -0.392 A  
HETATM   14  C   UNL     1     -11.142  10.765  67.102  1.00  0.00    -0.297 A  
HETATM   15  C   UNL     1     -10.779   9.730  67.977  1.00  0.00    -0.298 A  
HETATM   16  C   UNL     1     -10.912   9.941  69.354  1.00  0.00    -0.263 A  
HETATM   17  C   UNL     1     -11.399  11.159  69.842  1.00  0.00    -0.348 A  
BRANCH  15  18
HETATM   18  C   UNL     1     -10.262   8.419  67.436  1.00  0.00    -0.328 C  
BRANCH  18  19
HETATM   19  C   UNL     1      -9.011   8.597  66.576  1.00  0.00    -0.154 C  
BRANCH  19  20
HETATM   20  O   UNL     1      -8.105   9.500  67.215  1.00  0.00    -0.109 OA 
BRANCH  20  21
HETATM   21  C   UNL     1      -6.842   8.870  67.434  1.00  0.00    -0.070 C  
BRANCH  21  22
HETATM   22  C   UNL     1      -6.808   8.310  68.819  1.00  0.00    -0.062 C  
HETATM   23  C   UNL     1      -5.551   8.448  69.642  1.00  0.00    -0.030 C  
HETATM   24  C   UNL     1      -6.786   9.217  70.023  1.00  0.00    -0.047 C  
ENDBRANCH  21  22
ENDBRANCH  20  21
ENDBRANCH  19  20
ENDBRANCH  18  19
ENDBRANCH  15  18
ENDBRANCH  11  12
ENDBRANCH  10  11
ENDBRANCH   7  10
ENDBRANCH   6   7
ENDBRANCH   4   6
ENDBRANCH   2   4
TORSDOF 11
ENDMDL
MODEL      207
REMARK 921   NORMALIZED FREE ENERGY PREDICTED BY IDOCK:   -3.53 KCAL/MOL
REMARK 922        TOTAL FREE ENERGY PREDICTED BY IDOCK:   -7.12 KCAL/MOL
REMARK 923 INTER-LIGAND FREE ENERGY PREDICTED BY IDOCK:   -5.59 KCAL/MOL
REMARK 924 INTRA-LIGAND FREE ENERGY PREDICTED BY IDOCK:   -1.53 KCAL/MOL
REMARK 927      BINDING AFFINITY PREDICTED BY RF-SCORE:    0.00 PKD
ROOT
HETATM    1  C   UNL     1      -6.646  10.558  70.163  1.00  0.00    -0.149 C  
HETATM    2  C   UNL     1      -7.858  10.596  69.229  1.00  0.00    -0.138 C  
HETATM    3  C   UNL     1      -7.779  11.840  68.341  1.00  0.00    -0.131 C  
ENDROOT
BRANCH   2   4
HETATM    4  N   UNL     1      -7.873   9.364  68.436  1.00  0.00    -0.090 NA 
HETATM    5  H   UNL     1      -6.925   9.022  68.280  1.00  0.00     0.000 HD 
BRANCH   4   6
HETATM    6  C   UNL     1      -8.719   8.310  69.015  1.00  0.00    -0.143 C  
BRANCH   6   7
HETATM    7  C   UNL     1      -9.511   7.595  67.906  1.00  0.00    -0.143 C  
HETATM    8  O   UNL     1     -10.286   6.527  68.478  1.00  0.00    -0.162 OA 
HETATM    9  H   UNL     1     -10.775   6.086  67.792  1.00  0.00     0.000 HD 
BRANCH   7  10
HETATM   10  C   UNL     1     -10.446   8.565  67.171  1.00  0.00    -0.299 C  
BRANCH  10  11
HETATM   11  O   UNL     1     -10.769   9.655  68.047  1.00  0.00    -0.240 OA 
BRANCH  11  12
HETATM   12  C   UNL     1     -11.134  10.814  67.417  1.00  0.00    -0.296 A  
HETATM   13  C   UNL     1     -11.683  11.923  68.053  1.00  0.00    -0.382 A  
HETATM   14  C   UNL     1     -12.021  13.059  67.316  1.00  0.00    -0.379 A  
HETATM   15  C   UNL     1     -11.792  13.116  65.933  1.00  0.00    -0.453 A  
HETATM   16  C   UNL     1     -11.222  12.004  65.304  1.00  0.00    -0.374 A  
HETATM   17  C   UNL     1     -10.889  10.863  66.043  1.00  0.00    -0.155 A  
BRANCH  15  18
HETATM   18  C   UNL     1     -12.163  14.351  65.148  1.00  0.00    -0.393 C  
BRANCH  18  19
HETATM   19  C   UNL     1     -10.949  15.223  64.826  1.00  0.00    -0.386 C  
BRANCH  19  20
HETATM   20  O   UNL     1     -10.693  16.119  65.910  1.00  0.00    -0.314 OA 
BRANCH  20  21
HETATM   21  C   UNL     1      -9.411  15.860  66.482  1.00  0.00    -0.277 C  
BRANCH  21  22
HETATM   22  C   UNL     1      -9.464  16.139  67.949  1.00  0.00    -0.214 C  
HETATM   23  C   UNL     1      -8.451  15.493  68.862  1.00  0.00    -0.207 C  
HETATM   24  C   UNL     1      -8.403  16.975  68.620  1.00  0.00    -0.264 C  
ENDBRANCH  21  22
ENDBRANCH  20  21
ENDBRANCH  19  20
ENDBRANCH  18  19
ENDBRANCH  15  18
ENDBRANCH  11  12
ENDBRANCH  10  11
ENDBRANCH   7  10
ENDBRANCH   6   7
ENDBRANCH   4   6
ENDBRANCH   2   4
TORSDOF 11
ENDMDL
MODEL      208
REMARK 921   NORMALIZED FREE ENERGY PREDICTED BY IDOCK:   -3.52 KCAL/MOL
REMARK 922        TOTAL FREE ENERGY PREDICTED BY IDOCK:   -7.11 KCAL/MOL
REMARK 923 INTER-LIGAND FREE ENERGY PREDICTED BY IDOCK:   -6.51 KCAL/MOL
REMARK 924 INTRA-LIGAND FREE ENERGY PREDICTED BY IDOCK:   -0.60 KCAL/MOL
REMARK 927      BINDING AFFINITY PREDICTED BY RF-SCORE:    0.00 PKD
ROOT
HETATM    1  C   UNL     1      -9.016   9.471  69.540  1.00  0.00    -0.187 C  
HETATM    2  C   UNL     1     -10.019   8.324  69.684  1.00  0.00    -0.193 C  
HETATM    3  C   UNL     1      -9.625   7.180  68.747  1.00  0.00    -0.144 C  
ENDROOT
BRANCH   2   4
HETATM    4  N   UNL     1     -10.039   7.897  71.085  1.00  0.00    -0.184 NA 
HETATM    5  H   UNL     1      -9.123   8.024  71.515  1.00  0.00     0.000 HD 
BRANCH   4   6
HETATM    6  C   UNL     1     -11.085   8.556  71.880  1.00  0.00    -0.325 C  
BRANCH   6   7
HETATM    7  C   UNL     1     -12.195   9.091  70.958  1.00  0.00    -0.223 C  
HETATM    8  O   UNL     1     -13.446   8.468  71.297  1.00  0.00    -0.516 OA 
HETATM    9  H   UNL     1     -14.131   8.799  70.728  1.00  0.00     0.000 HD 
BRANCH   7  10
HETATM   10  C   UNL     1     -12.336  10.615  71.078  1.00  0.00    -0.403 C  
BRANCH  10  11
HETATM   11  O   UNL     1     -12.519  11.171  69.768  1.00  0.00    -0.263 OA 
BRANCH  11  12
HETATM   12  C   UNL     1     -12.018  12.435  69.602  1.00  0.00    -0.274 A  
HETATM   13  C   UNL     1     -11.161  12.819  68.575  1.00  0.00    -0.300 A  
HETATM   14  C   UNL     1     -10.706  14.136  68.496  1.00  0.00    -0.262 A  
HETATM   15  C   UNL     1     -11.121  15.099  69.428  1.00  0.00    -0.283 A  
HETATM   16  C   UNL     1     -11.998  14.709  70.447  1.00  0.00    -0.375 A  
HETATM   17  C   UNL     1     -12.448  13.387  70.529  1.00  0.00    -0.350 A  
BRANCH  15  18
HETATM   18  C   UNL     1     -10.622  16.520  69.332  1.00  0.00    -0.329 C  
BRANCH  18  19
HETATM   19  C   UNL     1     -10.234  16.906  67.903  1.00  0.00    -0.308 C  
BRANCH  19  20
HETATM   20  O   UNL     1      -9.696  18.230  67.886  1.00  0.00    -0.284 OA 
BRANCH  20  21
HETATM   21  C   UNL     1      -8.357  18.232  68.384  1.00  0.00    -0.307 C  
BRANCH  21  22
HETATM   22  C   UNL     1      -7.868  19.642  68.467  1.00  0.00    -0.358 C  
HETATM   23  C   UNL     1      -6.390  19.905  68.617  1.00  0.00    -0.317 C  
HETATM   24  C   UNL     1      -7.089  20.261  67.335  1.00  0.00    -0.322 C  
ENDBRANCH  21  22
ENDBRANCH  20  21
ENDBRANCH  19  20
ENDBRANCH  18  19
ENDBRANCH  15  18
ENDBRANCH  11  12
ENDBRANCH  10  11
ENDBRANCH   7  10
ENDBRANCH   6   7
ENDBRANCH   4   6
ENDBRANCH   2   4
TORSDOF 11
ENDMDL
MODEL      209
REMARK 921   NORMALIZED FREE ENERGY PREDICTED BY IDOCK:   -3.52 KCAL/MOL
REMARK 922        TOTAL FREE ENERGY PREDICTED BY IDOCK:   -7.10 KCAL/MOL
REMARK 923 INTER-LIGAND FREE ENERGY PREDICTED BY IDOCK:   -5.96 KCAL/MOL
REMARK 924 INTRA-LIGAND FREE ENERGY PREDICTED BY IDOCK:   -1.14 KCAL/MOL
REMARK 927      BINDING AFFINITY PREDICTED BY RF-SCORE:    0.00 PKD
ROOT
HETATM    1  C   UNL     1     -10.478  19.666  68.017  1.00  0.00    -0.537 C  
HETATM    2  C   UNL     1      -9.917  19.189  66.675  1.00  0.00    -0.376 C  
HETATM    3  C   UNL     1     -10.737  19.796  65.534  1.00  0.00    -0.329 C  
ENDROOT
BRANCH   2   4
HETATM    4  N   UNL     1      -8.507  19.578  66.596  1.00  0.00    -0.310 NA 
HETATM    5  H   UNL     1      -8.202  20.011  67.467  1.00  0.00     0.000 HD 
BRANCH   4   6
HETATM    6  C   UNL     1      -7.617  18.467  66.225  1.00  0.00    -0.256 C  
BRANCH   6   7
HETATM    7  C   UNL     1      -6.641  18.161  67.375  1.00  0.00    -0.185 C  
HETATM    8  O   UNL     1      -6.621  19.265  68.297  1.00  0.00    -0.237 OA 
HETATM    9  H   UNL     1      -6.018  19.076  69.007  1.00  0.00     0.000 HD 
BRANCH   7  10
HETATM   10  C   UNL     1      -7.040  16.881  68.122  1.00  0.00    -0.165 C  
BRANCH  10  11
HETATM   11  O   UNL     1      -8.304  17.092  68.768  1.00  0.00    -0.262 OA 
BRANCH  11  12
HETATM   12  C   UNL     1      -9.165  16.029  68.713  1.00  0.00    -0.224 A  
HETATM   13  C   UNL     1     -10.396  15.972  69.358  1.00  0.00    -0.272 A  
HETATM   14  C   UNL     1     -11.201  14.838  69.238  1.00  0.00    -0.303 A  
HETATM   15  C   UNL     1     -10.799  13.750  68.449  1.00  0.00    -0.268 A  
HETATM   16  C   UNL     1      -9.568  13.823  67.787  1.00  0.00    -0.219 A  
HETATM   17  C   UNL     1      -8.759  14.958  67.914  1.00  0.00    -0.164 A  
BRANCH  15  18
HETATM   18  C   UNL     1     -11.678  12.529  68.327  1.00  0.00    -0.390 C  
BRANCH  18  19
HETATM   19  C   UNL     1     -11.466  11.788  67.007  1.00  0.00    -0.298 C  
BRANCH  19  20
HETATM   20  O   UNL     1     -10.928  10.488  67.260  1.00  0.00    -0.291 OA 
BRANCH  20  21
HETATM   21  C   UNL     1     -11.109  10.130  68.631  1.00  0.00    -0.205 C  
BRANCH  21  22
HETATM   22  C   UNL     1     -10.154   9.036  68.982  1.00  0.00    -0.204 C  
HETATM   23  C   UNL     1     -10.598   7.936  69.914  1.00  0.00    -0.242 C  
HETATM   24  C   UNL     1     -10.352   7.635  68.462  1.00  0.00    -0.225 C  
ENDBRANCH  21  22
ENDBRANCH  20  21
ENDBRANCH  19  20
ENDBRANCH  18  19
ENDBRANCH  15  18
ENDBRANCH  11  12
ENDBRANCH  10  11
ENDBRANCH   7  10
ENDBRANCH   6   7
ENDBRANCH   4   6
ENDBRANCH   2   4
TORSDOF 11
ENDMDL
MODEL      210
REMARK 921   NORMALIZED FREE ENERGY PREDICTED BY IDOCK:   -3.52 KCAL/MOL
REMARK 922        TOTAL FREE ENERGY PREDICTED BY IDOCK:   -7.10 KCAL/MOL
REMARK 923 INTER-LIGAND FREE ENERGY PREDICTED BY IDOCK:   -5.81 KCAL/MOL
REMARK 924 INTRA-LIGAND FREE ENERGY PREDICTED BY IDOCK:   -1.29 KCAL/MOL
REMARK 927      BINDING AFFINITY PREDICTED BY RF-SCORE:    0.00 PKD
ROOT
HETATM    1  C   UNL     1      -9.894   9.156  66.110  1.00  0.00    -0.363 C  
HETATM    2  C   UNL     1      -9.410  10.469  65.489  1.00  0.00    -0.202 C  
HETATM    3  C   UNL     1     -10.175  10.732  64.190  1.00  0.00    -0.412 C  
ENDROOT
BRANCH   2   4
HETATM    4  N   UNL     1      -9.608  11.545  66.462  1.00  0.00    -0.200 NA 
HETATM    5  H   UNL     1     -10.494  12.023  66.299  1.00  0.00     0.000 HD 
BRANCH   4   6
HETATM    6  C   UNL     1      -9.509  11.092  67.858  1.00  0.00    -0.175 C  
BRANCH   6   7
HETATM    7  C   UNL     1      -8.110  11.404  68.420  1.00  0.00    -0.145 C  
HETATM    8  O   UNL     1      -7.287  10.227  68.347  1.00  0.00    -0.081 OA 
HETATM    9  H   UNL     1      -6.424  10.420  68.693  1.00  0.00     0.000 HD 
BRANCH   7  10
HETATM   10  C   UNL     1      -7.437  12.545  67.644  1.00  0.00    -0.139 C  
BRANCH  10  11
HETATM   11  O   UNL     1      -7.477  13.738  68.440  1.00  0.00    -0.103 OA 
BRANCH  11  12
HETATM   12  C   UNL     1      -7.363  14.907  67.736  1.00  0.00    -0.166 A  
HETATM   13  C   UNL     1      -8.341  15.423  66.892  1.00  0.00    -0.290 A  
HETATM   14  C   UNL     1      -8.125  16.626  66.219  1.00  0.00    -0.361 A  
HETATM   15  C   UNL     1      -6.935  17.347  66.397  1.00  0.00    -0.314 A  
HETATM   16  C   UNL     1      -5.964  16.832  67.262  1.00  0.00    -0.200 A  
HETATM   17  C   UNL     1      -6.180  15.622  67.932  1.00  0.00    -0.163 A  
BRANCH  15  18
HETATM   18  C   UNL     1      -6.714  18.647  65.662  1.00  0.00    -0.309 C  
BRANCH  18  19
HETATM   19  C   UNL     1      -6.376  19.800  66.608  1.00  0.00    -0.182 C  
BRANCH  19  20
HETATM   20  O   UNL     1      -7.476  20.047  67.487  1.00  0.00    -0.266 OA 
BRANCH  20  21
HETATM   21  C   UNL     1      -8.601  20.537  66.755  1.00  0.00    -0.117 C  
BRANCH  21  22
HETATM   22  C   UNL     1      -9.846  20.269  67.536  1.00  0.00    -0.576 C  
HETATM   23  C   UNL     1     -10.661  19.037  67.230  1.00  0.00    -0.554 C  
HETATM   24  C   UNL     1      -9.912  19.138  68.530  1.00  0.00    -0.496 C  
ENDBRANCH  21  22
ENDBRANCH  20  21
ENDBRANCH  19  20
ENDBRANCH  18  19
ENDBRANCH  15  18
ENDBRANCH  11  12
ENDBRANCH  10  11
ENDBRANCH   7  10
ENDBRANCH   6   7
ENDBRANCH   4   6
ENDBRANCH   2   4
TORSDOF 11
ENDMDL
MODEL      211
REMARK 921   NORMALIZED FREE ENERGY PREDICTED BY IDOCK:   -3.51 KCAL/MOL
REMARK 922        TOTAL FREE ENERGY PREDICTED BY IDOCK:   -7.10 KCAL/MOL
REMARK 923 INTER-LIGAND FREE ENERGY PREDICTED BY IDOCK:   -6.14 KCAL/MOL
REMARK 924 INTRA-LIGAND FREE ENERGY PREDICTED BY IDOCK:   -0.95 KCAL/MOL
REMARK 927      BINDING AFFINITY PREDICTED BY RF-SCORE:    0.00 PKD
ROOT
HETATM    1  C   UNL     1     -12.247  14.459  71.116  1.00  0.00    -0.420 C  
HETATM    2  C   UNL     1     -11.701  15.153  69.866  1.00  0.00    -0.315 C  
HETATM    3  C   UNL     1     -11.004  16.455  70.268  1.00  0.00    -0.262 C  
ENDROOT
BRANCH   2   4
HETATM    4  N   UNL     1     -10.783  14.234  69.188  1.00  0.00    -0.311 NA 
HETATM    5  H   UNL     1     -10.955  13.272  69.478  1.00  0.00     0.000 HD 
BRANCH   4   6
HETATM    6  C   UNL     1     -10.819  14.352  67.722  1.00  0.00    -0.258 C  
BRANCH   6   7
HETATM    7  C   UNL     1     -11.081  12.976  67.085  1.00  0.00    -0.273 C  
HETATM    8  O   UNL     1      -9.830  12.361  66.733  1.00  0.00    -0.213 OA 
HETATM    9  H   UNL     1      -9.992  11.512  66.339  1.00  0.00     0.000 HD 
BRANCH   7  10
HETATM   10  C   UNL     1     -11.850  12.054  68.040  1.00  0.00    -0.269 C  
BRANCH  10  11
HETATM   11  O   UNL     1     -11.224  10.762  68.048  1.00  0.00    -0.269 OA 
BRANCH  11  12
HETATM   12  C   UNL     1     -11.235  10.122  69.258  1.00  0.00    -0.196 A  
HETATM   13  C   UNL     1     -12.017  10.496  70.346  1.00  0.00    -0.425 A  
HETATM   14  C   UNL     1     -11.953   9.774  71.539  1.00  0.00    -0.488 A  
HETATM   15  C   UNL     1     -11.124   8.648  71.656  1.00  0.00    -0.375 A  
HETATM   16  C   UNL     1     -10.355   8.267  70.551  1.00  0.00    -0.217 A  
HETATM   17  C   UNL     1     -10.415   8.996  69.358  1.00  0.00    -0.229 A  
BRANCH  15  18
HETATM   18  C   UNL     1     -11.064   7.876  72.951  1.00  0.00    -0.442 C  
BRANCH  18  19
HETATM   19  C   UNL     1     -10.287   6.566  72.813  1.00  0.00    -0.202 C  
BRANCH  19  20
HETATM   20  O   UNL     1     -11.066   5.483  73.326  1.00  0.00    -0.283 OA 
BRANCH  20  21
HETATM   21  C   UNL     1     -10.711   4.260  72.677  1.00  0.00    -0.093 C  
BRANCH  21  22
HETATM   22  C   UNL     1      -9.756   4.555  71.566  1.00  0.00    -0.243 C  
HETATM   23  C   UNL     1      -8.546   3.675  71.377  1.00  0.00    -0.107 C  
HETATM   24  C   UNL     1      -9.658   3.648  70.366  1.00  0.00    -0.254 C  
ENDBRANCH  21  22
ENDBRANCH  20  21
ENDBRANCH  19  20
ENDBRANCH  18  19
ENDBRANCH  15  18
ENDBRANCH  11  12
ENDBRANCH  10  11
ENDBRANCH   7  10
ENDBRANCH   6   7
ENDBRANCH   4   6
ENDBRANCH   2   4
TORSDOF 11
ENDMDL
MODEL      212
REMARK 921   NORMALIZED FREE ENERGY PREDICTED BY IDOCK:   -3.51 KCAL/MOL
REMARK 922        TOTAL FREE ENERGY PREDICTED BY IDOCK:   -7.09 KCAL/MOL
REMARK 923 INTER-LIGAND FREE ENERGY PREDICTED BY IDOCK:   -6.36 KCAL/MOL
REMARK 924 INTRA-LIGAND FREE ENERGY PREDICTED BY IDOCK:   -0.73 KCAL/MOL
REMARK 927      BINDING AFFINITY PREDICTED BY RF-SCORE:    0.00 PKD
ROOT
HETATM    1  C   UNL     1      -9.973  10.161  65.203  1.00  0.00    -0.379 C  
HETATM    2  C   UNL     1      -9.980  11.690  65.135  1.00  0.00    -0.259 C  
HETATM    3  C   UNL     1     -10.320  12.135  63.710  1.00  0.00    -0.465 C  
ENDROOT
BRANCH   2   4
HETATM    4  N   UNL     1     -10.952  12.195  66.107  1.00  0.00    -0.285 NA 
HETATM    5  H   UNL     1     -11.834  12.425  65.651  1.00  0.00     0.000 HD 
BRANCH   4   6
HETATM    6  C   UNL     1     -11.171  11.281  67.239  1.00  0.00    -0.296 C  
BRANCH   6   7
HETATM    7  C   UNL     1     -11.846  12.028  68.403  1.00  0.00    -0.300 C  
HETATM    8  O   UNL     1     -11.266  11.605  69.648  1.00  0.00    -0.378 OA 
HETATM    9  H   UNL     1     -11.683  12.067  70.367  1.00  0.00     0.000 HD 
BRANCH   7  10
HETATM   10  C   UNL     1     -11.689  13.548  68.258  1.00  0.00    -0.359 C  
BRANCH  10  11
HETATM   11  O   UNL     1     -10.445  13.947  68.851  1.00  0.00    -0.237 OA 
BRANCH  11  12
HETATM   12  C   UNL     1      -9.734  14.872  68.135  1.00  0.00    -0.214 A  
HETATM   13  C   UNL     1     -10.297  15.900  67.386  1.00  0.00    -0.288 A  
HETATM   14  C   UNL     1      -9.480  16.792  66.691  1.00  0.00    -0.275 A  
HETATM   15  C   UNL     1      -8.083  16.688  66.753  1.00  0.00    -0.281 A  
HETATM   16  C   UNL     1      -7.523  15.664  67.524  1.00  0.00    -0.205 A  
HETATM   17  C   UNL     1      -8.343  14.766  68.216  1.00  0.00    -0.148 A  
BRANCH  15  18
HETATM   18  C   UNL     1      -7.210  17.660  65.996  1.00  0.00    -0.316 C  
BRANCH  18  19
HETATM   19  C   UNL     1      -6.021  18.144  66.826  1.00  0.00    -0.150 C  
BRANCH  19  20
HETATM   20  O   UNL     1      -6.375  19.335  67.534  1.00  0.00    -0.201 OA 
BRANCH  20  21
HETATM   21  C   UNL     1      -6.976  19.011  68.789  1.00  0.00    -0.310 C  
BRANCH  21  22
HETATM   22  C   UNL     1      -6.557  20.021  69.807  1.00  0.00    -0.333 C  
HETATM   23  C   UNL     1      -5.307  19.781  70.617  1.00  0.00    -0.267 C  
HETATM   24  C   UNL     1      -5.337  20.880  69.593  1.00  0.00    -0.410 C  
ENDBRANCH  21  22
ENDBRANCH  20  21
ENDBRANCH  19  20
ENDBRANCH  18  19
ENDBRANCH  15  18
ENDBRANCH  11  12
ENDBRANCH  10  11
ENDBRANCH   7  10
ENDBRANCH   6   7
ENDBRANCH   4   6
ENDBRANCH   2   4
TORSDOF 11
ENDMDL
MODEL      213
REMARK 921   NORMALIZED FREE ENERGY PREDICTED BY IDOCK:   -3.51 KCAL/MOL
REMARK 922        TOTAL FREE ENERGY PREDICTED BY IDOCK:   -7.08 KCAL/MOL
REMARK 923 INTER-LIGAND FREE ENERGY PREDICTED BY IDOCK:   -6.23 KCAL/MOL
REMARK 924 INTRA-LIGAND FREE ENERGY PREDICTED BY IDOCK:   -0.85 KCAL/MOL
REMARK 927      BINDING AFFINITY PREDICTED BY RF-SCORE:    0.00 PKD
ROOT
HETATM    1  C   UNL     1      -7.933  15.703  69.306  1.00  0.00    -0.237 C  
HETATM    2  C   UNL     1      -8.726  16.853  68.680  1.00  0.00    -0.267 C  
HETATM    3  C   UNL     1      -8.085  17.250  67.348  1.00  0.00    -0.205 C  
ENDROOT
BRANCH   2   4
HETATM    4  N   UNL     1     -10.115  16.418  68.505  1.00  0.00    -0.238 NA 
HETATM    5  H   UNL     1     -10.272  16.084  67.555  1.00  0.00     0.000 HD 
BRANCH   4   6
HETATM    6  C   UNL     1     -10.538  15.412  69.491  1.00  0.00    -0.268 C  
BRANCH   6   7
HETATM    7  C   UNL     1     -11.609  14.490  68.882  1.00  0.00    -0.309 C  
HETATM    8  O   UNL     1     -12.868  14.711  69.541  1.00  0.00    -0.548 OA 
HETATM    9  H   UNL     1     -13.528  14.141  69.164  1.00  0.00     0.000 HD 
BRANCH   7  10
HETATM   10  C   UNL     1     -11.771  14.739  67.376  1.00  0.00    -0.350 C  
BRANCH  10  11
HETATM   11  O   UNL     1     -12.446  13.617  66.788  1.00  0.00    -0.341 OA 
BRANCH  11  12
HETATM   12  C   UNL     1     -11.708  12.913  65.874  1.00  0.00    -0.399 A  
HETATM   13  C   UNL     1     -10.430  12.414  66.102  1.00  0.00    -0.274 A  
HETATM   14  C   UNL     1      -9.763  11.707  65.101  1.00  0.00    -0.245 A  
HETATM   15  C   UNL     1     -10.372  11.466  63.860  1.00  0.00    -0.434 A  
HETATM   16  C   UNL     1     -11.666  11.955  63.645  1.00  0.00    -0.572 A  
HETATM   17  C   UNL     1     -12.332  12.668  64.648  1.00  0.00    -0.546 A  
BRANCH  15  18
HETATM   18  C   UNL     1      -9.639  10.701  62.786  1.00  0.00    -0.333 C  
BRANCH  18  19
HETATM   19  C   UNL     1      -8.246  10.258  63.233  1.00  0.00    -0.164 C  
BRANCH  19  20
HETATM   20  O   UNL     1      -8.211   8.837  63.380  1.00  0.00    -0.167 OA 
BRANCH  20  21
HETATM   21  C   UNL     1      -8.292   8.474  64.759  1.00  0.00    -0.153 C  
BRANCH  21  22
HETATM   22  C   UNL     1      -7.173   9.127  65.504  1.00  0.00    -0.082 C  
HETATM   23  C   UNL     1      -6.584   8.438  66.709  1.00  0.00    -0.057 C  
HETATM   24  C   UNL     1      -5.774   8.569  65.450  1.00  0.00    -0.044 C  
ENDBRANCH  21  22
ENDBRANCH  20  21
ENDBRANCH  19  20
ENDBRANCH  18  19
ENDBRANCH  15  18
ENDBRANCH  11  12
ENDBRANCH  10  11
ENDBRANCH   7  10
ENDBRANCH   6   7
ENDBRANCH   4   6
ENDBRANCH   2   4
TORSDOF 11
ENDMDL
MODEL      214
REMARK 921   NORMALIZED FREE ENERGY PREDICTED BY IDOCK:   -3.51 KCAL/MOL
REMARK 922        TOTAL FREE ENERGY PREDICTED BY IDOCK:   -7.08 KCAL/MOL
REMARK 923 INTER-LIGAND FREE ENERGY PREDICTED BY IDOCK:   -5.62 KCAL/MOL
REMARK 924 INTRA-LIGAND FREE ENERGY PREDICTED BY IDOCK:   -1.46 KCAL/MOL
REMARK 927      BINDING AFFINITY PREDICTED BY RF-SCORE:    0.00 PKD
ROOT
HETATM    1  C   UNL     1     -11.740  15.616  64.128  1.00  0.00    -0.081 C  
HETATM    2  C   UNL     1     -11.568  14.651  65.304  1.00  0.00    -0.354 C  
HETATM    3  C   UNL     1     -12.298  13.340  64.999  1.00  0.00    -0.499 C  
ENDROOT
BRANCH   2   4
HETATM    4  N   UNL     1     -10.136  14.436  65.524  1.00  0.00    -0.369 NA 
HETATM    5  H   UNL     1      -9.583  15.077  64.955  1.00  0.00     0.000 HD 
BRANCH   4   6
HETATM    6  C   UNL     1      -9.745  14.522  66.939  1.00  0.00    -0.252 C  
BRANCH   6   7
HETATM    7  C   UNL     1      -8.676  13.463  67.260  1.00  0.00    -0.218 C  
HETATM    8  O   UNL     1      -8.583  13.288  68.685  1.00  0.00    -0.330 OA 
HETATM    9  H   UNL     1      -7.922  12.634  68.882  1.00  0.00     0.000 HD 
BRANCH   7  10
HETATM   10  C   UNL     1      -9.007  12.116  66.603  1.00  0.00    -0.198 C  
BRANCH  10  11
HETATM   11  O   UNL     1      -8.004  11.158  66.970  1.00  0.00    -0.132 OA 
BRANCH  11  12
HETATM   12  C   UNL     1      -8.470   9.890  67.189  1.00  0.00    -0.121 A  
HETATM   13  C   UNL     1      -7.849   8.947  68.002  1.00  0.00    -0.102 A  
HETATM   14  C   UNL     1      -8.408   7.677  68.159  1.00  0.00    -0.124 A  
HETATM   15  C   UNL     1      -9.612   7.337  67.525  1.00  0.00    -0.171 A  
HETATM   16  C   UNL     1     -10.241   8.297  66.725  1.00  0.00    -0.375 A  
HETATM   17  C   UNL     1      -9.676   9.568  66.563  1.00  0.00    -0.284 A  
BRANCH  15  18
HETATM   18  C   UNL     1     -10.206   5.961  67.703  1.00  0.00    -0.229 C  
BRANCH  18  19
HETATM   19  C   UNL     1     -10.688   5.715  69.133  1.00  0.00    -0.255 C  
BRANCH  19  20
HETATM   20  O   UNL     1     -11.422   6.849  69.600  1.00  0.00    -0.232 OA 
BRANCH  20  21
HETATM   21  C   UNL     1     -11.058   7.161  70.946  1.00  0.00    -0.263 C  
BRANCH  21  22
HETATM   22  C   UNL     1     -10.642   8.594  71.020  1.00  0.00    -0.278 C  
HETATM   23  C   UNL     1     -11.278   9.599  70.091  1.00  0.00    -0.302 C  
HETATM   24  C   UNL     1     -11.576   9.647  71.564  1.00  0.00    -0.451 C  
ENDBRANCH  21  22
ENDBRANCH  20  21
ENDBRANCH  19  20
ENDBRANCH  18  19
ENDBRANCH  15  18
ENDBRANCH  11  12
ENDBRANCH  10  11
ENDBRANCH   7  10
ENDBRANCH   6   7
ENDBRANCH   4   6
ENDBRANCH   2   4
TORSDOF 11
ENDMDL
MODEL      215
REMARK 921   NORMALIZED FREE ENERGY PREDICTED BY IDOCK:   -3.50 KCAL/MOL
REMARK 922        TOTAL FREE ENERGY PREDICTED BY IDOCK:   -7.08 KCAL/MOL
REMARK 923 INTER-LIGAND FREE ENERGY PREDICTED BY IDOCK:   -6.31 KCAL/MOL
REMARK 924 INTRA-LIGAND FREE ENERGY PREDICTED BY IDOCK:   -0.77 KCAL/MOL
REMARK 927      BINDING AFFINITY PREDICTED BY RF-SCORE:    0.00 PKD
ROOT
HETATM    1  C   UNL     1      -9.631   6.225  71.345  1.00  0.00    -0.170 C  
HETATM    2  C   UNL     1      -9.546   7.426  72.289  1.00  0.00    -0.151 C  
HETATM    3  C   UNL     1      -8.291   7.306  73.157  1.00  0.00    -0.140 C  
ENDROOT
BRANCH   2   4
HETATM    4  N   UNL     1      -9.534   8.650  71.484  1.00  0.00    -0.224 NA 
HETATM    5  H   UNL     1      -9.298   8.443  70.514  1.00  0.00     0.000 HD 
BRANCH   4   6
HETATM    6  C   UNL     1     -10.788   9.413  71.566  1.00  0.00    -0.328 C  
BRANCH   6   7
HETATM    7  C   UNL     1     -11.723   9.024  70.407  1.00  0.00    -0.062 C  
HETATM    8  O   UNL     1     -13.061   9.464  70.698  1.00  0.00    -0.532 OA 
HETATM    9  H   UNL     1     -13.638   9.224  69.981  1.00  0.00     0.000 HD 
BRANCH   7  10
HETATM   10  C   UNL     1     -11.260   9.645  69.082  1.00  0.00    -0.019 C  
BRANCH  10  11
HETATM   11  O   UNL     1     -10.119  10.480  69.332  1.00  0.00    -0.222 OA 
BRANCH  11  12
HETATM   12  C   UNL     1     -10.154  11.704  68.719  1.00  0.00    -0.156 A  
HETATM   13  C   UNL     1      -9.033  12.413  68.300  1.00  0.00    -0.178 A  
HETATM   14  C   UNL     1      -9.178  13.657  67.684  1.00  0.00    -0.213 A  
HETATM   15  C   UNL     1     -10.450  14.202  67.452  1.00  0.00    -0.271 A  
HETATM   16  C   UNL     1     -11.573  13.474  67.858  1.00  0.00    -0.377 A  
HETATM   17  C   UNL     1     -11.426  12.230  68.482  1.00  0.00    -0.349 A  
BRANCH  15  18
HETATM   18  C   UNL     1     -10.593  15.548  66.784  1.00  0.00    -0.307 C  
BRANCH  18  19
HETATM   19  C   UNL     1      -9.859  16.655  67.542  1.00  0.00    -0.253 C  
BRANCH  19  20
HETATM   20  O   UNL     1     -10.777  17.691  67.898  1.00  0.00    -0.394 OA 
BRANCH  20  21
HETATM   21  C   UNL     1     -10.093  18.767  68.542  1.00  0.00    -0.392 C  
BRANCH  21  22
HETATM   22  C   UNL     1     -10.143  19.974  67.663  1.00  0.00    -0.562 C  
HETATM   23  C   UNL     1      -8.940  20.329  66.824  1.00  0.00    -0.394 C  
HETATM   24  C   UNL     1     -10.197  19.840  66.162  1.00  0.00    -0.618 C  
ENDBRANCH  21  22
ENDBRANCH  20  21
ENDBRANCH  19  20
ENDBRANCH  18  19
ENDBRANCH  15  18
ENDBRANCH  11  12
ENDBRANCH  10  11
ENDBRANCH   7  10
ENDBRANCH   6   7
ENDBRANCH   4   6
ENDBRANCH   2   4
TORSDOF 11
ENDMDL
MODEL      216
REMARK 921   NORMALIZED FREE ENERGY PREDICTED BY IDOCK:   -3.50 KCAL/MOL
REMARK 922        TOTAL FREE ENERGY PREDICTED BY IDOCK:   -7.08 KCAL/MOL
REMARK 923 INTER-LIGAND FREE ENERGY PREDICTED BY IDOCK:   -6.09 KCAL/MOL
REMARK 924 INTRA-LIGAND FREE ENERGY PREDICTED BY IDOCK:   -0.98 KCAL/MOL
REMARK 927      BINDING AFFINITY PREDICTED BY RF-SCORE:    0.00 PKD
ROOT
HETATM    1  C   UNL     1     -11.286  12.855  65.775  1.00  0.00    -0.349 C  
HETATM    2  C   UNL     1     -11.554  11.990  64.541  1.00  0.00    -0.317 C  
HETATM    3  C   UNL     1     -11.960  12.885  63.369  1.00  0.00    -0.612 C  
ENDROOT
BRANCH   2   4
HETATM    4  N   UNL     1     -10.344  11.219  64.242  1.00  0.00    -0.313 NA 
HETATM    5  H   UNL     1      -9.531  11.832  64.182  1.00  0.00     0.000 HD 
BRANCH   4   6
HETATM    6  C   UNL     1     -10.103  10.123  65.192  1.00  0.00    -0.259 C  
BRANCH   6   7
HETATM    7  C   UNL     1      -8.596   9.979  65.467  1.00  0.00    -0.151 C  
HETATM    8  O   UNL     1      -8.062  11.241  65.902  1.00  0.00    -0.336 OA 
HETATM    9  H   UNL     1      -7.131  11.152  66.072  1.00  0.00     0.000 HD 
BRANCH   7  10
HETATM   10  C   UNL     1      -8.321   8.914  66.537  1.00  0.00    -0.115 C  
BRANCH  10  11
HETATM   11  O   UNL     1      -9.414   7.984  66.561  1.00  0.00    -0.190 OA 
BRANCH  11  12
HETATM   12  C   UNL     1      -9.944   7.748  67.801  1.00  0.00    -0.174 A  
HETATM   13  C   UNL     1      -9.901   8.643  68.865  1.00  0.00    -0.184 A  
HETATM   14  C   UNL     1     -10.473   8.305  70.092  1.00  0.00    -0.225 A  
HETATM   15  C   UNL     1     -11.122   7.073  70.269  1.00  0.00    -0.323 A  
HETATM   16  C   UNL     1     -11.178   6.186  69.189  1.00  0.00    -0.409 A  
HETATM   17  C   UNL     1     -10.598   6.525  67.961  1.00  0.00    -0.310 A  
BRANCH  15  18
HETATM   18  C   UNL     1     -11.736   6.719  71.601  1.00  0.00    -0.357 C  
BRANCH  18  19
HETATM   19  C   UNL     1     -11.079   5.495  72.239  1.00  0.00    -0.237 C  
BRANCH  19  20
HETATM   20  O   UNL     1      -9.930   5.896  72.990  1.00  0.00    -0.169 OA 
BRANCH  20  21
HETATM   21  C   UNL     1     -10.242   7.012  73.824  1.00  0.00    -0.363 C  
BRANCH  21  22
HETATM   22  C   UNL     1      -9.192   8.061  73.651  1.00  0.00    -0.269 C  
HETATM   23  C   UNL     1      -7.983   8.054  74.553  1.00  0.00    -0.291 C  
HETATM   24  C   UNL     1      -7.834   7.716  73.097  1.00  0.00    -0.142 C  
ENDBRANCH  21  22
ENDBRANCH  20  21
ENDBRANCH  19  20
ENDBRANCH  18  19
ENDBRANCH  15  18
ENDBRANCH  11  12
ENDBRANCH  10  11
ENDBRANCH   7  10
ENDBRANCH   6   7
ENDBRANCH   4   6
ENDBRANCH   2   4
TORSDOF 11
ENDMDL
MODEL      217
REMARK 921   NORMALIZED FREE ENERGY PREDICTED BY IDOCK:   -3.49 KCAL/MOL
REMARK 922        TOTAL FREE ENERGY PREDICTED BY IDOCK:   -7.06 KCAL/MOL
REMARK 923 INTER-LIGAND FREE ENERGY PREDICTED BY IDOCK:   -6.17 KCAL/MOL
REMARK 924 INTRA-LIGAND FREE ENERGY PREDICTED BY IDOCK:   -0.89 KCAL/MOL
REMARK 927      BINDING AFFINITY PREDICTED BY RF-SCORE:    0.00 PKD
ROOT
HETATM    1  C   UNL     1      -9.421   2.662  72.404  1.00  0.00    -0.168 C  
HETATM    2  C   UNL     1     -10.323   3.731  73.025  1.00  0.00    -0.167 C  
HETATM    3  C   UNL     1      -9.591   4.402  74.190  1.00  0.00    -0.130 C  
ENDROOT
BRANCH   2   4
HETATM    4  N   UNL     1     -10.685   4.696  71.984  1.00  0.00    -0.073 NA 
HETATM    5  H   UNL     1     -11.216   4.243  71.240  1.00  0.00     0.000 HD 
BRANCH   4   6
HETATM    6  C   UNL     1     -11.408   5.867  72.503  1.00  0.00    -0.304 C  
BRANCH   6   7
HETATM    7  C   UNL     1     -11.838   6.783  71.343  1.00  0.00    -0.338 C  
HETATM    8  O   UNL     1     -13.215   7.161  71.511  1.00  0.00    -0.383 OA 
HETATM    9  H   UNL     1     -13.480   7.726  70.795  1.00  0.00     0.000 HD 
BRANCH   7  10
HETATM   10  C   UNL     1     -10.968   8.046  71.276  1.00  0.00    -0.236 C  
BRANCH  10  11
HETATM   11  O   UNL     1     -11.807   9.199  71.433  1.00  0.00    -0.298 OA 
BRANCH  11  12
HETATM   12  C   UNL     1     -11.618  10.183  70.499  1.00  0.00    -0.329 A  
HETATM   13  C   UNL     1     -10.935  10.016  69.299  1.00  0.00    -0.264 A  
HETATM   14  C   UNL     1     -10.798  11.086  68.414  1.00  0.00    -0.264 A  
HETATM   15  C   UNL     1     -11.364  12.337  68.702  1.00  0.00    -0.339 A  
HETATM   16  C   UNL     1     -12.067  12.491  69.902  1.00  0.00    -0.322 A  
HETATM   17  C   UNL     1     -12.198  11.419  70.792  1.00  0.00    -0.475 A  
BRANCH  15  18
HETATM   18  C   UNL     1     -11.209  13.486  67.736  1.00  0.00    -0.308 C  
BRANCH  18  19
HETATM   19  C   UNL     1     -12.199  13.408  66.574  1.00  0.00    -0.356 C  
BRANCH  19  20
HETATM   20  O   UNL     1     -11.579  13.879  65.375  1.00  0.00    -0.312 OA 
BRANCH  20  21
HETATM   21  C   UNL     1     -10.285  13.294  65.218  1.00  0.00    -0.290 C  
BRANCH  21  22
HETATM   22  C   UNL     1     -10.380  12.140  64.274  1.00  0.00    -0.363 C  
HETATM   23  C   UNL     1      -9.289  11.098  64.266  1.00  0.00    -0.183 C  
HETATM   24  C   UNL     1     -10.658  10.746  64.777  1.00  0.00    -0.264 C  
ENDBRANCH  21  22
ENDBRANCH  20  21
ENDBRANCH  19  20
ENDBRANCH  18  19
ENDBRANCH  15  18
ENDBRANCH  11  12
ENDBRANCH  10  11
ENDBRANCH   7  10
ENDBRANCH   6   7
ENDBRANCH   4   6
ENDBRANCH   2   4
TORSDOF 11
ENDMDL
MODEL      218
REMARK 921   NORMALIZED FREE ENERGY PREDICTED BY IDOCK:   -3.46 KCAL/MOL
REMARK 922        TOTAL FREE ENERGY PREDICTED BY IDOCK:   -7.00 KCAL/MOL
REMARK 923 INTER-LIGAND FREE ENERGY PREDICTED BY IDOCK:   -5.95 KCAL/MOL
REMARK 924 INTRA-LIGAND FREE ENERGY PREDICTED BY IDOCK:   -1.05 KCAL/MOL
REMARK 927      BINDING AFFINITY PREDICTED BY RF-SCORE:    0.00 PKD
ROOT
HETATM    1  C   UNL     1     -11.794  13.111  68.593  1.00  0.00    -0.363 C  
HETATM    2  C   UNL     1     -11.797  14.429  67.814  1.00  0.00    -0.368 C  
HETATM    3  C   UNL     1     -10.357  14.849  67.514  1.00  0.00    -0.239 C  
ENDROOT
BRANCH   2   4
HETATM    4  N   UNL     1     -12.575  14.240  66.586  1.00  0.00    -0.495 NA 
HETATM    5  H   UNL     1     -13.392  14.850  66.579  1.00  0.00     0.000 HD 
BRANCH   4   6
HETATM    6  C   UNL     1     -11.780  14.417  65.361  1.00  0.00    -0.362 C  
BRANCH   6   7
HETATM    7  C   UNL     1     -12.248  13.431  64.277  1.00  0.00    -0.392 C  
HETATM    8  O   UNL     1     -12.493  14.142  63.051  1.00  0.00    -1.077 OA 
HETATM    9  H   UNL     1     -12.782  13.533  62.382  1.00  0.00     0.000 HD 
BRANCH   7  10
HETATM   10  C   UNL     1     -11.204  12.334  64.029  1.00  0.00    -0.392 C  
BRANCH  10  11
HETATM   11  O   UNL     1     -10.118  12.506  64.952  1.00  0.00    -0.275 OA 
BRANCH  11  12
HETATM   12  C   UNL     1      -9.703  11.361  65.575  1.00  0.00    -0.230 A  
HETATM   13  C   UNL     1      -9.866  10.076  65.066  1.00  0.00    -0.374 A  
HETATM   14  C   UNL     1      -9.405   8.972  65.784  1.00  0.00    -0.302 A  
HETATM   15  C   UNL     1      -8.750   9.134  67.013  1.00  0.00    -0.131 A  
HETATM   16  C   UNL     1      -8.572  10.430  67.510  1.00  0.00    -0.125 A  
HETATM   17  C   UNL     1      -9.040  11.536  66.792  1.00  0.00    -0.184 A  
BRANCH  15  18
HETATM   18  C   UNL     1      -8.256   7.931  67.780  1.00  0.00    -0.129 C  
BRANCH  18  19
HETATM   19  C   UNL     1      -7.239   8.305  68.859  1.00  0.00    -0.078 C  
BRANCH  19  20
HETATM   20  O   UNL     1      -7.420   7.472  70.007  1.00  0.00    -0.079 OA 
BRANCH  20  21
HETATM   21  C   UNL     1      -8.142   8.170  71.023  1.00  0.00    -0.100 C  
BRANCH  21  22
HETATM   22  C   UNL     1      -7.405   8.048  72.317  1.00  0.00    -0.110 C  
HETATM   23  C   UNL     1      -7.783   6.954  73.284  1.00  0.00    -0.093 C  
HETATM   24  C   UNL     1      -6.462   6.899  72.569  1.00  0.00    -0.054 C  
ENDBRANCH  21  22
ENDBRANCH  20  21
ENDBRANCH  19  20
ENDBRANCH  18  19
ENDBRANCH  15  18
ENDBRANCH  11  12
ENDBRANCH  10  11
ENDBRANCH   7  10
ENDBRANCH   6   7
ENDBRANCH   4   6
ENDBRANCH   2   4
TORSDOF 11
ENDMDL
MODEL      219
REMARK 921   NORMALIZED FREE ENERGY PREDICTED BY IDOCK:   -3.45 KCAL/MOL
REMARK 922        TOTAL FREE ENERGY PREDICTED BY IDOCK:   -6.99 KCAL/MOL
REMARK 923 INTER-LIGAND FREE ENERGY PREDICTED BY IDOCK:   -5.82 KCAL/MOL
REMARK 924 INTRA-LIGAND FREE ENERGY PREDICTED BY IDOCK:   -1.17 KCAL/MOL
REMARK 927      BINDING AFFINITY PREDICTED BY RF-SCORE:    0.00 PKD
ROOT
HETATM    1  C   UNL     1      -7.927   7.994  63.814  1.00  0.00    -0.123 C  
HETATM    2  C   UNL     1      -7.615   6.648  64.473  1.00  0.00    -0.103 C  
HETATM    3  C   UNL     1      -7.109   6.883  65.898  1.00  0.00    -0.072 C  
ENDROOT
BRANCH   2   4
HETATM    4  N   UNL     1      -8.830   5.830  64.456  1.00  0.00    -0.359 NA 
HETATM    5  H   UNL     1      -9.167   5.702  63.502  1.00  0.00     0.000 HD 
BRANCH   4   6
HETATM    6  C   UNL     1      -8.667   4.533  65.130  1.00  0.00    -0.135 C  
BRANCH   6   7
HETATM    7  C   UNL     1      -9.977   4.130  65.830  1.00  0.00    -0.186 C  
HETATM    8  O   UNL     1      -9.727   3.037  66.730  1.00  0.00    -0.412 OA 
HETATM    9  H   UNL     1     -10.536   2.788  67.162  1.00  0.00     0.000 HD 
BRANCH   7  10
HETATM   10  C   UNL     1     -10.579   5.306  66.612  1.00  0.00    -0.270 C  
BRANCH  10  11
HETATM   11  O   UNL     1      -9.997   5.341  67.923  1.00  0.00    -0.148 OA 
BRANCH  11  12
HETATM   12  C   UNL     1     -10.298   6.455  68.659  1.00  0.00    -0.199 A  
HETATM   13  C   UNL     1      -9.758   7.719  68.442  1.00  0.00    -0.167 A  
HETATM   14  C   UNL     1     -10.133   8.792  69.252  1.00  0.00    -0.206 A  
HETATM   15  C   UNL     1     -11.075   8.625  70.279  1.00  0.00    -0.230 A  
HETATM   16  C   UNL     1     -11.628   7.355  70.479  1.00  0.00    -0.256 A  
HETATM   17  C   UNL     1     -11.247   6.279  69.669  1.00  0.00    -0.506 A  
BRANCH  15  18
HETATM   18  C   UNL     1     -11.471   9.793  71.148  1.00  0.00    -0.472 C  
BRANCH  18  19
HETATM   19  C   UNL     1     -12.391  10.775  70.420  1.00  0.00    -0.353 C  
BRANCH  19  20
HETATM   20  O   UNL     1     -11.995  12.118  70.710  1.00  0.00    -0.276 OA 
BRANCH  20  21
HETATM   21  C   UNL     1     -11.883  12.878  69.506  1.00  0.00    -0.320 C  
BRANCH  21  22
HETATM   22  C   UNL     1     -11.600  11.952  68.368  1.00  0.00    -0.376 C  
HETATM   23  C   UNL     1     -11.782  12.443  66.953  1.00  0.00    -0.432 C  
HETATM   24  C   UNL     1     -10.402  12.160  67.477  1.00  0.00    -0.219 C  
ENDBRANCH  21  22
ENDBRANCH  20  21
ENDBRANCH  19  20
ENDBRANCH  18  19
ENDBRANCH  15  18
ENDBRANCH  11  12
ENDBRANCH  10  11
ENDBRANCH   7  10
ENDBRANCH   6   7
ENDBRANCH   4   6
ENDBRANCH   2   4
TORSDOF 11
ENDMDL
MODEL      220
REMARK 921   NORMALIZED FREE ENERGY PREDICTED BY IDOCK:   -3.45 KCAL/MOL
REMARK 922        TOTAL FREE ENERGY PREDICTED BY IDOCK:   -6.99 KCAL/MOL
REMARK 923 INTER-LIGAND FREE ENERGY PREDICTED BY IDOCK:   -5.74 KCAL/MOL
REMARK 924 INTRA-LIGAND FREE ENERGY PREDICTED BY IDOCK:   -1.25 KCAL/MOL
REMARK 927      BINDING AFFINITY PREDICTED BY RF-SCORE:    0.00 PKD
ROOT
HETATM    1  C   UNL     1      -6.429  10.211  69.576  1.00  0.00    -0.055 C  
HETATM    2  C   UNL     1      -7.294   9.980  68.334  1.00  0.00    -0.077 C  
HETATM    3  C   UNL     1      -6.974  11.045  67.283  1.00  0.00    -0.096 C  
ENDROOT
BRANCH   2   4
HETATM    4  N   UNL     1      -7.036   8.628  67.833  1.00  0.00    -0.081 NA 
HETATM    5  H   UNL     1      -6.067   8.360  67.999  1.00  0.00     0.000 HD 
BRANCH   4   6
HETATM    6  C   UNL     1      -7.958   7.620  68.379  1.00  0.00    -0.123 C  
BRANCH   6   7
HETATM    7  C   UNL     1      -8.821   7.025  67.252  1.00  0.00    -0.119 C  
HETATM    8  O   UNL     1      -9.419   5.796  67.701  1.00  0.00    -0.111 OA 
HETATM    9  H   UNL     1      -9.952   5.429  67.005  1.00  0.00     0.000 HD 
BRANCH   7  10
HETATM   10  C   UNL     1      -9.925   7.999  66.818  1.00  0.00    -0.274 C  
BRANCH  10  11
HETATM   11  O   UNL     1     -10.498   8.605  67.986  1.00  0.00    -0.223 OA 
BRANCH  11  12
HETATM   12  C   UNL     1     -10.910   9.900  67.822  1.00  0.00    -0.264 A  
HETATM   13  C   UNL     1     -11.434  10.700  68.833  1.00  0.00    -0.334 A  
HETATM   14  C   UNL     1     -11.825  12.011  68.559  1.00  0.00    -0.369 A  
HETATM   15  C   UNL     1     -11.675  12.555  67.275  1.00  0.00    -0.431 A  
HETATM   16  C   UNL     1     -11.129  11.751  66.268  1.00  0.00    -0.364 A  
HETATM   17  C   UNL     1     -10.743  10.434  66.542  1.00  0.00    -0.162 A  
BRANCH  15  18
HETATM   18  C   UNL     1     -12.102  13.975  66.992  1.00  0.00    -0.455 C  
BRANCH  18  19
HETATM   19  C   UNL     1     -10.924  14.949  66.995  1.00  0.00    -0.327 C  
BRANCH  19  20
HETATM   20  O   UNL     1     -10.639  15.364  68.333  1.00  0.00    -0.237 OA 
BRANCH  20  21
HETATM   21  C   UNL     1     -11.849  15.599  69.053  1.00  0.00    -0.364 C  
BRANCH  21  22
HETATM   22  C   UNL     1     -11.696  15.087  70.448  1.00  0.00    -0.336 C  
HETATM   23  C   UNL     1     -12.560  15.658  71.545  1.00  0.00    -0.511 C  
HETATM   24  C   UNL     1     -12.768  14.242  71.088  1.00  0.00    -0.430 C  
ENDBRANCH  21  22
ENDBRANCH  20  21
ENDBRANCH  19  20
ENDBRANCH  18  19
ENDBRANCH  15  18
ENDBRANCH  11  12
ENDBRANCH  10  11
ENDBRANCH   7  10
ENDBRANCH   6   7
ENDBRANCH   4   6
ENDBRANCH   2   4
TORSDOF 11
ENDMDL
MODEL      221
REMARK 921   NORMALIZED FREE ENERGY PREDICTED BY IDOCK:   -3.44 KCAL/MOL
REMARK 922        TOTAL FREE ENERGY PREDICTED BY IDOCK:   -6.97 KCAL/MOL
REMARK 923 INTER-LIGAND FREE ENERGY PREDICTED BY IDOCK:   -5.61 KCAL/MOL
REMARK 924 INTRA-LIGAND FREE ENERGY PREDICTED BY IDOCK:   -1.36 KCAL/MOL
REMARK 927      BINDING AFFINITY PREDICTED BY RF-SCORE:    0.00 PKD
ROOT
HETATM    1  C   UNL     1      -7.839   7.380  63.020  1.00  0.00    -0.130 C  
HETATM    2  C   UNL     1      -7.601   6.236  64.009  1.00  0.00    -0.098 C  
HETATM    3  C   UNL     1      -6.878   6.773  65.246  1.00  0.00    -0.051 C  
ENDROOT
BRANCH   2   4
HETATM    4  N   UNL     1      -8.895   5.642  64.353  1.00  0.00    -0.354 NA 
HETATM    5  H   UNL     1      -9.491   5.571  63.528  1.00  0.00     0.000 HD 
BRANCH   4   6
HETATM    6  C   UNL     1      -8.777   4.339  65.025  1.00  0.00    -0.128 C  
BRANCH   6   7
HETATM    7  C   UNL     1     -10.060   4.032  65.818  1.00  0.00    -0.099 C  
HETATM    8  O   UNL     1      -9.748   3.166  66.923  1.00  0.00    -0.408 OA 
HETATM    9  H   UNL     1     -10.541   2.977  67.412  1.00  0.00     0.000 HD 
BRANCH   7  10
HETATM   10  C   UNL     1     -10.712   5.317  66.347  1.00  0.00    -0.223 C  
BRANCH  10  11
HETATM   11  O   UNL     1      -9.881   5.873  67.376  1.00  0.00    -0.117 OA 
BRANCH  11  12
HETATM   12  C   UNL     1     -10.081   7.204  67.625  1.00  0.00    -0.180 A  
HETATM   13  C   UNL     1      -9.931   8.218  66.684  1.00  0.00    -0.348 A  
HETATM   14  C   UNL     1     -10.160   9.547  67.041  1.00  0.00    -0.297 A  
HETATM   15  C   UNL     1     -10.568   9.885  68.340  1.00  0.00    -0.258 A  
HETATM   16  C   UNL     1     -10.735   8.858  69.276  1.00  0.00    -0.177 A  
HETATM   17  C   UNL     1     -10.500   7.525  68.918  1.00  0.00    -0.214 A  
BRANCH  15  18
HETATM   18  C   UNL     1     -10.812  11.327  68.713  1.00  0.00    -0.252 C  
BRANCH  18  19
HETATM   19  C   UNL     1     -11.801  12.013  67.771  1.00  0.00    -0.238 C  
BRANCH  19  20
HETATM   20  O   UNL     1     -11.350  13.336  67.472  1.00  0.00    -0.270 OA 
BRANCH  20  21
HETATM   21  C   UNL     1     -10.929  13.426  66.110  1.00  0.00    -0.276 C  
BRANCH  21  22
HETATM   22  C   UNL     1     -12.058  13.018  65.221  1.00  0.00    -0.484 C  
HETATM   23  C   UNL     1     -12.139  13.577  63.822  1.00  0.00    -0.482 C  
HETATM   24  C   UNL     1     -11.825  12.122  64.031  1.00  0.00    -0.523 C  
ENDBRANCH  21  22
ENDBRANCH  20  21
ENDBRANCH  19  20
ENDBRANCH  18  19
ENDBRANCH  15  18
ENDBRANCH  11  12
ENDBRANCH  10  11
ENDBRANCH   7  10
ENDBRANCH   6   7
ENDBRANCH   4   6
ENDBRANCH   2   4
TORSDOF 11
ENDMDL
MODEL      222
REMARK 921   NORMALIZED FREE ENERGY PREDICTED BY IDOCK:   -3.43 KCAL/MOL
REMARK 922        TOTAL FREE ENERGY PREDICTED BY IDOCK:   -6.96 KCAL/MOL
REMARK 923 INTER-LIGAND FREE ENERGY PREDICTED BY IDOCK:   -5.49 KCAL/MOL
REMARK 924 INTRA-LIGAND FREE ENERGY PREDICTED BY IDOCK:   -1.47 KCAL/MOL
REMARK 927      BINDING AFFINITY PREDICTED BY RF-SCORE:    0.00 PKD
ROOT
HETATM    1  C   UNL     1      -9.720   3.747  64.219  1.00  0.00    -0.177 C  
HETATM    2  C   UNL     1      -9.470   4.682  65.405  1.00  0.00    -0.171 C  
HETATM    3  C   UNL     1      -8.553   3.990  66.416  1.00  0.00    -0.110 C  
ENDROOT
BRANCH   2   4
HETATM    4  N   UNL     1      -8.882   5.925  64.901  1.00  0.00    -0.367 NA 
HETATM    5  H   UNL     1      -9.431   6.297  64.126  1.00  0.00     0.000 HD 
BRANCH   4   6
HETATM    6  C   UNL     1      -8.694   6.945  65.945  1.00  0.00    -0.134 C  
BRANCH   6   7
HETATM    7  C   UNL     1      -7.343   7.657  65.754  1.00  0.00    -0.070 C  
HETATM    8  O   UNL     1      -6.368   6.720  65.265  1.00  0.00    -0.040 OA 
HETATM    9  H   UNL     1      -5.534   7.161  65.148  1.00  0.00     0.000 HD 
BRANCH   7  10
HETATM   10  C   UNL     1      -7.462   8.829  64.770  1.00  0.00    -0.100 C  
BRANCH  10  11
HETATM   11  O   UNL     1      -8.814   8.903  64.294  1.00  0.00    -0.127 OA 
BRANCH  11  12
HETATM   12  C   UNL     1      -9.387  10.144  64.370  1.00  0.00    -0.293 A  
HETATM   13  C   UNL     1      -9.693  10.944  63.274  1.00  0.00    -0.398 A  
HETATM   14  C   UNL     1     -10.277  12.198  63.461  1.00  0.00    -0.453 A  
HETATM   15  C   UNL     1     -10.590  12.662  64.748  1.00  0.00    -0.341 A  
HETATM   16  C   UNL     1     -10.297  11.843  65.844  1.00  0.00    -0.277 A  
HETATM   17  C   UNL     1      -9.705  10.589  65.655  1.00  0.00    -0.289 A  
BRANCH  15  18
HETATM   18  C   UNL     1     -11.222  14.020  64.936  1.00  0.00    -0.362 C  
BRANCH  18  19
HETATM   19  C   UNL     1     -12.211  14.045  66.102  1.00  0.00    -0.465 C  
BRANCH  19  20
HETATM   20  O   UNL     1     -11.647  14.764  67.202  1.00  0.00    -0.370 OA 
BRANCH  20  21
HETATM   21  C   UNL     1     -10.655  15.683  66.744  1.00  0.00    -0.307 C  
BRANCH  21  22
HETATM   22  C   UNL     1      -9.450  15.580  67.622  1.00  0.00    -0.208 C  
HETATM   23  C   UNL     1      -9.194  14.302  68.381  1.00  0.00    -0.196 C  
HETATM   24  C   UNL     1      -8.289  14.694  67.247  1.00  0.00    -0.234 C  
ENDBRANCH  21  22
ENDBRANCH  20  21
ENDBRANCH  19  20
ENDBRANCH  18  19
ENDBRANCH  15  18
ENDBRANCH  11  12
ENDBRANCH  10  11
ENDBRANCH   7  10
ENDBRANCH   6   7
ENDBRANCH   4   6
ENDBRANCH   2   4
TORSDOF 11
ENDMDL
MODEL      223
REMARK 921   NORMALIZED FREE ENERGY PREDICTED BY IDOCK:   -3.43 KCAL/MOL
REMARK 922        TOTAL FREE ENERGY PREDICTED BY IDOCK:   -6.96 KCAL/MOL
REMARK 923 INTER-LIGAND FREE ENERGY PREDICTED BY IDOCK:   -6.38 KCAL/MOL
REMARK 924 INTRA-LIGAND FREE ENERGY PREDICTED BY IDOCK:   -0.58 KCAL/MOL
REMARK 927      BINDING AFFINITY PREDICTED BY RF-SCORE:    0.00 PKD
ROOT
HETATM    1  C   UNL     1     -11.431  13.168  65.638  1.00  0.00    -0.351 C  
HETATM    2  C   UNL     1     -11.875  12.097  64.638  1.00  0.00    -0.328 C  
HETATM    3  C   UNL     1     -12.318  12.768  63.336  1.00  0.00    -0.531 C  
ENDROOT
BRANCH   2   4
HETATM    4  N   UNL     1     -10.759  11.173  64.420  1.00  0.00    -0.344 NA 
HETATM    5  H   UNL     1     -10.003  11.632  63.912  1.00  0.00     0.000 HD 
BRANCH   4   6
HETATM    6  C   UNL     1     -10.259  10.562  65.661  1.00  0.00    -0.246 C  
BRANCH   6   7
HETATM    7  C   UNL     1      -8.879   9.925  65.421  1.00  0.00    -0.168 C  
HETATM    8  O   UNL     1      -7.847  10.870  65.751  1.00  0.00    -0.267 OA 
HETATM    9  H   UNL     1      -6.995  10.476  65.603  1.00  0.00     0.000 HD 
BRANCH   7  10
HETATM   10  C   UNL     1      -8.695   8.655  66.263  1.00  0.00    -0.143 C  
BRANCH  10  11
HETATM   11  O   UNL     1      -9.973   8.028  66.448  1.00  0.00    -0.229 OA 
BRANCH  11  12
HETATM   12  C   UNL     1     -10.327   7.810  67.752  1.00  0.00    -0.221 A  
HETATM   13  C   UNL     1     -10.390   8.795  68.732  1.00  0.00    -0.234 A  
HETATM   14  C   UNL     1     -10.763   8.467  70.036  1.00  0.00    -0.236 A  
HETATM   15  C   UNL     1     -11.105   7.150  70.377  1.00  0.00    -0.309 A  
HETATM   16  C   UNL     1     -11.057   6.167  69.382  1.00  0.00    -0.479 A  
HETATM   17  C   UNL     1     -10.677   6.497  68.076  1.00  0.00    -0.351 A  
BRANCH  15  18
HETATM   18  C   UNL     1     -11.506   6.807  71.792  1.00  0.00    -0.320 C  
BRANCH  18  19
HETATM   19  C   UNL     1     -10.629   7.505  72.831  1.00  0.00    -0.337 C  
BRANCH  19  20
HETATM   20  O   UNL     1     -10.632   6.758  74.050  1.00  0.00    -0.343 OA 
BRANCH  20  21
HETATM   21  C   UNL     1      -9.825   5.587  73.922  1.00  0.00    -0.178 C  
BRANCH  21  22
HETATM   22  C   UNL     1     -10.607   4.401  74.386  1.00  0.00    -0.286 C  
HETATM   23  C   UNL     1     -11.020   3.349  73.386  1.00  0.00    -0.306 C  
HETATM   24  C   UNL     1      -9.984   3.028  74.427  1.00  0.00    -0.172 C  
ENDBRANCH  21  22
ENDBRANCH  20  21
ENDBRANCH  19  20
ENDBRANCH  18  19
ENDBRANCH  15  18
ENDBRANCH  11  12
ENDBRANCH  10  11
ENDBRANCH   7  10
ENDBRANCH   6   7
ENDBRANCH   4   6
ENDBRANCH   2   4
TORSDOF 11
ENDMDL
MODEL      224
REMARK 921   NORMALIZED FREE ENERGY PREDICTED BY IDOCK:   -3.42 KCAL/MOL
REMARK 922        TOTAL FREE ENERGY PREDICTED BY IDOCK:   -6.95 KCAL/MOL
REMARK 923 INTER-LIGAND FREE ENERGY PREDICTED BY IDOCK:   -6.32 KCAL/MOL
REMARK 924 INTRA-LIGAND FREE ENERGY PREDICTED BY IDOCK:   -0.62 KCAL/MOL
REMARK 927      BINDING AFFINITY PREDICTED BY RF-SCORE:    0.00 PKD
ROOT
HETATM    1  C   UNL     1      -6.108  19.486  67.165  1.00  0.00    -0.192 C  
HETATM    2  C   UNL     1      -6.516  18.385  66.184  1.00  0.00    -0.225 C  
HETATM    3  C   UNL     1      -6.508  17.033  66.901  1.00  0.00    -0.248 C  
ENDROOT
BRANCH   2   4
HETATM    4  N   UNL     1      -7.841  18.707  65.648  1.00  0.00    -0.432 NA 
HETATM    5  H   UNL     1      -8.348  17.858  65.400  1.00  0.00     0.000 HD 
BRANCH   4   6
HETATM    6  C   UNL     1      -8.643  19.550  66.548  1.00  0.00    -0.348 C  
BRANCH   6   7
HETATM    7  C   UNL     1     -10.111  19.088  66.542  1.00  0.00    -0.403 C  
HETATM    8  O   UNL     1     -10.846  19.830  65.554  1.00  0.00    -0.445 OA 
HETATM    9  H   UNL     1     -11.752  19.544  65.550  1.00  0.00     0.000 HD 
BRANCH   7  10
HETATM   10  C   UNL     1     -10.223  17.587  66.240  1.00  0.00    -0.355 C  
BRANCH  10  11
HETATM   11  O   UNL     1     -10.803  16.926  67.374  1.00  0.00    -0.278 OA 
BRANCH  11  12
HETATM   12  C   UNL     1     -10.903  15.565  67.260  1.00  0.00    -0.313 A  
HETATM   13  C   UNL     1     -10.425  14.822  66.185  1.00  0.00    -0.311 A  
HETATM   14  C   UNL     1     -10.578  13.435  66.167  1.00  0.00    -0.294 A  
HETATM   15  C   UNL     1     -11.189  12.763  67.236  1.00  0.00    -0.339 A  
HETATM   16  C   UNL     1     -11.650  13.515  68.322  1.00  0.00    -0.381 A  
HETATM   17  C   UNL     1     -11.501  14.907  68.337  1.00  0.00    -0.338 A  
BRANCH  15  18
HETATM   18  C   UNL     1     -11.348  11.262  67.204  1.00  0.00    -0.295 C  
BRANCH  18  19
HETATM   19  C   UNL     1     -11.123  10.623  68.574  1.00  0.00    -0.263 C  
BRANCH  19  20
HETATM   20  O   UNL     1     -10.529   9.332  68.417  1.00  0.00    -0.204 OA 
BRANCH  20  21
HETATM   21  C   UNL     1     -10.903   8.474  69.495  1.00  0.00    -0.125 C  
BRANCH  21  22
HETATM   22  C   UNL     1      -9.679   8.084  70.258  1.00  0.00    -0.175 C  
HETATM   23  C   UNL     1      -8.374   7.909  69.523  1.00  0.00    -0.131 C  
HETATM   24  C   UNL     1      -8.552   9.062  70.470  1.00  0.00    -0.229 C  
ENDBRANCH  21  22
ENDBRANCH  20  21
ENDBRANCH  19  20
ENDBRANCH  18  19
ENDBRANCH  15  18
ENDBRANCH  11  12
ENDBRANCH  10  11
ENDBRANCH   7  10
ENDBRANCH   6   7
ENDBRANCH   4   6
ENDBRANCH   2   4
TORSDOF 11
ENDMDL
MODEL      225
REMARK 921   NORMALIZED FREE ENERGY PREDICTED BY IDOCK:   -3.41 KCAL/MOL
REMARK 922        TOTAL FREE ENERGY PREDICTED BY IDOCK:   -6.93 KCAL/MOL
REMARK 923 INTER-LIGAND FREE ENERGY PREDICTED BY IDOCK:   -6.06 KCAL/MOL
REMARK 924 INTRA-LIGAND FREE ENERGY PREDICTED BY IDOCK:   -0.87 KCAL/MOL
REMARK 927      BINDING AFFINITY PREDICTED BY RF-SCORE:    0.00 PKD
ROOT
HETATM    1  C   UNL     1      -6.996  10.586  69.073  1.00  0.00    -0.076 C  
HETATM    2  C   UNL     1      -7.251   9.199  68.479  1.00  0.00    -0.073 C  
HETATM    3  C   UNL     1      -7.407   8.180  69.611  1.00  0.00    -0.073 C  
ENDROOT
BRANCH   2   4
HETATM    4  N   UNL     1      -8.450   9.265  67.640  1.00  0.00    -0.116 NA 
HETATM    5  H   UNL     1      -9.006  10.089  67.868  1.00  0.00     0.000 HD 
BRANCH   4   6
HETATM    6  C   UNL     1      -8.155   9.216  66.200  1.00  0.00    -0.107 C  
BRANCH   6   7
HETATM    7  C   UNL     1      -8.576  10.534  65.526  1.00  0.00    -0.180 C  
HETATM    8  O   UNL     1      -7.863  10.692  64.287  1.00  0.00    -0.345 OA 
HETATM    9  H   UNL     1      -8.123  11.506  63.872  1.00  0.00     0.000 HD 
BRANCH   7  10
HETATM   10  C   UNL     1     -10.086  10.564  65.251  1.00  0.00    -0.300 C  
BRANCH  10  11
HETATM   11  O   UNL     1     -10.784  10.709  66.496  1.00  0.00    -0.224 OA 
BRANCH  11  12
HETATM   12  C   UNL     1     -10.869  11.992  66.966  1.00  0.00    -0.253 A  
HETATM   13  C   UNL     1     -10.031  12.540  67.932  1.00  0.00    -0.212 A  
HETATM   14  C   UNL     1     -10.203  13.862  68.342  1.00  0.00    -0.243 A  
HETATM   15  C   UNL     1     -11.201  14.669  67.775  1.00  0.00    -0.320 A  
HETATM   16  C   UNL     1     -12.027  14.117  66.790  1.00  0.00    -0.475 A  
HETATM   17  C   UNL     1     -11.858  12.789  66.384  1.00  0.00    -0.472 A  
BRANCH  15  18
HETATM   18  C   UNL     1     -11.376  16.098  68.228  1.00  0.00    -0.316 C  
BRANCH  18  19
HETATM   19  C   UNL     1     -10.643  17.090  67.324  1.00  0.00    -0.267 C  
BRANCH  19  20
HETATM   20  O   UNL     1     -10.812  18.419  67.823  1.00  0.00    -0.384 OA 
BRANCH  20  21
HETATM   21  C   UNL     1     -10.467  19.378  66.822  1.00  0.00    -0.467 C  
BRANCH  21  22
HETATM   22  C   UNL     1      -9.303  20.185  67.297  1.00  0.00    -0.519 C  
HETATM   23  C   UNL     1      -8.478  19.683  68.456  1.00  0.00    -0.334 C  
HETATM   24  C   UNL     1      -7.888  19.713  67.074  1.00  0.00    -0.299 C  
ENDBRANCH  21  22
ENDBRANCH  20  21
ENDBRANCH  19  20
ENDBRANCH  18  19
ENDBRANCH  15  18
ENDBRANCH  11  12
ENDBRANCH  10  11
ENDBRANCH   7  10
ENDBRANCH   6   7
ENDBRANCH   4   6
ENDBRANCH   2   4
TORSDOF 11
ENDMDL
MODEL      226
REMARK 921   NORMALIZED FREE ENERGY PREDICTED BY IDOCK:   -3.40 KCAL/MOL
REMARK 922        TOTAL FREE ENERGY PREDICTED BY IDOCK:   -6.91 KCAL/MOL
REMARK 923 INTER-LIGAND FREE ENERGY PREDICTED BY IDOCK:   -5.35 KCAL/MOL
REMARK 924 INTRA-LIGAND FREE ENERGY PREDICTED BY IDOCK:   -1.56 KCAL/MOL
REMARK 927      BINDING AFFINITY PREDICTED BY RF-SCORE:    0.00 PKD
ROOT
HETATM    1  C   UNL     1      -8.163   6.172  74.183  1.00  0.00    -0.108 C  
HETATM    2  C   UNL     1      -9.235   5.368  73.443  1.00  0.00    -0.131 C  
HETATM    3  C   UNL     1     -10.611   5.691  74.029  1.00  0.00    -0.258 C  
ENDROOT
BRANCH   2   4
HETATM    4  N   UNL     1      -9.161   5.696  72.017  1.00  0.00    -0.144 NA 
HETATM    5  H   UNL     1      -8.422   5.162  71.561  1.00  0.00     0.000 HD 
BRANCH   4   6
HETATM    6  C   UNL     1     -10.441   5.524  71.314  1.00  0.00    -0.239 C  
BRANCH   6   7
HETATM    7  C   UNL     1     -10.584   6.581  70.204  1.00  0.00    -0.227 C  
HETATM    8  O   UNL     1     -11.304   6.019  69.093  1.00  0.00    -0.364 OA 
HETATM    9  H   UNL     1     -11.391   6.672  68.408  1.00  0.00     0.000 HD 
BRANCH   7  10
HETATM   10  C   UNL     1     -11.321   7.828  70.710  1.00  0.00    -0.279 C  
BRANCH  10  11
HETATM   11  O   UNL     1     -10.410   8.937  70.718  1.00  0.00    -0.199 OA 
BRANCH  11  12
HETATM   12  C   UNL     1     -10.298   9.601  69.527  1.00  0.00    -0.221 A  
HETATM   13  C   UNL     1     -11.352   9.843  68.651  1.00  0.00    -0.048 A  
HETATM   14  C   UNL     1     -11.130  10.532  67.458  1.00  0.00    -0.358 A  
HETATM   15  C   UNL     1      -9.853  11.013  67.130  1.00  0.00    -0.211 A  
HETATM   16  C   UNL     1      -8.802  10.782  68.024  1.00  0.00    -0.132 A  
HETATM   17  C   UNL     1      -9.025  10.086  69.218  1.00  0.00    -0.186 A  
BRANCH  15  18
HETATM   18  C   UNL     1      -9.627  11.756  65.836  1.00  0.00    -0.249 C  
BRANCH  18  19
HETATM   19  C   UNL     1     -10.895  12.444  65.329  1.00  0.00    -0.289 C  
BRANCH  19  20
HETATM   20  O   UNL     1     -10.973  13.770  65.858  1.00  0.00    -0.282 OA 
BRANCH  20  21
HETATM   21  C   UNL     1     -12.191  13.950  66.581  1.00  0.00    -0.424 C  
BRANCH  21  22
HETATM   22  C   UNL     1     -11.884  14.546  67.917  1.00  0.00    -0.370 C  
HETATM   23  C   UNL     1     -11.701  13.639  69.108  1.00  0.00    -0.376 C  
HETATM   24  C   UNL     1     -10.523  14.384  68.545  1.00  0.00    -0.254 C  
ENDBRANCH  21  22
ENDBRANCH  20  21
ENDBRANCH  19  20
ENDBRANCH  18  19
ENDBRANCH  15  18
ENDBRANCH  11  12
ENDBRANCH  10  11
ENDBRANCH   7  10
ENDBRANCH   6   7
ENDBRANCH   4   6
ENDBRANCH   2   4
TORSDOF 11
ENDMDL
MODEL      227
REMARK 921   NORMALIZED FREE ENERGY PREDICTED BY IDOCK:   -3.40 KCAL/MOL
REMARK 922        TOTAL FREE ENERGY PREDICTED BY IDOCK:   -6.91 KCAL/MOL
REMARK 923 INTER-LIGAND FREE ENERGY PREDICTED BY IDOCK:   -5.60 KCAL/MOL
REMARK 924 INTRA-LIGAND FREE ENERGY PREDICTED BY IDOCK:   -1.32 KCAL/MOL
REMARK 927      BINDING AFFINITY PREDICTED BY RF-SCORE:    0.00 PKD
ROOT
HETATM    1  C   UNL     1      -7.462   7.103  65.587  1.00  0.00    -0.082 C  
HETATM    2  C   UNL     1      -7.479   7.260  64.065  1.00  0.00    -0.100 C  
HETATM    3  C   UNL     1      -7.839   5.921  63.416  1.00  0.00    -0.100 C  
ENDROOT
BRANCH   2   4
HETATM    4  N   UNL     1      -8.443   8.308  63.716  1.00  0.00    -0.397 NA 
HETATM    5  H   UNL     1      -9.392   8.019  63.953  1.00  0.00     0.000 HD 
BRANCH   4   6
HETATM    6  C   UNL     1      -8.127   9.612  64.319  1.00  0.00    -0.146 C  
BRANCH   6   7
HETATM    7  C   UNL     1      -9.302  10.586  64.122  1.00  0.00    -0.267 C  
HETATM    8  O   UNL     1     -10.141  10.121  63.050  1.00  0.00    -0.475 OA 
HETATM    9  H   UNL     1     -10.866  10.723  62.930  1.00  0.00     0.000 HD 
BRANCH   7  10
HETATM   10  C   UNL     1     -10.139  10.719  65.402  1.00  0.00    -0.285 C  
BRANCH  10  11
HETATM   11  O   UNL     1     -10.055   9.493  66.144  1.00  0.00    -0.284 OA 
BRANCH  11  12
HETATM   12  C   UNL     1     -10.486   9.572  67.441  1.00  0.00    -0.272 A  
HETATM   13  C   UNL     1     -10.874  10.746  68.078  1.00  0.00    -0.302 A  
HETATM   14  C   UNL     1     -11.299  10.718  69.407  1.00  0.00    -0.351 A  
HETATM   15  C   UNL     1     -11.368   9.509  70.115  1.00  0.00    -0.241 A  
HETATM   16  C   UNL     1     -10.995   8.329  69.462  1.00  0.00    -0.051 A  
HETATM   17  C   UNL     1     -10.563   8.360  68.131  1.00  0.00    -0.175 A  
BRANCH  15  18
HETATM   18  C   UNL     1     -11.830   9.492  71.552  1.00  0.00    -0.478 C  
BRANCH  18  19
HETATM   19  C   UNL     1     -11.780   8.091  72.163  1.00  0.00    -0.344 C  
BRANCH  19  20
HETATM   20  O   UNL     1     -10.725   8.017  73.125  1.00  0.00    -0.332 OA 
BRANCH  20  21
HETATM   21  C   UNL     1      -9.768   7.028  72.744  1.00  0.00    -0.153 C  
BRANCH  21  22
HETATM   22  C   UNL     1     -10.486   5.844  72.181  1.00  0.00    -0.250 C  
HETATM   23  C   UNL     1      -9.939   5.163  70.951  1.00  0.00    -0.280 C  
HETATM   24  C   UNL     1      -9.896   4.460  72.279  1.00  0.00    -0.231 C  
ENDBRANCH  21  22
ENDBRANCH  20  21
ENDBRANCH  19  20
ENDBRANCH  18  19
ENDBRANCH  15  18
ENDBRANCH  11  12
ENDBRANCH  10  11
ENDBRANCH   7  10
ENDBRANCH   6   7
ENDBRANCH   4   6
ENDBRANCH   2   4
TORSDOF 11
ENDMDL
MODEL      228
REMARK 921   NORMALIZED FREE ENERGY PREDICTED BY IDOCK:   -3.39 KCAL/MOL
REMARK 922        TOTAL FREE ENERGY PREDICTED BY IDOCK:   -6.90 KCAL/MOL
REMARK 923 INTER-LIGAND FREE ENERGY PREDICTED BY IDOCK:   -5.49 KCAL/MOL
REMARK 924 INTRA-LIGAND FREE ENERGY PREDICTED BY IDOCK:   -1.40 KCAL/MOL
REMARK 927      BINDING AFFINITY PREDICTED BY RF-SCORE:    0.00 PKD
ROOT
HETATM    1  C   UNL     1     -10.373   8.672  66.906  1.00  0.00    -0.355 C  
HETATM    2  C   UNL     1      -9.634   9.915  66.403  1.00  0.00    -0.200 C  
HETATM    3  C   UNL     1      -9.554   9.878  64.875  1.00  0.00    -0.356 C  
ENDROOT
BRANCH   2   4
HETATM    4  N   UNL     1     -10.345  11.103  66.880  1.00  0.00    -0.222 NA 
HETATM    5  H   UNL     1     -11.355  10.968  66.823  1.00  0.00     0.000 HD 
BRANCH   4   6
HETATM    6  C   UNL     1      -9.949  11.513  68.236  1.00  0.00    -0.202 C  
BRANCH   6   7
HETATM    7  C   UNL     1     -11.122  12.213  68.944  1.00  0.00    -0.243 C  
HETATM    8  O   UNL     1     -11.808  13.067  68.012  1.00  0.00    -0.344 OA 
HETATM    9  H   UNL     1     -12.533  13.499  68.450  1.00  0.00     0.000 HD 
BRANCH   7  10
HETATM   10  C   UNL     1     -12.112  11.195  69.525  1.00  0.00    -0.326 C  
BRANCH  10  11
HETATM   11  O   UNL     1     -11.726  10.884  70.872  1.00  0.00    -0.306 OA 
BRANCH  11  12
HETATM   12  C   UNL     1     -11.477   9.560  71.111  1.00  0.00    -0.360 A  
HETATM   13  C   UNL     1     -10.439   8.832  70.537  1.00  0.00    -0.246 A  
HETATM   14  C   UNL     1     -10.272   7.482  70.849  1.00  0.00    -0.193 A  
HETATM   15  C   UNL     1     -11.125   6.841  71.760  1.00  0.00    -0.275 A  
HETATM   16  C   UNL     1     -12.155   7.585  72.347  1.00  0.00    -0.216 A  
HETATM   17  C   UNL     1     -12.325   8.937  72.029  1.00  0.00    -0.460 A  
BRANCH  15  18
HETATM   18  C   UNL     1     -10.934   5.380  72.087  1.00  0.00    -0.265 C  
BRANCH  18  19
HETATM   19  C   UNL     1     -11.115   5.089  73.577  1.00  0.00    -0.317 C  
BRANCH  19  20
HETATM   20  O   UNL     1      -9.964   5.530  74.303  1.00  0.00    -0.187 OA 
BRANCH  20  21
HETATM   21  C   UNL     1      -8.815   4.769  73.928  1.00  0.00    -0.104 C  
BRANCH  21  22
HETATM   22  C   UNL     1      -7.614   5.658  73.944  1.00  0.00    -0.097 C  
HETATM   23  C   UNL     1      -7.352   6.569  72.771  1.00  0.00    -0.089 C  
HETATM   24  C   UNL     1      -7.754   7.151  74.097  1.00  0.00    -0.130 C  
ENDBRANCH  21  22
ENDBRANCH  20  21
ENDBRANCH  19  20
ENDBRANCH  18  19
ENDBRANCH  15  18
ENDBRANCH  11  12
ENDBRANCH  10  11
ENDBRANCH   7  10
ENDBRANCH   6   7
ENDBRANCH   4   6
ENDBRANCH   2   4
TORSDOF 11
ENDMDL
MODEL      229
REMARK 921   NORMALIZED FREE ENERGY PREDICTED BY IDOCK:   -3.39 KCAL/MOL
REMARK 922        TOTAL FREE ENERGY PREDICTED BY IDOCK:   -6.89 KCAL/MOL
REMARK 923 INTER-LIGAND FREE ENERGY PREDICTED BY IDOCK:   -5.66 KCAL/MOL
REMARK 924 INTRA-LIGAND FREE ENERGY PREDICTED BY IDOCK:   -1.24 KCAL/MOL
REMARK 927      BINDING AFFINITY PREDICTED BY RF-SCORE:    0.00 PKD
ROOT
HETATM    1  C   UNL     1     -12.220  15.004  64.332  1.00  0.00    -0.353 C  
HETATM    2  C   UNL     1     -12.504  13.965  65.420  1.00  0.00    -0.501 C  
HETATM    3  C   UNL     1     -12.531  12.568  64.797  1.00  0.00    -0.532 C  
ENDROOT
BRANCH   2   4
HETATM    4  N   UNL     1     -11.470  14.079  66.452  1.00  0.00    -0.339 NA 
HETATM    5  H   UNL     1     -10.989  14.975  66.385  1.00  0.00     0.000 HD 
BRANCH   4   6
HETATM    6  C   UNL     1     -11.982  13.862  67.814  1.00  0.00    -0.355 C  
BRANCH   6   7
HETATM    7  C   UNL     1     -11.002  12.986  68.616  1.00  0.00    -0.265 C  
HETATM    8  O   UNL     1     -11.488  12.826  69.960  1.00  0.00    -0.508 OA 
HETATM    9  H   UNL     1     -10.883  12.286  70.455  1.00  0.00     0.000 HD 
BRANCH   7  10
HETATM   10  C   UNL     1     -10.828  11.605  67.969  1.00  0.00    -0.215 C  
BRANCH  10  11
HETATM   11  O   UNL     1      -9.861  11.702  66.914  1.00  0.00    -0.194 OA 
BRANCH  11  12
HETATM   12  C   UNL     1      -9.303  10.512  66.530  1.00  0.00    -0.163 A  
HETATM   13  C   UNL     1      -9.567   9.864  65.328  1.00  0.00    -0.361 A  
HETATM   14  C   UNL     1      -8.943   8.651  65.033  1.00  0.00    -0.060 A  
HETATM   15  C   UNL     1      -8.024   8.077  65.924  1.00  0.00    -0.107 A  
HETATM   16  C   UNL     1      -7.749   8.745  67.123  1.00  0.00    -0.096 A  
HETATM   17  C   UNL     1      -8.380   9.959  67.420  1.00  0.00    -0.118 A  
BRANCH  15  18
HETATM   18  C   UNL     1      -7.356   6.765  65.593  1.00  0.00    -0.079 C  
BRANCH  18  19
HETATM   19  C   UNL     1      -8.036   5.577  66.275  1.00  0.00    -0.105 C  
BRANCH  19  20
HETATM   20  O   UNL     1      -9.456   5.722  66.203  1.00  0.00    -0.159 OA 
BRANCH  20  21
HETATM   21  C   UNL     1     -10.079   5.114  67.335  1.00  0.00    -0.179 C  
BRANCH  21  22
HETATM   22  C   UNL     1      -9.957   6.028  68.511  1.00  0.00    -0.173 C  
HETATM   23  C   UNL     1     -11.178   6.331  69.343  1.00  0.00    -0.489 C  
HETATM   24  C   UNL     1     -10.067   5.500  69.919  1.00  0.00    -0.305 C  
ENDBRANCH  21  22
ENDBRANCH  20  21
ENDBRANCH  19  20
ENDBRANCH  18  19
ENDBRANCH  15  18
ENDBRANCH  11  12
ENDBRANCH  10  11
ENDBRANCH   7  10
ENDBRANCH   6   7
ENDBRANCH   4   6
ENDBRANCH   2   4
TORSDOF 11
ENDMDL
MODEL      230
REMARK 921   NORMALIZED FREE ENERGY PREDICTED BY IDOCK:   -3.39 KCAL/MOL
REMARK 922        TOTAL FREE ENERGY PREDICTED BY IDOCK:   -6.89 KCAL/MOL
REMARK 923 INTER-LIGAND FREE ENERGY PREDICTED BY IDOCK:   -5.74 KCAL/MOL
REMARK 924 INTRA-LIGAND FREE ENERGY PREDICTED BY IDOCK:   -1.15 KCAL/MOL
REMARK 927      BINDING AFFINITY PREDICTED BY RF-SCORE:    0.00 PKD
ROOT
HETATM    1  C   UNL     1     -11.230  12.178  64.931  1.00  0.00    -0.374 C  
HETATM    2  C   UNL     1     -11.728  13.034  66.098  1.00  0.00    -0.394 C  
HETATM    3  C   UNL     1     -12.947  13.845  65.652  1.00  0.00    -0.361 C  
ENDROOT
BRANCH   2   4
HETATM    4  N   UNL     1     -12.047  12.148  67.220  1.00  0.00    -0.525 NA 
HETATM    5  H   UNL     1     -12.344  11.232  66.885  1.00  0.00     0.000 HD 
BRANCH   4   6
HETATM    6  C   UNL     1     -10.948  12.018  68.190  1.00  0.00    -0.230 C  
BRANCH   6   7
HETATM    7  C   UNL     1     -11.485  12.165  69.624  1.00  0.00    -0.238 C  
HETATM    8  O   UNL     1     -12.263  13.370  69.727  1.00  0.00    -0.302 OA 
HETATM    9  H   UNL     1     -12.594  13.460  70.613  1.00  0.00     0.000 HD 
BRANCH   7  10
HETATM   10  C   UNL     1     -12.353  10.963  70.023  1.00  0.00    -0.313 C  
BRANCH  10  11
HETATM   11  O   UNL     1     -11.794  10.351  71.194  1.00  0.00    -0.356 OA 
BRANCH  11  12
HETATM   12  C   UNL     1     -11.437   9.038  71.045  1.00  0.00    -0.295 A  
HETATM   13  C   UNL     1     -12.253   7.955  71.355  1.00  0.00    -0.337 A  
HETATM   14  C   UNL     1     -11.793   6.651  71.165  1.00  0.00    -0.414 A  
HETATM   15  C   UNL     1     -10.516   6.407  70.638  1.00  0.00    -0.269 A  
HETATM   16  C   UNL     1      -9.708   7.502  70.310  1.00  0.00    -0.179 A  
HETATM   17  C   UNL     1     -10.169   8.809  70.506  1.00  0.00    -0.240 A  
BRANCH  15  18
HETATM   18  C   UNL     1     -10.030   4.992  70.438  1.00  0.00    -0.317 C  
BRANCH  18  19
HETATM   19  C   UNL     1      -8.513   4.917  70.260  1.00  0.00    -0.091 C  
BRANCH  19  20
HETATM   20  O   UNL     1      -8.198   4.609  68.899  1.00  0.00    -0.081 OA 
BRANCH  20  21
HETATM   21  C   UNL     1      -7.190   5.493  68.407  1.00  0.00    -0.075 C  
BRANCH  21  22
HETATM   22  C   UNL     1      -7.783   6.376  67.358  1.00  0.00    -0.104 C  
HETATM   23  C   UNL     1      -8.053   5.815  65.984  1.00  0.00    -0.110 C  
HETATM   24  C   UNL     1      -9.201   6.176  66.885  1.00  0.00    -0.135 C  
ENDBRANCH  21  22
ENDBRANCH  20  21
ENDBRANCH  19  20
ENDBRANCH  18  19
ENDBRANCH  15  18
ENDBRANCH  11  12
ENDBRANCH  10  11
ENDBRANCH   7  10
ENDBRANCH   6   7
ENDBRANCH   4   6
ENDBRANCH   2   4
TORSDOF 11
ENDMDL
MODEL      231
REMARK 921   NORMALIZED FREE ENERGY PREDICTED BY IDOCK:   -3.39 KCAL/MOL
REMARK 922        TOTAL FREE ENERGY PREDICTED BY IDOCK:   -6.89 KCAL/MOL
REMARK 923 INTER-LIGAND FREE ENERGY PREDICTED BY IDOCK:   -6.11 KCAL/MOL
REMARK 924 INTRA-LIGAND FREE ENERGY PREDICTED BY IDOCK:   -0.78 KCAL/MOL
REMARK 927      BINDING AFFINITY PREDICTED BY RF-SCORE:    0.00 PKD
ROOT
HETATM    1  C   UNL     1      -8.894   4.715  64.001  1.00  0.00    -0.138 C  
HETATM    2  C   UNL     1      -8.251   5.794  64.877  1.00  0.00    -0.137 C  
HETATM    3  C   UNL     1      -6.788   5.431  65.142  1.00  0.00    -0.049 C  
ENDROOT
BRANCH   2   4
HETATM    4  N   UNL     1      -8.374   7.083  64.192  1.00  0.00    -0.345 NA 
HETATM    5  H   UNL     1      -9.245   7.130  63.664  1.00  0.00     0.000 HD 
BRANCH   4   6
HETATM    6  C   UNL     1      -8.248   8.236  65.096  1.00  0.00    -0.154 C  
BRANCH   6   7
HETATM    7  C   UNL     1      -7.501   9.383  64.392  1.00  0.00    -0.110 C  
HETATM    8  O   UNL     1      -6.500   8.840  63.514  1.00  0.00    -0.088 OA 
HETATM    9  H   UNL     1      -6.039   9.549  63.080  1.00  0.00     0.000 HD 
BRANCH   7  10
HETATM   10  C   UNL     1      -8.463  10.265  63.584  1.00  0.00    -0.183 C  
BRANCH  10  11
HETATM   11  O   UNL     1      -9.795  10.087  64.089  1.00  0.00    -0.257 OA 
BRANCH  11  12
HETATM   12  C   UNL     1     -10.281  11.139  64.818  1.00  0.00    -0.306 A  
HETATM   13  C   UNL     1     -10.538  11.105  66.184  1.00  0.00    -0.305 A  
HETATM   14  C   UNL     1     -11.035  12.236  66.834  1.00  0.00    -0.312 A  
HETATM   15  C   UNL     1     -11.259  13.430  66.132  1.00  0.00    -0.311 A  
HETATM   16  C   UNL     1     -10.980  13.462  64.762  1.00  0.00    -0.371 A  
HETATM   17  C   UNL     1     -10.488  12.326  64.110  1.00  0.00    -0.402 A  
BRANCH  15  18
HETATM   18  C   UNL     1     -11.797  14.646  66.847  1.00  0.00    -0.345 C  
BRANCH  18  19
HETATM   19  C   UNL     1     -10.686  15.503  67.454  1.00  0.00    -0.301 C  
BRANCH  19  20
HETATM   20  O   UNL     1     -10.459  16.654  66.637  1.00  0.00    -0.298 OA 
BRANCH  20  21
HETATM   21  C   UNL     1      -9.200  17.251  66.952  1.00  0.00    -0.254 C  
BRANCH  21  22
HETATM   22  C   UNL     1      -9.393  18.717  67.164  1.00  0.00    -0.315 C  
HETATM   23  C   UNL     1     -10.127  19.526  66.122  1.00  0.00    -0.557 C  
HETATM   24  C   UNL     1     -10.757  19.286  67.465  1.00  0.00    -0.571 C  
ENDBRANCH  21  22
ENDBRANCH  20  21
ENDBRANCH  19  20
ENDBRANCH  18  19
ENDBRANCH  15  18
ENDBRANCH  11  12
ENDBRANCH  10  11
ENDBRANCH   7  10
ENDBRANCH   6   7
ENDBRANCH   4   6
ENDBRANCH   2   4
TORSDOF 11
ENDMDL
MODEL      232
REMARK 921   NORMALIZED FREE ENERGY PREDICTED BY IDOCK:   -3.38 KCAL/MOL
REMARK 922        TOTAL FREE ENERGY PREDICTED BY IDOCK:   -6.88 KCAL/MOL
REMARK 923 INTER-LIGAND FREE ENERGY PREDICTED BY IDOCK:   -5.96 KCAL/MOL
REMARK 924 INTRA-LIGAND FREE ENERGY PREDICTED BY IDOCK:   -0.92 KCAL/MOL
REMARK 927      BINDING AFFINITY PREDICTED BY RF-SCORE:    0.00 PKD
ROOT
HETATM    1  C   UNL     1     -12.148  14.243  70.394  1.00  0.00    -0.409 C  
HETATM    2  C   UNL     1     -11.482  15.618  70.288  1.00  0.00    -0.349 C  
HETATM    3  C   UNL     1     -11.552  16.325  71.643  1.00  0.00    -0.436 C  
ENDROOT
BRANCH   2   4
HETATM    4  N   UNL     1     -10.098  15.430  69.845  1.00  0.00    -0.395 NA 
HETATM    5  H   UNL     1     -10.036  14.677  69.160  1.00  0.00     0.000 HD 
BRANCH   4   6
HETATM    6  C   UNL     1      -9.482  16.661  69.325  1.00  0.00    -0.127 C  
BRANCH   6   7
HETATM    7  C   UNL     1     -10.341  17.247  68.190  1.00  0.00    -0.357 C  
HETATM    8  O   UNL     1      -9.847  18.550  67.835  1.00  0.00    -0.300 OA 
HETATM    9  H   UNL     1     -10.377  18.911  67.134  1.00  0.00     0.000 HD 
BRANCH   7  10
HETATM   10  C   UNL     1     -10.325  16.341  66.952  1.00  0.00    -0.299 C  
BRANCH  10  11
HETATM   11  O   UNL     1     -11.446  15.447  67.012  1.00  0.00    -0.246 OA 
BRANCH  11  12
HETATM   12  C   UNL     1     -11.204  14.184  66.542  1.00  0.00    -0.330 A  
HETATM   13  C   UNL     1     -12.091  13.443  65.768  1.00  0.00    -0.481 A  
HETATM   14  C   UNL     1     -11.747  12.160  65.339  1.00  0.00    -0.379 A  
HETATM   15  C   UNL     1     -10.498  11.606  65.656  1.00  0.00    -0.314 A  
HETATM   16  C   UNL     1      -9.603  12.365  66.418  1.00  0.00    -0.249 A  
HETATM   17  C   UNL     1      -9.952  13.649  66.853  1.00  0.00    -0.260 A  
BRANCH  15  18
HETATM   18  C   UNL     1     -10.138  10.217  65.185  1.00  0.00    -0.355 C  
BRANCH  18  19
HETATM   19  C   UNL     1      -9.807   9.277  66.345  1.00  0.00    -0.277 C  
BRANCH  19  20
HETATM   20  O   UNL     1      -9.240   8.065  65.841  1.00  0.00    -0.156 OA 
BRANCH  20  21
HETATM   21  C   UNL     1      -7.918   7.882  66.350  1.00  0.00    -0.102 C  
BRANCH  21  22
HETATM   22  C   UNL     1      -7.483   6.477  66.089  1.00  0.00    -0.081 C  
HETATM   23  C   UNL     1      -6.357   6.219  65.119  1.00  0.00    -0.038 C  
HETATM   24  C   UNL     1      -6.154   5.969  66.587  1.00  0.00    -0.025 C  
ENDBRANCH  21  22
ENDBRANCH  20  21
ENDBRANCH  19  20
ENDBRANCH  18  19
ENDBRANCH  15  18
ENDBRANCH  11  12
ENDBRANCH  10  11
ENDBRANCH   7  10
ENDBRANCH   6   7
ENDBRANCH   4   6
ENDBRANCH   2   4
TORSDOF 11
ENDMDL
MODEL      233
REMARK 921   NORMALIZED FREE ENERGY PREDICTED BY IDOCK:   -3.37 KCAL/MOL
REMARK 922        TOTAL FREE ENERGY PREDICTED BY IDOCK:   -6.86 KCAL/MOL
REMARK 923 INTER-LIGAND FREE ENERGY PREDICTED BY IDOCK:   -5.69 KCAL/MOL
REMARK 924 INTRA-LIGAND FREE ENERGY PREDICTED BY IDOCK:   -1.17 KCAL/MOL
REMARK 927      BINDING AFFINITY PREDICTED BY RF-SCORE:    0.00 PKD
ROOT
HETATM    1  C   UNL     1     -10.294  12.172  64.193  1.00  0.00    -0.382 C  
HETATM    2  C   UNL     1      -9.590  10.846  63.893  1.00  0.00    -0.284 C  
HETATM    3  C   UNL     1      -9.444  10.677  62.379  1.00  0.00    -0.240 C  
ENDROOT
BRANCH   2   4
HETATM    4  N   UNL     1      -8.289  10.848  64.567  1.00  0.00    -0.374 NA 
HETATM    5  H   UNL     1      -8.234  11.608  65.245  1.00  0.00     0.000 HD 
BRANCH   4   6
HETATM    6  C   UNL     1      -7.959   9.561  65.197  1.00  0.00    -0.117 C  
BRANCH   6   7
HETATM    7  C   UNL     1      -6.722   9.713  66.100  1.00  0.00    -0.083 C  
HETATM    8  O   UNL     1      -5.634  10.265  65.339  1.00  0.00    -0.074 OA 
HETATM    9  H   UNL     1      -4.870  10.359  65.897  1.00  0.00     0.000 HD 
BRANCH   7  10
HETATM   10  C   UNL     1      -7.015  10.622  67.302  1.00  0.00    -0.084 C  
BRANCH  10  11
HETATM   11  O   UNL     1      -6.757  11.984  66.930  1.00  0.00    -0.129 OA 
BRANCH  11  12
HETATM   12  C   UNL     1      -7.664  12.894  67.405  1.00  0.00    -0.159 A  
HETATM   13  C   UNL     1      -8.981  12.600  67.740  1.00  0.00    -0.189 A  
HETATM   14  C   UNL     1      -9.826  13.604  68.217  1.00  0.00    -0.232 A  
HETATM   15  C   UNL     1      -9.359  14.915  68.392  1.00  0.00    -0.197 A  
HETATM   16  C   UNL     1      -8.027  15.199  68.071  1.00  0.00    -0.136 A  
HETATM   17  C   UNL     1      -7.183  14.193  67.587  1.00  0.00    -0.195 A  
BRANCH  15  18
HETATM   18  C   UNL     1     -10.283  15.991  68.908  1.00  0.00    -0.231 C  
BRANCH  18  19
HETATM   19  C   UNL     1     -11.739  15.752  68.506  1.00  0.00    -0.319 C  
BRANCH  19  20
HETATM   20  O   UNL     1     -12.604  16.071  69.599  1.00  0.00    -0.107 OA 
BRANCH  20  21
HETATM   21  C   UNL     1     -12.350  15.207  70.707  1.00  0.00    -0.360 C  
BRANCH  21  22
HETATM   22  C   UNL     1     -12.384  16.006  71.969  1.00  0.00    -0.540 C  
HETATM   23  C   UNL     1     -13.518  15.802  72.943  1.00  0.00    -0.666 C  
HETATM   24  C   UNL     1     -12.128  15.357  73.306  1.00  0.00    -0.591 C  
ENDBRANCH  21  22
ENDBRANCH  20  21
ENDBRANCH  19  20
ENDBRANCH  18  19
ENDBRANCH  15  18
ENDBRANCH  11  12
ENDBRANCH  10  11
ENDBRANCH   7  10
ENDBRANCH   6   7
ENDBRANCH   4   6
ENDBRANCH   2   4
TORSDOF 11
ENDMDL
MODEL      234
REMARK 921   NORMALIZED FREE ENERGY PREDICTED BY IDOCK:   -3.37 KCAL/MOL
REMARK 922        TOTAL FREE ENERGY PREDICTED BY IDOCK:   -6.86 KCAL/MOL
REMARK 923 INTER-LIGAND FREE ENERGY PREDICTED BY IDOCK:   -5.57 KCAL/MOL
REMARK 924 INTRA-LIGAND FREE ENERGY PREDICTED BY IDOCK:   -1.29 KCAL/MOL
REMARK 927      BINDING AFFINITY PREDICTED BY RF-SCORE:    0.00 PKD
ROOT
HETATM    1  C   UNL     1      -7.648  10.725  65.941  1.00  0.00    -0.106 C  
HETATM    2  C   UNL     1      -8.649  11.557  66.746  1.00  0.00    -0.170 C  
HETATM    3  C   UNL     1      -7.993  12.029  68.045  1.00  0.00    -0.149 C  
ENDROOT
BRANCH   2   4
HETATM    4  N   UNL     1      -9.090  12.683  65.919  1.00  0.00    -0.427 NA 
HETATM    5  H   UNL     1      -8.577  12.707  65.038  1.00  0.00     0.000 HD 
BRANCH   4   6
HETATM    6  C   UNL     1     -10.541  12.698  65.681  1.00  0.00    -0.273 C  
BRANCH   6   7
HETATM    7  C   UNL     1     -11.236  13.626  66.692  1.00  0.00    -0.313 C  
HETATM    8  O   UNL     1     -12.193  14.453  66.009  1.00  0.00    -0.394 OA 
HETATM    9  H   UNL     1     -12.623  15.026  66.634  1.00  0.00     0.000 HD 
BRANCH   7  10
HETATM   10  C   UNL     1     -11.949  12.824  67.790  1.00  0.00    -0.260 C  
BRANCH  10  11
HETATM   11  O   UNL     1     -11.844  11.424  67.488  1.00  0.00    -0.614 OA 
BRANCH  11  12
HETATM   12  C   UNL     1     -11.485  10.631  68.544  1.00  0.00    -0.265 A  
HETATM   13  C   UNL     1     -11.677  10.958  69.883  1.00  0.00    -0.418 A  
HETATM   14  C   UNL     1     -11.275  10.075  70.886  1.00  0.00    -0.415 A  
HETATM   15  C   UNL     1     -10.695   8.838  70.568  1.00  0.00    -0.259 A  
HETATM   16  C   UNL     1     -10.523   8.508  69.219  1.00  0.00    -0.224 A  
HETATM   17  C   UNL     1     -10.921   9.396  68.214  1.00  0.00    -0.085 A  
BRANCH  15  18
HETATM   18  C   UNL     1     -10.263   7.893  71.663  1.00  0.00    -0.239 C  
BRANCH  18  19
HETATM   19  C   UNL     1     -10.529   6.430  71.307  1.00  0.00    -0.216 C  
BRANCH  19  20
HETATM   20  O   UNL     1      -9.338   5.660  71.495  1.00  0.00    -0.146 OA 
BRANCH  20  21
HETATM   21  C   UNL     1      -9.343   4.514  70.643  1.00  0.00    -0.155 C  
BRANCH  21  22
HETATM   22  C   UNL     1      -9.486   4.960  69.224  1.00  0.00    -0.206 C  
HETATM   23  C   UNL     1      -8.294   5.546  68.509  1.00  0.00    -0.101 C  
HETATM   24  C   UNL     1      -8.826   4.201  68.101  1.00  0.00    -0.134 C  
ENDBRANCH  21  22
ENDBRANCH  20  21
ENDBRANCH  19  20
ENDBRANCH  18  19
ENDBRANCH  15  18
ENDBRANCH  11  12
ENDBRANCH  10  11
ENDBRANCH   7  10
ENDBRANCH   6   7
ENDBRANCH   4   6
ENDBRANCH   2   4
TORSDOF 11
ENDMDL
MODEL      235
REMARK 921   NORMALIZED FREE ENERGY PREDICTED BY IDOCK:   -3.35 KCAL/MOL
REMARK 922        TOTAL FREE ENERGY PREDICTED BY IDOCK:   -6.83 KCAL/MOL
REMARK 923 INTER-LIGAND FREE ENERGY PREDICTED BY IDOCK:   -5.79 KCAL/MOL
REMARK 924 INTRA-LIGAND FREE ENERGY PREDICTED BY IDOCK:   -1.04 KCAL/MOL
REMARK 927      BINDING AFFINITY PREDICTED BY RF-SCORE:    0.00 PKD
ROOT
HETATM    1  C   UNL     1     -11.494  13.887  64.685  1.00  0.00    -0.386 C  
HETATM    2  C   UNL     1     -11.476  12.375  64.451  1.00  0.00    -0.347 C  
HETATM    3  C   UNL     1     -12.494  12.014  63.367  1.00  0.00    -0.625 C  
ENDROOT
BRANCH   2   4
HETATM    4  N   UNL     1     -10.117  11.979  64.072  1.00  0.00    -0.397 NA 
HETATM    5  H   UNL     1      -9.426  12.487  64.624  1.00  0.00     0.000 HD 
BRANCH   4   6
HETATM    6  C   UNL     1      -9.889  10.529  64.155  1.00  0.00    -0.337 C  
BRANCH   6   7
HETATM    7  C   UNL     1      -8.433  10.198  63.780  1.00  0.00    -0.181 C  
HETATM    8  O   UNL     1      -8.007  11.049  62.702  1.00  0.00    -0.380 OA 
HETATM    9  H   UNL     1      -7.108  10.844  62.471  1.00  0.00     0.000 HD 
BRANCH   7  10
HETATM   10  C   UNL     1      -7.491  10.382  64.978  1.00  0.00    -0.079 C  
BRANCH  10  11
HETATM   11  O   UNL     1      -8.274  10.636  66.153  1.00  0.00    -0.145 OA 
BRANCH  11  12
HETATM   12  C   UNL     1      -7.936  11.772  66.838  1.00  0.00    -0.149 A  
HETATM   13  C   UNL     1      -6.633  12.196  67.077  1.00  0.00    -0.081 A  
HETATM   14  C   UNL     1      -6.396  13.373  67.789  1.00  0.00    -0.164 A  
HETATM   15  C   UNL     1      -7.460  14.161  68.253  1.00  0.00    -0.125 A  
HETATM   16  C   UNL     1      -8.768  13.738  67.992  1.00  0.00    -0.181 A  
HETATM   17  C   UNL     1      -9.004  12.555  67.283  1.00  0.00    -0.192 A  
BRANCH  15  18
HETATM   18  C   UNL     1      -7.191  15.432  69.022  1.00  0.00    -0.153 C  
BRANCH  18  19
HETATM   19  C   UNL     1      -8.418  16.341  69.092  1.00  0.00    -0.218 C  
BRANCH  19  20
HETATM   20  O   UNL     1      -8.083  17.647  68.615  1.00  0.00    -0.278 OA 
BRANCH  20  21
HETATM   21  C   UNL     1      -8.016  17.657  67.189  1.00  0.00    -0.211 C  
BRANCH  21  22
HETATM   22  C   UNL     1      -8.084  19.069  66.705  1.00  0.00    -0.279 C  
HETATM   23  C   UNL     1      -9.398  19.619  66.209  1.00  0.00    -0.453 C  
HETATM   24  C   UNL     1      -8.811  20.126  67.496  1.00  0.00    -0.431 C  
ENDBRANCH  21  22
ENDBRANCH  20  21
ENDBRANCH  19  20
ENDBRANCH  18  19
ENDBRANCH  15  18
ENDBRANCH  11  12
ENDBRANCH  10  11
ENDBRANCH   7  10
ENDBRANCH   6   7
ENDBRANCH   4   6
ENDBRANCH   2   4
TORSDOF 11
ENDMDL
MODEL      236
REMARK 921   NORMALIZED FREE ENERGY PREDICTED BY IDOCK:   -3.34 KCAL/MOL
REMARK 922        TOTAL FREE ENERGY PREDICTED BY IDOCK:   -6.81 KCAL/MOL
REMARK 923 INTER-LIGAND FREE ENERGY PREDICTED BY IDOCK:   -5.26 KCAL/MOL
REMARK 924 INTRA-LIGAND FREE ENERGY PREDICTED BY IDOCK:   -1.55 KCAL/MOL
REMARK 927      BINDING AFFINITY PREDICTED BY RF-SCORE:    0.00 PKD
ROOT
HETATM    1  C   UNL     1      -8.316  15.372  66.714  1.00  0.00    -0.285 C  
HETATM    2  C   UNL     1      -7.034  15.408  67.549  1.00  0.00    -0.194 C  
HETATM    3  C   UNL     1      -7.287  16.192  68.839  1.00  0.00    -0.186 C  
ENDROOT
BRANCH   2   4
HETATM    4  N   UNL     1      -6.619  14.030  67.824  1.00  0.00    -0.168 NA 
HETATM    5  H   UNL     1      -6.379  13.545  66.960  1.00  0.00     0.000 HD 
BRANCH   4   6
HETATM    6  C   UNL     1      -5.522  13.936  68.799  1.00  0.00    -0.082 C  
BRANCH   6   7
HETATM    7  C   UNL     1      -5.822  12.835  69.832  1.00  0.00    -0.134 C  
HETATM    8  O   UNL     1      -6.181  13.437  71.088  1.00  0.00    -0.537 OA 
HETATM    9  H   UNL     1      -6.366  12.756  71.725  1.00  0.00     0.000 HD 
BRANCH   7  10
HETATM   10  C   UNL     1      -6.962  11.922  69.361  1.00  0.00    -0.001 C  
BRANCH  10  11
HETATM   11  O   UNL     1      -6.440  10.969  68.424  1.00  0.00    -0.056 OA 
BRANCH  11  12
HETATM   12  C   UNL     1      -7.205  10.780  67.304  1.00  0.00    -0.096 A  
HETATM   13  C   UNL     1      -8.581  10.974  67.242  1.00  0.00    -0.130 A  
HETATM   14  C   UNL     1      -9.269  10.753  66.048  1.00  0.00    -0.210 A  
HETATM   15  C   UNL     1      -8.587  10.359  64.886  1.00  0.00    -0.190 A  
HETATM   16  C   UNL     1      -7.201  10.185  64.951  1.00  0.00    -0.131 A  
HETATM   17  C   UNL     1      -6.513  10.401  66.151  1.00  0.00    -0.111 A  
BRANCH  15  18
HETATM   18  C   UNL     1      -9.343  10.124  63.601  1.00  0.00    -0.336 C  
BRANCH  18  19
HETATM   19  C   UNL     1     -10.041  11.387  63.095  1.00  0.00    -0.352 C  
BRANCH  19  20
HETATM   20  O   UNL     1     -11.390  11.418  63.566  1.00  0.00    -0.376 OA 
BRANCH  20  21
HETATM   21  C   UNL     1     -11.902  12.751  63.531  1.00  0.00    -0.546 C  
BRANCH  21  22
HETATM   22  C   UNL     1     -11.113  13.603  64.472  1.00  0.00    -0.396 C  
HETATM   23  C   UNL     1     -11.650  14.955  64.873  1.00  0.00    -0.395 C  
HETATM   24  C   UNL     1     -11.586  13.844  65.883  1.00  0.00    -0.348 C  
ENDBRANCH  21  22
ENDBRANCH  20  21
ENDBRANCH  19  20
ENDBRANCH  18  19
ENDBRANCH  15  18
ENDBRANCH  11  12
ENDBRANCH  10  11
ENDBRANCH   7  10
ENDBRANCH   6   7
ENDBRANCH   4   6
ENDBRANCH   2   4
TORSDOF 11
ENDMDL
MODEL      237
REMARK 921   NORMALIZED FREE ENERGY PREDICTED BY IDOCK:   -3.33 KCAL/MOL
REMARK 922        TOTAL FREE ENERGY PREDICTED BY IDOCK:   -6.80 KCAL/MOL
REMARK 923 INTER-LIGAND FREE ENERGY PREDICTED BY IDOCK:   -6.41 KCAL/MOL
REMARK 924 INTRA-LIGAND FREE ENERGY PREDICTED BY IDOCK:   -0.39 KCAL/MOL
REMARK 927      BINDING AFFINITY PREDICTED BY RF-SCORE:    0.00 PKD
ROOT
HETATM    1  C   UNL     1      -8.429  16.585  67.897  1.00  0.00    -0.182 C  
HETATM    2  C   UNL     1      -9.477  17.184  68.839  1.00  0.00    -0.217 C  
HETATM    3  C   UNL     1     -10.371  18.152  68.060  1.00  0.00    -0.405 C  
ENDROOT
BRANCH   2   4
HETATM    4  N   UNL     1     -10.250  16.088  69.430  1.00  0.00    -0.252 NA 
HETATM    5  H   UNL     1      -9.644  15.301  69.661  1.00  0.00     0.000 HD 
BRANCH   4   6
HETATM    6  C   UNL     1     -11.042  16.500  70.599  1.00  0.00    -0.043 C  
BRANCH   6   7
HETATM    7  C   UNL     1     -11.900  15.325  71.099  1.00  0.00    -0.348 C  
HETATM    8  O   UNL     1     -12.956  15.822  71.940  1.00  0.00    -0.444 OA 
HETATM    9  H   UNL     1     -13.486  15.096  72.249  1.00  0.00     0.000 HD 
BRANCH   7  10
HETATM   10  C   UNL     1     -12.509  14.538  69.930  1.00  0.00    -0.252 C  
BRANCH  10  11
HETATM   11  O   UNL     1     -11.499  13.693  69.360  1.00  0.00    -0.270 OA 
BRANCH  11  12
HETATM   12  C   UNL     1     -11.676  13.393  68.036  1.00  0.00    -0.356 A  
HETATM   13  C   UNL     1     -12.228  14.256  67.094  1.00  0.00    -0.312 A  
HETATM   14  C   UNL     1     -12.365  13.851  65.766  1.00  0.00    -0.518 A  
HETATM   15  C   UNL     1     -11.929  12.583  65.350  1.00  0.00    -0.492 A  
HETATM   16  C   UNL     1     -11.357  11.729  66.299  1.00  0.00    -0.350 A  
HETATM   17  C   UNL     1     -11.226  12.134  67.632  1.00  0.00    -0.345 A  
BRANCH  15  18
HETATM   18  C   UNL     1     -12.083  12.158  63.910  1.00  0.00    -0.584 C  
BRANCH  18  19
HETATM   19  C   UNL     1     -10.752  12.159  63.156  1.00  0.00    -0.173 C  
BRANCH  19  20
HETATM   20  O   UNL     1      -9.707  11.698  64.016  1.00  0.00    -0.244 OA 
BRANCH  20  21
HETATM   21  C   UNL     1      -8.935  10.687  63.367  1.00  0.00    -0.219 C  
BRANCH  21  22
HETATM   22  C   UNL     1      -8.401   9.744  64.395  1.00  0.00    -0.169 C  
HETATM   23  C   UNL     1      -7.025   9.152  64.213  1.00  0.00    -0.091 C  
HETATM   24  C   UNL     1      -7.273  10.149  65.310  1.00  0.00    -0.141 C  
ENDBRANCH  21  22
ENDBRANCH  20  21
ENDBRANCH  19  20
ENDBRANCH  18  19
ENDBRANCH  15  18
ENDBRANCH  11  12
ENDBRANCH  10  11
ENDBRANCH   7  10
ENDBRANCH   6   7
ENDBRANCH   4   6
ENDBRANCH   2   4
TORSDOF 11
ENDMDL
MODEL      238
REMARK 921   NORMALIZED FREE ENERGY PREDICTED BY IDOCK:   -3.31 KCAL/MOL
REMARK 922        TOTAL FREE ENERGY PREDICTED BY IDOCK:   -6.77 KCAL/MOL
REMARK 923 INTER-LIGAND FREE ENERGY PREDICTED BY IDOCK:   -5.72 KCAL/MOL
REMARK 924 INTRA-LIGAND FREE ENERGY PREDICTED BY IDOCK:   -1.05 KCAL/MOL
REMARK 927      BINDING AFFINITY PREDICTED BY RF-SCORE:    0.00 PKD
ROOT
HETATM    1  C   UNL     1     -13.772  13.819  72.558  1.00  0.00    -0.667 C  
HETATM    2  C   UNL     1     -12.787  14.964  72.313  1.00  0.00    -0.333 C  
HETATM    3  C   UNL     1     -12.518  15.697  73.629  1.00  0.00    -0.700 C  
ENDROOT
BRANCH   2   4
HETATM    4  N   UNL     1     -11.559  14.407  71.741  1.00  0.00    -0.274 NA 
HETATM    5  H   UNL     1     -11.756  13.545  71.232  1.00  0.00     0.000 HD 
BRANCH   4   6
HETATM    6  C   UNL     1     -10.828  15.360  70.892  1.00  0.00    -0.207 C  
BRANCH   6   7
HETATM    7  C   UNL     1     -11.474  15.432  69.497  1.00  0.00    -0.319 C  
HETATM    8  O   UNL     1     -10.857  16.483  68.734  1.00  0.00    -0.308 OA 
HETATM    9  H   UNL     1     -11.256  16.528  67.872  1.00  0.00     0.000 HD 
BRANCH   7  10
HETATM   10  C   UNL     1     -11.328  14.103  68.743  1.00  0.00    -0.278 C  
BRANCH  10  11
HETATM   11  O   UNL     1     -12.386  13.220  69.144  1.00  0.00    -0.197 OA 
BRANCH  11  12
HETATM   12  C   UNL     1     -11.973  12.025  69.670  1.00  0.00    -0.293 A  
HETATM   13  C   UNL     1     -12.700  11.267  70.582  1.00  0.00    -0.314 A  
HETATM   14  C   UNL     1     -12.188  10.059  71.058  1.00  0.00    -0.462 A  
HETATM   15  C   UNL     1     -10.949   9.576  70.611  1.00  0.00    -0.370 A  
HETATM   16  C   UNL     1     -10.232  10.335  69.679  1.00  0.00    -0.268 A  
HETATM   17  C   UNL     1     -10.744  11.549  69.207  1.00  0.00    -0.171 A  
BRANCH  15  18
HETATM   18  C   UNL     1     -10.406   8.268  71.134  1.00  0.00    -0.247 C  
BRANCH  18  19
HETATM   19  C   UNL     1      -8.975   8.002  70.664  1.00  0.00    -0.148 C  
BRANCH  19  20
HETATM   20  O   UNL     1      -8.282   7.217  71.637  1.00  0.00    -0.102 OA 
BRANCH  20  21
HETATM   21  C   UNL     1      -7.254   7.987  72.261  1.00  0.00    -0.094 C  
BRANCH  21  22
HETATM   22  C   UNL     1      -6.825   9.075  71.331  1.00  0.00    -0.073 C  
HETATM   23  C   UNL     1      -5.724  10.017  71.753  1.00  0.00     0.135 C  
HETATM   24  C   UNL     1      -5.482   9.028  70.648  1.00  0.00    -0.028 C  
ENDBRANCH  21  22
ENDBRANCH  20  21
ENDBRANCH  19  20
ENDBRANCH  18  19
ENDBRANCH  15  18
ENDBRANCH  11  12
ENDBRANCH  10  11
ENDBRANCH   7  10
ENDBRANCH   6   7
ENDBRANCH   4   6
ENDBRANCH   2   4
TORSDOF 11
ENDMDL
MODEL      239
REMARK 921   NORMALIZED FREE ENERGY PREDICTED BY IDOCK:   -3.30 KCAL/MOL
REMARK 922        TOTAL FREE ENERGY PREDICTED BY IDOCK:   -6.75 KCAL/MOL
REMARK 923 INTER-LIGAND FREE ENERGY PREDICTED BY IDOCK:   -6.09 KCAL/MOL
REMARK 924 INTRA-LIGAND FREE ENERGY PREDICTED BY IDOCK:   -0.65 KCAL/MOL
REMARK 927      BINDING AFFINITY PREDICTED BY RF-SCORE:    0.00 PKD
ROOT
HETATM    1  C   UNL     1      -7.666   7.158  70.979  1.00  0.00    -0.090 C  
HETATM    2  C   UNL     1      -7.361   6.190  72.125  1.00  0.00    -0.093 C  
HETATM    3  C   UNL     1      -6.184   6.723  72.945  1.00  0.00    -0.057 C  
ENDROOT
BRANCH   2   4
HETATM    4  N   UNL     1      -8.568   6.041  72.942  1.00  0.00    -0.124 NA 
HETATM    5  H   UNL     1      -8.678   6.834  73.573  1.00  0.00     0.000 HD 
BRANCH   4   6
HETATM    6  C   UNL     1      -9.787   5.834  72.146  1.00  0.00    -0.156 C  
BRANCH   6   7
HETATM    7  C   UNL     1     -11.026   6.271  72.948  1.00  0.00    -0.254 C  
HETATM    8  O   UNL     1     -10.642   6.577  74.299  1.00  0.00    -0.432 OA 
HETATM    9  H   UNL     1     -11.408   6.847  74.794  1.00  0.00     0.000 HD 
BRANCH   7  10
HETATM   10  C   UNL     1     -11.696   7.500  72.318  1.00  0.00    -0.304 C  
BRANCH  10  11
HETATM   11  O   UNL     1     -10.863   7.994  71.259  1.00  0.00    -0.227 OA 
BRANCH  11  12
HETATM   12  C   UNL     1     -11.197   9.237  70.793  1.00  0.00    -0.288 A  
HETATM   13  C   UNL     1     -12.215  10.031  71.312  1.00  0.00    -0.498 A  
HETATM   14  C   UNL     1     -12.475  11.288  70.762  1.00  0.00    -0.471 A  
HETATM   15  C   UNL     1     -11.704  11.783  69.699  1.00  0.00    -0.413 A  
HETATM   16  C   UNL     1     -10.670  10.987  69.195  1.00  0.00    -0.274 A  
HETATM   17  C   UNL     1     -10.414   9.724  69.743  1.00  0.00    -0.278 A  
BRANCH  15  18
HETATM   18  C   UNL     1     -11.997  13.143  69.114  1.00  0.00    -0.329 C  
BRANCH  18  19
HETATM   19  C   UNL     1     -11.321  14.271  69.895  1.00  0.00    -0.198 C  
BRANCH  19  20
HETATM   20  O   UNL     1     -10.638  15.145  68.994  1.00  0.00    -0.228 OA 
BRANCH  20  21
HETATM   21  C   UNL     1     -11.368  15.278  67.774  1.00  0.00    -0.326 C  
BRANCH  21  22
HETATM   22  C   UNL     1     -10.555  14.718  66.653  1.00  0.00    -0.299 C  
HETATM   23  C   UNL     1     -11.254  14.080  65.478  1.00  0.00    -0.311 C  
HETATM   24  C   UNL     1     -10.531  15.386  65.301  1.00  0.00    -0.440 C  
ENDBRANCH  21  22
ENDBRANCH  20  21
ENDBRANCH  19  20
ENDBRANCH  18  19
ENDBRANCH  15  18
ENDBRANCH  11  12
ENDBRANCH  10  11
ENDBRANCH   7  10
ENDBRANCH   6   7
ENDBRANCH   4   6
ENDBRANCH   2   4
TORSDOF 11
ENDMDL
MODEL      240
REMARK 921   NORMALIZED FREE ENERGY PREDICTED BY IDOCK:   -3.30 KCAL/MOL
REMARK 922        TOTAL FREE ENERGY PREDICTED BY IDOCK:   -6.74 KCAL/MOL
REMARK 923 INTER-LIGAND FREE ENERGY PREDICTED BY IDOCK:   -5.62 KCAL/MOL
REMARK 924 INTRA-LIGAND FREE ENERGY PREDICTED BY IDOCK:   -1.13 KCAL/MOL
REMARK 927      BINDING AFFINITY PREDICTED BY RF-SCORE:    0.00 PKD
ROOT
HETATM    1  C   UNL     1      -9.947   4.273  66.656  1.00  0.00    -0.202 C  
HETATM    2  C   UNL     1     -10.619   5.648  66.608  1.00  0.00    -0.295 C  
HETATM    3  C   UNL     1     -10.942   6.108  68.031  1.00  0.00    -0.399 C  
ENDROOT
BRANCH   2   4
HETATM    4  N   UNL     1      -9.720   6.581  65.926  1.00  0.00    -0.379 NA 
HETATM    5  H   UNL     1      -9.794   7.515  66.329  1.00  0.00     0.000 HD 
BRANCH   4   6
HETATM    6  C   UNL     1      -8.320   6.131  65.905  1.00  0.00    -0.140 C  
BRANCH   6   7
HETATM    7  C   UNL     1      -7.394   7.248  66.417  1.00  0.00    -0.080 C  
HETATM    8  O   UNL     1      -6.794   7.927  65.301  1.00  0.00    -0.054 OA 
HETATM    9  H   UNL     1      -6.223   8.617  65.618  1.00  0.00     0.000 HD 
BRANCH   7  10
HETATM   10  C   UNL     1      -8.162   8.261  67.276  1.00  0.00    -0.120 C  
BRANCH  10  11
HETATM   11  O   UNL     1      -7.794   9.589  66.874  1.00  0.00    -0.100 OA 
BRANCH  11  12
HETATM   12  C   UNL     1      -8.810  10.506  66.908  1.00  0.00    -0.137 A  
HETATM   13  C   UNL     1     -10.081  10.301  66.381  1.00  0.00    -0.296 A  
HETATM   14  C   UNL     1     -11.048  11.304  66.468  1.00  0.00    -0.280 A  
HETATM   15  C   UNL     1     -10.768  12.520  67.108  1.00  0.00    -0.263 A  
HETATM   16  C   UNL     1      -9.494  12.712  67.653  1.00  0.00    -0.189 A  
HETATM   17  C   UNL     1      -8.523  11.708  67.559  1.00  0.00    -0.150 A  
BRANCH  15  18
HETATM   18  C   UNL     1     -11.823  13.597  67.195  1.00  0.00    -0.435 C  
BRANCH  18  19
HETATM   19  C   UNL     1     -12.219  14.137  65.820  1.00  0.00    -0.442 C  
BRANCH  19  20
HETATM   20  O   UNL     1     -11.047  14.443  65.062  1.00  0.00    -0.340 OA 
BRANCH  20  21
HETATM   21  C   UNL     1     -10.719  15.828  65.184  1.00  0.00    -0.435 C  
BRANCH  21  22
HETATM   22  C   UNL     1      -9.444  15.964  65.950  1.00  0.00    -0.372 C  
HETATM   23  C   UNL     1      -8.994  17.331  66.403  1.00  0.00    -0.282 C  
HETATM   24  C   UNL     1      -9.452  16.319  67.415  1.00  0.00    -0.227 C  
ENDBRANCH  21  22
ENDBRANCH  20  21
ENDBRANCH  19  20
ENDBRANCH  18  19
ENDBRANCH  15  18
ENDBRANCH  11  12
ENDBRANCH  10  11
ENDBRANCH   7  10
ENDBRANCH   6   7
ENDBRANCH   4   6
ENDBRANCH   2   4
TORSDOF 11
ENDMDL
MODEL      241
REMARK 921   NORMALIZED FREE ENERGY PREDICTED BY IDOCK:   -3.30 KCAL/MOL
REMARK 922        TOTAL FREE ENERGY PREDICTED BY IDOCK:   -6.74 KCAL/MOL
REMARK 923 INTER-LIGAND FREE ENERGY PREDICTED BY IDOCK:   -5.80 KCAL/MOL
REMARK 924 INTRA-LIGAND FREE ENERGY PREDICTED BY IDOCK:   -0.94 KCAL/MOL
REMARK 927      BINDING AFFINITY PREDICTED BY RF-SCORE:    0.00 PKD
ROOT
HETATM    1  C   UNL     1      -7.459   7.096  71.501  1.00  0.00    -0.086 C  
HETATM    2  C   UNL     1      -7.348   6.002  72.566  1.00  0.00    -0.090 C  
HETATM    3  C   UNL     1      -6.257   6.376  73.571  1.00  0.00    -0.064 C  
ENDROOT
BRANCH   2   4
HETATM    4  N   UNL     1      -8.654   5.851  73.214  1.00  0.00    -0.119 NA 
HETATM    5  H   UNL     1      -8.952   6.730  73.636  1.00  0.00     0.000 HD 
BRANCH   4   6
HETATM    6  C   UNL     1      -9.692   5.324  72.315  1.00  0.00    -0.158 C  
BRANCH   6   7
HETATM    7  C   UNL     1     -11.081   5.810  72.765  1.00  0.00    -0.284 C  
HETATM    8  O   UNL     1     -10.946   6.647  73.927  1.00  0.00    -0.458 OA 
HETATM    9  H   UNL     1     -11.804   6.947  74.204  1.00  0.00     0.000 HD 
BRANCH   7  10
HETATM   10  C   UNL     1     -11.787   6.595  71.651  1.00  0.00    -0.336 C  
BRANCH  10  11
HETATM   11  O   UNL     1     -10.878   6.769  70.554  1.00  0.00    -0.234 OA 
BRANCH  11  12
HETATM   12  C   UNL     1     -10.919   8.001  69.959  1.00  0.00    -0.202 A  
HETATM   13  C   UNL     1     -10.480   8.273  68.668  1.00  0.00    -0.199 A  
HETATM   14  C   UNL     1     -10.566   9.568  68.154  1.00  0.00    -0.265 A  
HETATM   15  C   UNL     1     -11.118  10.610  68.915  1.00  0.00    -0.314 A  
HETATM   16  C   UNL     1     -11.576  10.324  70.206  1.00  0.00    -0.396 A  
HETATM   17  C   UNL     1     -11.483   9.027  70.722  1.00  0.00    -0.331 A  
BRANCH  15  18
HETATM   18  C   UNL     1     -11.206  12.006  68.347  1.00  0.00    -0.313 C  
BRANCH  18  19
HETATM   19  C   UNL     1     -11.511  12.007  66.849  1.00  0.00    -0.337 C  
BRANCH  19  20
HETATM   20  O   UNL     1     -11.831  13.333  66.420  1.00  0.00    -0.358 OA 
BRANCH  20  21
HETATM   21  C   UNL     1     -11.973  14.203  67.544  1.00  0.00    -0.384 C  
BRANCH  21  22
HETATM   22  C   UNL     1     -11.130  15.418  67.332  1.00  0.00    -0.311 C  
HETATM   23  C   UNL     1     -10.920  16.381  68.474  1.00  0.00    -0.350 C  
HETATM   24  C   UNL     1      -9.774  15.545  67.978  1.00  0.00    -0.207 C  
ENDBRANCH  21  22
ENDBRANCH  20  21
ENDBRANCH  19  20
ENDBRANCH  18  19
ENDBRANCH  15  18
ENDBRANCH  11  12
ENDBRANCH  10  11
ENDBRANCH   7  10
ENDBRANCH   6   7
ENDBRANCH   4   6
ENDBRANCH   2   4
TORSDOF 11
ENDMDL
MODEL      242
REMARK 921   NORMALIZED FREE ENERGY PREDICTED BY IDOCK:   -3.30 KCAL/MOL
REMARK 922        TOTAL FREE ENERGY PREDICTED BY IDOCK:   -6.74 KCAL/MOL
REMARK 923 INTER-LIGAND FREE ENERGY PREDICTED BY IDOCK:   -5.52 KCAL/MOL
REMARK 924 INTRA-LIGAND FREE ENERGY PREDICTED BY IDOCK:   -1.22 KCAL/MOL
REMARK 927      BINDING AFFINITY PREDICTED BY RF-SCORE:    0.00 PKD
ROOT
HETATM    1  C   UNL     1     -10.589  10.164  67.658  1.00  0.00    -0.316 C  
HETATM    2  C   UNL     1     -10.046  10.076  66.230  1.00  0.00    -0.243 C  
HETATM    3  C   UNL     1      -8.612  10.607  66.195  1.00  0.00    -0.163 C  
ENDROOT
BRANCH   2   4
HETATM    4  N   UNL     1     -10.118   8.680  65.790  1.00  0.00    -0.295 NA 
HETATM    5  H   UNL     1      -9.951   8.607  64.787  1.00  0.00     0.000 HD 
BRANCH   4   6
HETATM    6  C   UNL     1      -9.218   7.788  66.536  1.00  0.00    -0.184 C  
BRANCH   6   7
HETATM    7  C   UNL     1     -10.005   6.592  67.103  1.00  0.00    -0.160 C  
HETATM    8  O   UNL     1     -11.368   6.653  66.649  1.00  0.00    -0.688 OA 
HETATM    9  H   UNL     1     -11.853   5.915  66.999  1.00  0.00     0.000 HD 
BRANCH   7  10
HETATM   10  C   UNL     1      -9.383   5.258  66.669  1.00  0.00    -0.138 C  
BRANCH  10  11
HETATM   11  O   UNL     1      -8.242   4.984  67.495  1.00  0.00    -0.105 OA 
BRANCH  11  12
HETATM   12  C   UNL     1      -8.503   4.917  68.837  1.00  0.00    -0.082 A  
HETATM   13  C   UNL     1      -7.989   5.791  69.790  1.00  0.00    -0.100 A  
HETATM   14  C   UNL     1      -8.319   5.634  71.137  1.00  0.00    -0.122 A  
HETATM   15  C   UNL     1      -9.189   4.615  71.552  1.00  0.00    -0.186 A  
HETATM   16  C   UNL     1      -9.716   3.751  70.586  1.00  0.00    -0.235 A  
HETATM   17  C   UNL     1      -9.380   3.906  69.236  1.00  0.00    -0.242 A  
BRANCH  15  18
HETATM   18  C   UNL     1      -9.536   4.457  73.013  1.00  0.00    -0.156 C  
BRANCH  18  19
HETATM   19  C   UNL     1     -10.798   5.230  73.398  1.00  0.00    -0.302 C  
BRANCH  19  20
HETATM   20  O   UNL     1     -10.453   6.338  74.234  1.00  0.00    -0.305 OA 
BRANCH  20  21
HETATM   21  C   UNL     1     -10.224   7.507  73.446  1.00  0.00    -0.343 C  
BRANCH  21  22
HETATM   22  C   UNL     1     -11.398   7.728  72.547  1.00  0.00    -0.429 C  
HETATM   23  C   UNL     1     -11.580   9.071  71.886  1.00  0.00    -0.441 C  
HETATM   24  C   UNL     1     -11.218   7.871  71.057  1.00  0.00    -0.288 C  
ENDBRANCH  21  22
ENDBRANCH  20  21
ENDBRANCH  19  20
ENDBRANCH  18  19
ENDBRANCH  15  18
ENDBRANCH  11  12
ENDBRANCH  10  11
ENDBRANCH   7  10
ENDBRANCH   6   7
ENDBRANCH   4   6
ENDBRANCH   2   4
TORSDOF 11
ENDMDL
MODEL      243
REMARK 921   NORMALIZED FREE ENERGY PREDICTED BY IDOCK:   -3.29 KCAL/MOL
REMARK 922        TOTAL FREE ENERGY PREDICTED BY IDOCK:   -6.73 KCAL/MOL
REMARK 923 INTER-LIGAND FREE ENERGY PREDICTED BY IDOCK:   -5.36 KCAL/MOL
REMARK 924 INTRA-LIGAND FREE ENERGY PREDICTED BY IDOCK:   -1.36 KCAL/MOL
REMARK 927      BINDING AFFINITY PREDICTED BY RF-SCORE:    0.00 PKD
ROOT
HETATM    1  C   UNL     1      -9.577  16.063  68.874  1.00  0.00    -0.236 C  
HETATM    2  C   UNL     1      -8.666  16.700  67.822  1.00  0.00    -0.201 C  
HETATM    3  C   UNL     1      -7.658  17.624  68.511  1.00  0.00    -0.272 C  
ENDROOT
BRANCH   2   4
HETATM    4  N   UNL     1      -7.998  15.631  67.076  1.00  0.00    -0.215 NA 
HETATM    5  H   UNL     1      -7.855  15.903  66.103  1.00  0.00     0.000 HD 
BRANCH   4   6
HETATM    6  C   UNL     1      -6.734  15.195  67.688  1.00  0.00    -0.176 C  
BRANCH   6   7
HETATM    7  C   UNL     1      -6.832  13.720  68.115  1.00  0.00    -0.122 C  
HETATM    8  O   UNL     1      -7.040  13.641  69.536  1.00  0.00    -0.308 OA 
HETATM    9  H   UNL     1      -7.100  12.730  69.800  1.00  0.00     0.000 HD 
BRANCH   7  10
HETATM   10  C   UNL     1      -7.981  13.003  67.393  1.00  0.00    -0.172 C  
BRANCH  10  11
HETATM   11  O   UNL     1      -8.849  12.410  68.370  1.00  0.00    -0.182 OA 
BRANCH  11  12
HETATM   12  C   UNL     1      -9.139  11.089  68.160  1.00  0.00    -0.155 A  
HETATM   13  C   UNL     1      -8.213  10.053  68.231  1.00  0.00    -0.106 A  
HETATM   14  C   UNL     1      -8.612   8.736  67.999  1.00  0.00    -0.134 A  
HETATM   15  C   UNL     1      -9.952   8.429  67.717  1.00  0.00    -0.236 A  
HETATM   16  C   UNL     1     -10.881   9.473  67.666  1.00  0.00    -0.253 A  
HETATM   17  C   UNL     1     -10.478  10.794  67.893  1.00  0.00    -0.233 A  
BRANCH  15  18
HETATM   18  C   UNL     1     -10.371   7.000  67.468  1.00  0.00    -0.288 C  
BRANCH  18  19
HETATM   19  C   UNL     1     -11.108   6.392  68.662  1.00  0.00    -0.311 C  
BRANCH  19  20
HETATM   20  O   UNL     1     -10.673   7.019  69.871  1.00  0.00    -0.224 OA 
BRANCH  20  21
HETATM   21  C   UNL     1     -11.717   7.003  70.846  1.00  0.00    -0.343 C  
BRANCH  21  22
HETATM   22  C   UNL     1     -11.575   8.196  71.735  1.00  0.00    -0.342 C  
HETATM   23  C   UNL     1     -10.218   8.834  71.907  1.00  0.00    -0.415 C  
HETATM   24  C   UNL     1     -11.301   9.563  71.162  1.00  0.00    -0.440 C  
ENDBRANCH  21  22
ENDBRANCH  20  21
ENDBRANCH  19  20
ENDBRANCH  18  19
ENDBRANCH  15  18
ENDBRANCH  11  12
ENDBRANCH  10  11
ENDBRANCH   7  10
ENDBRANCH   6   7
ENDBRANCH   4   6
ENDBRANCH   2   4
TORSDOF 11
ENDMDL
MODEL      244
REMARK 921   NORMALIZED FREE ENERGY PREDICTED BY IDOCK:   -3.28 KCAL/MOL
REMARK 922        TOTAL FREE ENERGY PREDICTED BY IDOCK:   -6.72 KCAL/MOL
REMARK 923 INTER-LIGAND FREE ENERGY PREDICTED BY IDOCK:   -5.45 KCAL/MOL
REMARK 924 INTRA-LIGAND FREE ENERGY PREDICTED BY IDOCK:   -1.27 KCAL/MOL
REMARK 927      BINDING AFFINITY PREDICTED BY RF-SCORE:    0.00 PKD
ROOT
HETATM    1  C   UNL     1     -10.256   4.469  66.434  1.00  0.00    -0.249 C  
HETATM    2  C   UNL     1     -10.596   5.960  66.474  1.00  0.00    -0.201 C  
HETATM    3  C   UNL     1     -11.072   6.338  67.879  1.00  0.00    -0.360 C  
ENDROOT
BRANCH   2   4
HETATM    4  N   UNL     1      -9.407   6.719  66.082  1.00  0.00    -0.347 NA 
HETATM    5  H   UNL     1      -9.188   7.434  66.776  1.00  0.00     0.000 HD 
BRANCH   4   6
HETATM    6  C   UNL     1      -8.235   5.870  65.820  1.00  0.00    -0.130 C  
BRANCH   6   7
HETATM    7  C   UNL     1      -7.004   6.418  66.563  1.00  0.00    -0.067 C  
HETATM    8  O   UNL     1      -6.095   7.012  65.620  1.00  0.00    -0.035 OA 
HETATM    9  H   UNL     1      -5.335   7.350  66.080  1.00  0.00     0.000 HD 
BRANCH   7  10
HETATM   10  C   UNL     1      -7.404   7.465  67.612  1.00  0.00    -0.092 C  
BRANCH  10  11
HETATM   11  O   UNL     1      -6.849   8.735  67.240  1.00  0.00    -0.066 OA 
BRANCH  11  12
HETATM   12  C   UNL     1      -7.665   9.811  67.468  1.00  0.00    -0.095 A  
HETATM   13  C   UNL     1      -8.245  10.120  68.694  1.00  0.00    -0.111 A  
HETATM   14  C   UNL     1      -9.063  11.244  68.820  1.00  0.00    -0.122 A  
HETATM   15  C   UNL     1      -9.295  12.093  67.727  1.00  0.00    -0.193 A  
HETATM   16  C   UNL     1      -8.693  11.785  66.503  1.00  0.00    -0.173 A  
HETATM   17  C   UNL     1      -7.877  10.655  66.376  1.00  0.00    -0.144 A  
BRANCH  15  18
HETATM   18  C   UNL     1     -10.183  13.305  67.877  1.00  0.00    -0.233 C  
BRANCH  18  19
HETATM   19  C   UNL     1     -11.620  12.933  68.243  1.00  0.00    -0.335 C  
BRANCH  19  20
HETATM   20  O   UNL     1     -12.272  12.344  67.115  1.00  0.00    -0.492 OA 
BRANCH  20  21
HETATM   21  C   UNL     1     -12.139  13.183  65.966  1.00  0.00    -0.436 C  
BRANCH  21  22
HETATM   22  C   UNL     1     -12.301  12.354  64.734  1.00  0.00    -0.497 C  
HETATM   23  C   UNL     1     -12.048  12.978  63.384  1.00  0.00    -0.591 C  
HETATM   24  C   UNL     1     -11.105  11.936  63.916  1.00  0.00    -0.483 C  
ENDBRANCH  21  22
ENDBRANCH  20  21
ENDBRANCH  19  20
ENDBRANCH  18  19
ENDBRANCH  15  18
ENDBRANCH  11  12
ENDBRANCH  10  11
ENDBRANCH   7  10
ENDBRANCH   6   7
ENDBRANCH   4   6
ENDBRANCH   2   4
TORSDOF 11
ENDMDL
MODEL      245
REMARK 921   NORMALIZED FREE ENERGY PREDICTED BY IDOCK:   -3.28 KCAL/MOL
REMARK 922        TOTAL FREE ENERGY PREDICTED BY IDOCK:   -6.71 KCAL/MOL
REMARK 923 INTER-LIGAND FREE ENERGY PREDICTED BY IDOCK:   -6.05 KCAL/MOL
REMARK 924 INTRA-LIGAND FREE ENERGY PREDICTED BY IDOCK:   -0.66 KCAL/MOL
REMARK 927      BINDING AFFINITY PREDICTED BY RF-SCORE:    0.00 PKD
ROOT
HETATM    1  C   UNL     1      -9.549   3.411  64.106  1.00  0.00    -0.146 C  
HETATM    2  C   UNL     1      -8.714   4.523  64.746  1.00  0.00    -0.146 C  
HETATM    3  C   UNL     1      -7.806   5.153  63.687  1.00  0.00    -0.088 C  
ENDROOT
BRANCH   2   4
HETATM    4  N   UNL     1      -9.624   5.507  65.336  1.00  0.00    -0.363 NA 
HETATM    5  H   UNL     1     -10.539   5.470  64.887  1.00  0.00     0.000 HD 
BRANCH   4   6
HETATM    6  C   UNL     1      -9.753   5.379  66.796  1.00  0.00    -0.157 C  
BRANCH   6   7
HETATM    7  C   UNL     1      -9.177   6.624  67.492  1.00  0.00    -0.114 C  
HETATM    8  O   UNL     1      -7.763   6.704  67.244  1.00  0.00    -0.101 OA 
HETATM    9  H   UNL     1      -7.407   7.474  67.674  1.00  0.00     0.000 HD 
BRANCH   7  10
HETATM   10  C   UNL     1      -9.855   7.908  66.994  1.00  0.00    -0.225 C  
BRANCH  10  11
HETATM   11  O   UNL     1      -8.944   9.006  67.147  1.00  0.00    -0.128 OA 
BRANCH  11  12
HETATM   12  C   UNL     1      -9.531  10.205  67.452  1.00  0.00    -0.153 A  
HETATM   13  C   UNL     1      -8.847  11.408  67.600  1.00  0.00    -0.139 A  
HETATM   14  C   UNL     1      -9.542  12.577  67.912  1.00  0.00    -0.206 A  
HETATM   15  C   UNL     1     -10.938  12.569  68.056  1.00  0.00    -0.266 A  
HETATM   16  C   UNL     1     -11.620  11.360  67.886  1.00  0.00    -0.337 A  
HETATM   17  C   UNL     1     -10.922  10.187  67.579  1.00  0.00    -0.319 A  
BRANCH  15  18
HETATM   18  C   UNL     1     -11.677  13.841  68.394  1.00  0.00    -0.393 C  
BRANCH  18  19
HETATM   19  C   UNL     1     -10.902  14.723  69.374  1.00  0.00    -0.255 C  
BRANCH  19  20
HETATM   20  O   UNL     1     -11.539  14.702  70.654  1.00  0.00    -0.278 OA 
BRANCH  20  21
HETATM   21  C   UNL     1     -12.386  15.841  70.811  1.00  0.00    -0.390 C  
BRANCH  21  22
HETATM   22  C   UNL     1     -13.476  15.511  71.778  1.00  0.00    -0.576 C  
HETATM   23  C   UNL     1     -13.667  14.081  72.218  1.00  0.00    -0.646 C  
HETATM   24  C   UNL     1     -13.160  15.105  73.195  1.00  0.00    -0.625 C  
ENDBRANCH  21  22
ENDBRANCH  20  21
ENDBRANCH  19  20
ENDBRANCH  18  19
ENDBRANCH  15  18
ENDBRANCH  11  12
ENDBRANCH  10  11
ENDBRANCH   7  10
ENDBRANCH   6   7
ENDBRANCH   4   6
ENDBRANCH   2   4
TORSDOF 11
ENDMDL
MODEL      246
REMARK 921   NORMALIZED FREE ENERGY PREDICTED BY IDOCK:   -3.27 KCAL/MOL
REMARK 922        TOTAL FREE ENERGY PREDICTED BY IDOCK:   -6.69 KCAL/MOL
REMARK 923 INTER-LIGAND FREE ENERGY PREDICTED BY IDOCK:   -6.01 KCAL/MOL
REMARK 924 INTRA-LIGAND FREE ENERGY PREDICTED BY IDOCK:   -0.68 KCAL/MOL
REMARK 927      BINDING AFFINITY PREDICTED BY RF-SCORE:    0.00 PKD
ROOT
HETATM    1  C   UNL     1     -11.902  15.836  69.590  1.00  0.00    -0.352 C  
HETATM    2  C   UNL     1     -11.256  16.259  68.268  1.00  0.00    -0.324 C  
HETATM    3  C   UNL     1      -9.937  16.981  68.552  1.00  0.00    -0.293 C  
ENDROOT
BRANCH   2   4
HETATM    4  N   UNL     1     -11.055  15.063  67.446  1.00  0.00    -0.316 NA 
HETATM    5  H   UNL     1     -10.070  14.798  67.428  1.00  0.00     0.000 HD 
BRANCH   4   6
HETATM    6  C   UNL     1     -11.894  13.927  67.857  1.00  0.00    -0.378 C  
BRANCH   6   7
HETATM    7  C   UNL     1     -11.105  12.995  68.793  1.00  0.00    -0.270 C  
HETATM    8  O   UNL     1     -12.019  12.266  69.631  1.00  0.00    -0.306 OA 
HETATM    9  H   UNL     1     -11.532  11.691  70.209  1.00  0.00     0.000 HD 
BRANCH   7  10
HETATM   10  C   UNL     1     -10.242  12.004  67.999  1.00  0.00    -0.198 C  
BRANCH  10  11
HETATM   11  O   UNL     1     -11.064  10.910  67.568  1.00  0.00    -0.279 OA 
BRANCH  11  12
HETATM   12  C   UNL     1     -10.544   9.666  67.808  1.00  0.00    -0.264 A  
HETATM   13  C   UNL     1     -10.660   8.579  66.948  1.00  0.00    -0.279 A  
HETATM   14  C   UNL     1     -10.090   7.351  67.287  1.00  0.00    -0.296 A  
HETATM   15  C   UNL     1      -9.372   7.196  68.482  1.00  0.00    -0.136 A  
HETATM   16  C   UNL     1      -9.242   8.299  69.333  1.00  0.00    -0.155 A  
HETATM   17  C   UNL     1      -9.819   9.528  68.994  1.00  0.00    -0.178 A  
BRANCH  15  18
HETATM   18  C   UNL     1      -8.760   5.862  68.837  1.00  0.00    -0.116 C  
BRANCH  18  19
HETATM   19  C   UNL     1      -9.811   4.831  69.251  1.00  0.00    -0.199 C  
BRANCH  19  20
HETATM   20  O   UNL     1     -10.866   5.474  69.972  1.00  0.00    -0.317 OA 
BRANCH  20  21
HETATM   21  C   UNL     1     -10.610   5.431  71.376  1.00  0.00    -0.212 C  
BRANCH  21  22
HETATM   22  C   UNL     1     -11.647   6.239  72.087  1.00  0.00    -0.367 C  
HETATM   23  C   UNL     1     -11.411   7.712  72.314  1.00  0.00    -0.355 C  
HETATM   24  C   UNL     1     -12.474   7.263  71.351  1.00  0.00    -0.418 C  
ENDBRANCH  21  22
ENDBRANCH  20  21
ENDBRANCH  19  20
ENDBRANCH  18  19
ENDBRANCH  15  18
ENDBRANCH  11  12
ENDBRANCH  10  11
ENDBRANCH   7  10
ENDBRANCH   6   7
ENDBRANCH   4   6
ENDBRANCH   2   4
TORSDOF 11
ENDMDL
MODEL      247
REMARK 921   NORMALIZED FREE ENERGY PREDICTED BY IDOCK:   -3.26 KCAL/MOL
REMARK 922        TOTAL FREE ENERGY PREDICTED BY IDOCK:   -6.68 KCAL/MOL
REMARK 923 INTER-LIGAND FREE ENERGY PREDICTED BY IDOCK:   -5.41 KCAL/MOL
REMARK 924 INTRA-LIGAND FREE ENERGY PREDICTED BY IDOCK:   -1.27 KCAL/MOL
REMARK 927      BINDING AFFINITY PREDICTED BY RF-SCORE:    0.00 PKD
ROOT
HETATM    1  C   UNL     1      -9.886  10.907  63.312  1.00  0.00    -0.409 C  
HETATM    2  C   UNL     1      -9.634  10.866  64.822  1.00  0.00    -0.252 C  
HETATM    3  C   UNL     1     -10.488  11.932  65.511  1.00  0.00    -0.309 C  
ENDROOT
BRANCH   2   4
HETATM    4  N   UNL     1      -9.947   9.520  65.309  1.00  0.00    -0.404 NA 
HETATM    5  H   UNL     1      -9.144   8.901  65.205  1.00  0.00     0.000 HD 
BRANCH   4   6
HETATM    6  C   UNL     1     -10.444   9.504  66.693  1.00  0.00    -0.171 C  
BRANCH   6   7
HETATM    7  C   UNL     1     -10.514   8.058  67.215  1.00  0.00    -0.314 C  
HETATM    8  O   UNL     1     -10.237   7.143  66.141  1.00  0.00    -0.425 OA 
HETATM    9  H   UNL     1     -10.281   6.250  66.464  1.00  0.00     0.000 HD 
BRANCH   7  10
HETATM   10  C   UNL     1      -9.512   7.825  68.353  1.00  0.00    -0.147 C  
BRANCH  10  11
HETATM   11  O   UNL     1     -10.025   8.417  69.556  1.00  0.00    -0.182 OA 
BRANCH  11  12
HETATM   12  C   UNL     1     -10.315   7.530  70.558  1.00  0.00    -0.215 A  
HETATM   13  C   UNL     1     -11.575   6.992  70.800  1.00  0.00    -0.381 A  
HETATM   14  C   UNL     1     -11.765   6.093  71.851  1.00  0.00    -0.337 A  
HETATM   15  C   UNL     1     -10.692   5.697  72.663  1.00  0.00    -0.285 A  
HETATM   16  C   UNL     1      -9.424   6.228  72.402  1.00  0.00    -0.146 A  
HETATM   17  C   UNL     1      -9.236   7.134  71.351  1.00  0.00    -0.150 A  
BRANCH  15  18
HETATM   18  C   UNL     1     -10.911   4.725  73.797  1.00  0.00    -0.371 C  
BRANCH  18  19
HETATM   19  C   UNL     1     -10.149   3.415  73.596  1.00  0.00    -0.124 C  
BRANCH  19  20
HETATM   20  O   UNL     1     -10.402   2.900  72.287  1.00  0.00    -0.143 OA 
BRANCH  20  21
HETATM   21  C   UNL     1      -9.229   2.284  71.755  1.00  0.00    -0.096 C  
BRANCH  21  22
HETATM   22  C   UNL     1      -8.750   3.075  70.581  1.00  0.00    -0.131 C  
HETATM   23  C   UNL     1      -9.092   2.610  69.187  1.00  0.00    -0.189 C  
HETATM   24  C   UNL     1      -9.713   3.865  69.732  1.00  0.00    -0.227 C  
ENDBRANCH  21  22
ENDBRANCH  20  21
ENDBRANCH  19  20
ENDBRANCH  18  19
ENDBRANCH  15  18
ENDBRANCH  11  12
ENDBRANCH  10  11
ENDBRANCH   7  10
ENDBRANCH   6   7
ENDBRANCH   4   6
ENDBRANCH   2   4
TORSDOF 11
ENDMDL
MODEL      248
REMARK 921   NORMALIZED FREE ENERGY PREDICTED BY IDOCK:   -3.26 KCAL/MOL
REMARK 922        TOTAL FREE ENERGY PREDICTED BY IDOCK:   -6.68 KCAL/MOL
REMARK 923 INTER-LIGAND FREE ENERGY PREDICTED BY IDOCK:   -6.04 KCAL/MOL
REMARK 924 INTRA-LIGAND FREE ENERGY PREDICTED BY IDOCK:   -0.63 KCAL/MOL
REMARK 927      BINDING AFFINITY PREDICTED BY RF-SCORE:    0.00 PKD
ROOT
HETATM    1  C   UNL     1     -10.651   3.044  63.543  1.00  0.00    -0.237 C  
HETATM    2  C   UNL     1      -9.639   3.989  64.196  1.00  0.00    -0.163 C  
HETATM    3  C   UNL     1      -8.878   4.751  63.109  1.00  0.00    -0.117 C  
ENDROOT
BRANCH   2   4
HETATM    4  N   UNL     1     -10.361   4.897  65.091  1.00  0.00    -0.423 NA 
HETATM    5  H   UNL     1     -11.362   4.878  64.894  1.00  0.00     0.000 HD 
BRANCH   4   6
HETATM    6  C   UNL     1     -10.103   4.636  66.515  1.00  0.00    -0.250 C  
BRANCH   6   7
HETATM    7  C   UNL     1      -9.557   5.903  67.197  1.00  0.00    -0.127 C  
HETATM    8  O   UNL     1      -8.210   6.146  66.754  1.00  0.00    -0.108 OA 
HETATM    9  H   UNL     1      -7.874   6.929  67.175  1.00  0.00     0.000 HD 
BRANCH   7  10
HETATM   10  C   UNL     1     -10.426   7.128  66.880  1.00  0.00    -0.294 C  
BRANCH  10  11
HETATM   11  O   UNL     1      -9.597   8.156  66.320  1.00  0.00    -0.217 OA 
BRANCH  11  12
HETATM   12  C   UNL     1     -10.095   9.426  66.434  1.00  0.00    -0.262 A  
HETATM   13  C   UNL     1     -10.226  10.325  65.380  1.00  0.00    -0.312 A  
HETATM   14  C   UNL     1     -10.747  11.600  65.603  1.00  0.00    -0.330 A  
HETATM   15  C   UNL     1     -11.171  11.990  66.882  1.00  0.00    -0.375 A  
HETATM   16  C   UNL     1     -11.054  11.075  67.934  1.00  0.00    -0.347 A  
HETATM   17  C   UNL     1     -10.526   9.799  67.709  1.00  0.00    -0.297 A  
BRANCH  15  18
HETATM   18  C   UNL     1     -11.733  13.373  67.111  1.00  0.00    -0.424 C  
BRANCH  18  19
HETATM   19  C   UNL     1     -11.262  14.375  66.057  1.00  0.00    -0.333 C  
BRANCH  19  20
HETATM   20  O   UNL     1     -10.282  15.250  66.622  1.00  0.00    -0.259 OA 
BRANCH  20  21
HETATM   21  C   UNL     1     -10.397  16.558  66.061  1.00  0.00    -0.345 C  
BRANCH  21  22
HETATM   22  C   UNL     1      -9.375  17.450  66.688  1.00  0.00    -0.279 C  
HETATM   23  C   UNL     1      -8.461  16.896  67.752  1.00  0.00    -0.198 C  
HETATM   24  C   UNL     1      -7.906  17.267  66.406  1.00  0.00    -0.345 C  
ENDBRANCH  21  22
ENDBRANCH  20  21
ENDBRANCH  19  20
ENDBRANCH  18  19
ENDBRANCH  15  18
ENDBRANCH  11  12
ENDBRANCH  10  11
ENDBRANCH   7  10
ENDBRANCH   6   7
ENDBRANCH   4   6
ENDBRANCH   2   4
TORSDOF 11
ENDMDL
MODEL      249
REMARK 921   NORMALIZED FREE ENERGY PREDICTED BY IDOCK:   -3.23 KCAL/MOL
REMARK 922        TOTAL FREE ENERGY PREDICTED BY IDOCK:   -6.63 KCAL/MOL
REMARK 923 INTER-LIGAND FREE ENERGY PREDICTED BY IDOCK:   -5.46 KCAL/MOL
REMARK 924 INTRA-LIGAND FREE ENERGY PREDICTED BY IDOCK:   -1.17 KCAL/MOL
REMARK 927      BINDING AFFINITY PREDICTED BY RF-SCORE:    0.00 PKD
ROOT
HETATM    1  C   UNL     1     -10.874  11.751  63.659  1.00  0.00    -0.508 C  
HETATM    2  C   UNL     1      -9.876  10.647  64.018  1.00  0.00    -0.338 C  
HETATM    3  C   UNL     1      -9.405   9.950  62.740  1.00  0.00    -0.237 C  
ENDROOT
BRANCH   2   4
HETATM    4  N   UNL     1      -8.760  11.250  64.751  1.00  0.00    -0.371 NA 
HETATM    5  H   UNL     1      -9.089  11.701  65.604  1.00  0.00     0.000 HD 
BRANCH   4   6
HETATM    6  C   UNL     1      -7.677  10.300  65.046  1.00  0.00    -0.129 C  
BRANCH   6   7
HETATM    7  C   UNL     1      -6.936  10.720  66.328  1.00  0.00    -0.134 C  
HETATM    8  O   UNL     1      -6.990  12.150  66.469  1.00  0.00    -0.362 OA 
HETATM    9  H   UNL     1      -6.532  12.408  67.261  1.00  0.00     0.000 HD 
BRANCH   7  10
HETATM   10  C   UNL     1      -7.551  10.061  67.570  1.00  0.00    -0.091 C  
BRANCH  10  11
HETATM   11  O   UNL     1      -8.921  10.471  67.686  1.00  0.00    -0.137 OA 
BRANCH  11  12
HETATM   12  C   UNL     1      -9.622   9.868  68.696  1.00  0.00    -0.156 A  
HETATM   13  C   UNL     1      -9.399   8.572  69.151  1.00  0.00    -0.153 A  
HETATM   14  C   UNL     1     -10.172   8.050  70.189  1.00  0.00    -0.203 A  
HETATM   15  C   UNL     1     -11.164   8.824  70.809  1.00  0.00    -0.309 A  
HETATM   16  C   UNL     1     -11.369  10.133  70.359  1.00  0.00    -0.401 A  
HETATM   17  C   UNL     1     -10.598  10.653  69.313  1.00  0.00    -0.263 A  
BRANCH  15  18
HETATM   18  C   UNL     1     -11.993   8.247  71.931  1.00  0.00    -0.383 C  
BRANCH  18  19
HETATM   19  C   UNL     1     -12.267   6.754  71.744  1.00  0.00    -0.358 C  
BRANCH  19  20
HETATM   20  O   UNL     1     -11.908   6.041  72.930  1.00  0.00    -0.106 OA 
BRANCH  20  21
HETATM   21  C   UNL     1     -10.524   5.690  72.903  1.00  0.00    -0.214 C  
BRANCH  21  22
HETATM   22  C   UNL     1     -10.267   4.802  71.729  1.00  0.00    -0.258 C  
HETATM   23  C   UNL     1      -8.878   4.728  71.146  1.00  0.00    -0.147 C  
HETATM   24  C   UNL     1      -9.450   3.543  71.871  1.00  0.00    -0.206 C  
ENDBRANCH  21  22
ENDBRANCH  20  21
ENDBRANCH  19  20
ENDBRANCH  18  19
ENDBRANCH  15  18
ENDBRANCH  11  12
ENDBRANCH  10  11
ENDBRANCH   7  10
ENDBRANCH   6   7
ENDBRANCH   4   6
ENDBRANCH   2   4
TORSDOF 11
ENDMDL
MODEL      250
REMARK 921   NORMALIZED FREE ENERGY PREDICTED BY IDOCK:   -3.23 KCAL/MOL
REMARK 922        TOTAL FREE ENERGY PREDICTED BY IDOCK:   -6.63 KCAL/MOL
REMARK 923 INTER-LIGAND FREE ENERGY PREDICTED BY IDOCK:   -5.77 KCAL/MOL
REMARK 924 INTRA-LIGAND FREE ENERGY PREDICTED BY IDOCK:   -0.86 KCAL/MOL
REMARK 927      BINDING AFFINITY PREDICTED BY RF-SCORE:    0.00 PKD
ROOT
HETATM    1  C   UNL     1     -10.024  15.069  66.862  1.00  0.00    -0.247 C  
HETATM    2  C   UNL     1     -11.532  15.334  66.839  1.00  0.00    -0.143 C  
HETATM    3  C   UNL     1     -12.165  14.579  65.669  1.00  0.00    -0.279 C  
ENDROOT
BRANCH   2   4
HETATM    4  N   UNL     1     -12.096  14.915  68.125  1.00  0.00    -0.562 NA 
HETATM    5  H   UNL     1     -12.242  13.906  68.144  1.00  0.00     0.000 HD 
BRANCH   4   6
HETATM    6  C   UNL     1     -11.298  15.350  69.281  1.00  0.00    -0.315 C  
BRANCH   6   7
HETATM    7  C   UNL     1     -12.102  15.169  70.580  1.00  0.00    -0.329 C  
HETATM    8  O   UNL     1     -13.482  15.496  70.343  1.00  0.00    -0.791 OA 
HETATM    9  H   UNL     1     -13.978  15.384  71.146  1.00  0.00     0.000 HD 
BRANCH   7  10
HETATM   10  C   UNL     1     -12.003  13.729  71.104  1.00  0.00    -0.052 C  
BRANCH  10  11
HETATM   11  O   UNL     1     -12.489  12.831  70.096  1.00  0.00    -0.185 OA 
BRANCH  11  12
HETATM   12  C   UNL     1     -11.853  11.620  70.045  1.00  0.00    -0.355 A  
HETATM   13  C   UNL     1     -11.031  11.200  69.004  1.00  0.00    -0.286 A  
HETATM   14  C   UNL     1     -10.428   9.942  69.049  1.00  0.00    -0.227 A  
HETATM   15  C   UNL     1     -10.617   9.092  70.149  1.00  0.00    -0.250 A  
HETATM   16  C   UNL     1     -11.430   9.529  71.201  1.00  0.00    -0.430 A  
HETATM   17  C   UNL     1     -12.039  10.789  71.151  1.00  0.00    -0.415 A  
BRANCH  15  18
HETATM   18  C   UNL     1      -9.959   7.734  70.186  1.00  0.00    -0.186 C  
BRANCH  18  19
HETATM   19  C   UNL     1     -10.409   6.837  69.032  1.00  0.00    -0.195 C  
BRANCH  19  20
HETATM   20  O   UNL     1      -9.695   7.181  67.842  1.00  0.00    -0.135 OA 
BRANCH  20  21
HETATM   21  C   UNL     1      -8.291   6.994  68.029  1.00  0.00    -0.119 C  
BRANCH  21  22
HETATM   22  C   UNL     1      -7.552   7.746  66.970  1.00  0.00    -0.100 C  
HETATM   23  C   UNL     1      -6.711   6.987  65.974  1.00  0.00    -0.053 C  
HETATM   24  C   UNL     1      -7.973   7.668  65.525  1.00  0.00    -0.120 C  
ENDBRANCH  21  22
ENDBRANCH  20  21
ENDBRANCH  19  20
ENDBRANCH  18  19
ENDBRANCH  15  18
ENDBRANCH  11  12
ENDBRANCH  10  11
ENDBRANCH   7  10
ENDBRANCH   6   7
ENDBRANCH   4   6
ENDBRANCH   2   4
TORSDOF 11
ENDMDL
MODEL      251
REMARK 921   NORMALIZED FREE ENERGY PREDICTED BY IDOCK:   -3.20 KCAL/MOL
REMARK 922        TOTAL FREE ENERGY PREDICTED BY IDOCK:   -6.59 KCAL/MOL
REMARK 923 INTER-LIGAND FREE ENERGY PREDICTED BY IDOCK:   -5.70 KCAL/MOL
REMARK 924 INTRA-LIGAND FREE ENERGY PREDICTED BY IDOCK:   -0.88 KCAL/MOL
REMARK 927      BINDING AFFINITY PREDICTED BY RF-SCORE:    0.00 PKD
ROOT
HETATM    1  C   UNL     1     -11.134   7.367  70.863  1.00  0.00    -0.283 C  
HETATM    2  C   UNL     1     -10.663   8.535  69.994  1.00  0.00    -0.232 C  
HETATM    3  C   UNL     1      -9.549   9.294  70.719  1.00  0.00    -0.341 C  
ENDROOT
BRANCH   2   4
HETATM    4  N   UNL     1     -10.209   8.004  68.707  1.00  0.00    -0.203 NA 
HETATM    5  H   UNL     1     -10.927   8.121  67.993  1.00  0.00     0.000 HD 
BRANCH   4   6
HETATM    6  C   UNL     1      -8.930   8.577  68.259  1.00  0.00    -0.139 C  
BRANCH   6   7
HETATM    7  C   UNL     1      -8.916   8.713  66.726  1.00  0.00    -0.141 C  
HETATM    8  O   UNL     1      -9.972   7.917  66.162  1.00  0.00    -0.466 OA 
HETATM    9  H   UNL     1      -9.963   8.001  65.215  1.00  0.00     0.000 HD 
BRANCH   7  10
HETATM   10  C   UNL     1      -9.094  10.175  66.293  1.00  0.00    -0.154 C  
BRANCH  10  11
HETATM   11  O   UNL     1     -10.457  10.565  66.515  1.00  0.00    -0.241 OA 
BRANCH  11  12
HETATM   12  C   UNL     1     -10.622  11.835  67.000  1.00  0.00    -0.232 A  
HETATM   13  C   UNL     1     -11.378  12.827  66.383  1.00  0.00    -0.369 A  
HETATM   14  C   UNL     1     -11.483  14.092  66.962  1.00  0.00    -0.370 A  
HETATM   15  C   UNL     1     -10.853  14.381  68.182  1.00  0.00    -0.251 A  
HETATM   16  C   UNL     1     -10.111  13.372  68.806  1.00  0.00    -0.094 A  
HETATM   17  C   UNL     1     -10.001  12.106  68.221  1.00  0.00    -0.212 A  
BRANCH  15  18
HETATM   18  C   UNL     1     -10.974  15.754  68.798  1.00  0.00    -0.291 C  
BRANCH  18  19
HETATM   19  C   UNL     1      -9.622  16.454  68.931  1.00  0.00    -0.252 C  
BRANCH  19  20
HETATM   20  O   UNL     1      -9.656  17.711  68.251  1.00  0.00    -0.281 OA 
BRANCH  20  21
HETATM   21  C   UNL     1      -8.343  18.265  68.155  1.00  0.00    -0.284 C  
BRANCH  21  22
HETATM   22  C   UNL     1      -8.074  18.645  66.736  1.00  0.00    -0.275 C  
HETATM   23  C   UNL     1      -8.626  19.942  66.199  1.00  0.00    -0.348 C  
HETATM   24  C   UNL     1      -7.145  19.784  66.399  1.00  0.00    -0.248 C  
ENDBRANCH  21  22
ENDBRANCH  20  21
ENDBRANCH  19  20
ENDBRANCH  18  19
ENDBRANCH  15  18
ENDBRANCH  11  12
ENDBRANCH  10  11
ENDBRANCH   7  10
ENDBRANCH   6   7
ENDBRANCH   4   6
ENDBRANCH   2   4
TORSDOF 11
ENDMDL
MODEL      252
REMARK 921   NORMALIZED FREE ENERGY PREDICTED BY IDOCK:   -3.20 KCAL/MOL
REMARK 922        TOTAL FREE ENERGY PREDICTED BY IDOCK:   -6.58 KCAL/MOL
REMARK 923 INTER-LIGAND FREE ENERGY PREDICTED BY IDOCK:   -5.75 KCAL/MOL
REMARK 924 INTRA-LIGAND FREE ENERGY PREDICTED BY IDOCK:   -0.82 KCAL/MOL
REMARK 927      BINDING AFFINITY PREDICTED BY RF-SCORE:    0.00 PKD
ROOT
HETATM    1  C   UNL     1     -13.766  14.427  72.578  1.00  0.00    -0.589 C  
HETATM    2  C   UNL     1     -13.186  15.491  71.643  1.00  0.00    -0.492 C  
HETATM    3  C   UNL     1     -11.758  15.828  72.076  1.00  0.00    -0.572 C  
ENDROOT
BRANCH   2   4
HETATM    4  N   UNL     1     -13.230  14.979  70.271  1.00  0.00    -0.638 NA 
HETATM    5  H   UNL     1     -13.884  15.518  69.704  1.00  0.00     0.000 HD 
BRANCH   4   6
HETATM    6  C   UNL     1     -11.908  14.918  69.630  1.00  0.00    -0.318 C  
BRANCH   6   7
HETATM    7  C   UNL     1     -11.980  14.076  68.343  1.00  0.00    -0.343 C  
HETATM    8  O   UNL     1     -10.846  14.372  67.510  1.00  0.00    -0.274 OA 
HETATM    9  H   UNL     1     -10.891  13.853  66.715  1.00  0.00     0.000 HD 
BRANCH   7  10
HETATM   10  C   UNL     1     -12.002  12.574  68.658  1.00  0.00    -0.224 C  
BRANCH  10  11
HETATM   11  O   UNL     1     -11.180  11.885  67.704  1.00  0.00    -0.239 OA 
BRANCH  11  12
HETATM   12  C   UNL     1     -10.847  10.603  68.048  1.00  0.00    -0.261 A  
HETATM   13  C   UNL     1     -11.404   9.896  69.108  1.00  0.00    -0.088 A  
HETATM   14  C   UNL     1     -10.993   8.589  69.375  1.00  0.00    -0.020 A  
HETATM   15  C   UNL     1     -10.035   7.957  68.569  1.00  0.00    -0.200 A  
HETATM   16  C   UNL     1      -9.493   8.668  67.493  1.00  0.00    -0.181 A  
HETATM   17  C   UNL     1      -9.901   9.980  67.230  1.00  0.00    -0.225 A  
BRANCH  15  18
HETATM   18  C   UNL     1      -9.598   6.543  68.868  1.00  0.00    -0.128 C  
BRANCH  18  19
HETATM   19  C   UNL     1      -8.153   6.471  69.361  1.00  0.00    -0.119 C  
BRANCH  19  20
HETATM   20  O   UNL     1      -8.120   6.556  70.788  1.00  0.00    -0.116 OA 
BRANCH  20  21
HETATM   21  C   UNL     1      -7.991   5.256  71.363  1.00  0.00    -0.114 C  
BRANCH  21  22
HETATM   22  C   UNL     1      -8.936   5.134  72.515  1.00  0.00    -0.136 C  
HETATM   23  C   UNL     1     -10.321   5.721  72.400  1.00  0.00    -0.238 C  
HETATM   24  C   UNL     1     -10.140   4.230  72.439  1.00  0.00    -0.240 C  
ENDBRANCH  21  22
ENDBRANCH  20  21
ENDBRANCH  19  20
ENDBRANCH  18  19
ENDBRANCH  15  18
ENDBRANCH  11  12
ENDBRANCH  10  11
ENDBRANCH   7  10
ENDBRANCH   6   7
ENDBRANCH   4   6
ENDBRANCH   2   4
TORSDOF 11
ENDMDL
MODEL      253
REMARK 921   NORMALIZED FREE ENERGY PREDICTED BY IDOCK:   -3.19 KCAL/MOL
REMARK 922        TOTAL FREE ENERGY PREDICTED BY IDOCK:   -6.56 KCAL/MOL
REMARK 923 INTER-LIGAND FREE ENERGY PREDICTED BY IDOCK:   -5.76 KCAL/MOL
REMARK 924 INTRA-LIGAND FREE ENERGY PREDICTED BY IDOCK:   -0.81 KCAL/MOL
REMARK 927      BINDING AFFINITY PREDICTED BY RF-SCORE:    0.00 PKD
ROOT
HETATM    1  C   UNL     1      -9.421  16.443  68.396  1.00  0.00    -0.220 C  
HETATM    2  C   UNL     1      -9.510  16.401  66.869  1.00  0.00    -0.235 C  
HETATM    3  C   UNL     1      -8.151  16.768  66.268  1.00  0.00    -0.365 C  
ENDROOT
BRANCH   2   4
HETATM    4  N   UNL     1      -9.936  15.058  66.466  1.00  0.00    -0.253 NA 
HETATM    5  H   UNL     1     -10.244  14.518  67.274  1.00  0.00     0.000 HD 
BRANCH   4   6
HETATM    6  C   UNL     1     -10.969  15.066  65.418  1.00  0.00    -0.373 C  
BRANCH   6   7
HETATM    7  C   UNL     1     -12.164  14.196  65.845  1.00  0.00    -0.439 C  
HETATM    8  O   UNL     1     -12.442  13.223  64.824  1.00  0.00    -0.495 OA 
HETATM    9  H   UNL     1     -13.181  12.686  65.088  1.00  0.00     0.000 HD 
BRANCH   7  10
HETATM   10  C   UNL     1     -11.887  13.476  67.172  1.00  0.00    -0.387 C  
BRANCH  10  11
HETATM   11  O   UNL     1     -12.144  12.074  67.005  1.00  0.00    -0.603 OA 
BRANCH  11  12
HETATM   12  C   UNL     1     -11.169  11.246  67.492  1.00  0.00    -0.291 A  
HETATM   13  C   UNL     1     -11.110  10.772  68.798  1.00  0.00    -0.312 A  
HETATM   14  C   UNL     1     -10.070   9.930  69.194  1.00  0.00    -0.210 A  
HETATM   15  C   UNL     1      -9.083   9.527  68.283  1.00  0.00    -0.127 A  
HETATM   16  C   UNL     1      -9.159   9.992  66.965  1.00  0.00    -0.159 A  
HETATM   17  C   UNL     1     -10.199  10.842  66.571  1.00  0.00    -0.287 A  
BRANCH  15  18
HETATM   18  C   UNL     1      -7.963   8.616  68.724  1.00  0.00    -0.114 C  
BRANCH  18  19
HETATM   19  C   UNL     1      -8.321   7.137  68.572  1.00  0.00    -0.125 C  
BRANCH  19  20
HETATM   20  O   UNL     1      -7.256   6.325  69.073  1.00  0.00    -0.078 OA 
BRANCH  20  21
HETATM   21  C   UNL     1      -7.766   5.103  69.607  1.00  0.00    -0.068 C  
BRANCH  21  22
HETATM   22  C   UNL     1      -9.171   5.320  70.068  1.00  0.00    -0.180 C  
HETATM   23  C   UNL     1      -9.875   4.227  70.833  1.00  0.00    -0.259 C  
HETATM   24  C   UNL     1      -9.489   5.501  71.530  1.00  0.00    -0.179 C  
ENDBRANCH  21  22
ENDBRANCH  20  21
ENDBRANCH  19  20
ENDBRANCH  18  19
ENDBRANCH  15  18
ENDBRANCH  11  12
ENDBRANCH  10  11
ENDBRANCH   7  10
ENDBRANCH   6   7
ENDBRANCH   4   6
ENDBRANCH   2   4
TORSDOF 11
ENDMDL
MODEL      254
REMARK 921   NORMALIZED FREE ENERGY PREDICTED BY IDOCK:   -3.18 KCAL/MOL
REMARK 922        TOTAL FREE ENERGY PREDICTED BY IDOCK:   -6.54 KCAL/MOL
REMARK 923 INTER-LIGAND FREE ENERGY PREDICTED BY IDOCK:   -5.30 KCAL/MOL
REMARK 924 INTRA-LIGAND FREE ENERGY PREDICTED BY IDOCK:   -1.24 KCAL/MOL
REMARK 927      BINDING AFFINITY PREDICTED BY RF-SCORE:    0.00 PKD
ROOT
HETATM    1  C   UNL     1      -8.370   8.824  62.679  1.00  0.00    -0.198 C  
HETATM    2  C   UNL     1      -7.707   7.486  63.015  1.00  0.00    -0.123 C  
HETATM    3  C   UNL     1      -6.192   7.678  63.116  1.00  0.00    -0.059 C  
ENDROOT
BRANCH   2   4
HETATM    4  N   UNL     1      -8.275   6.987  64.269  1.00  0.00    -0.324 NA 
HETATM    5  H   UNL     1      -9.185   7.411  64.448  1.00  0.00     0.000 HD 
BRANCH   4   6
HETATM    6  C   UNL     1      -8.363   5.519  64.325  1.00  0.00    -0.107 C  
BRANCH   6   7
HETATM    7  C   UNL     1      -7.817   5.005  65.669  1.00  0.00    -0.091 C  
HETATM    8  O   UNL     1      -7.091   6.057  66.329  1.00  0.00    -0.065 OA 
HETATM    9  H   UNL     1      -6.754   5.739  67.158  1.00  0.00     0.000 HD 
BRANCH   7  10
HETATM   10  C   UNL     1      -8.948   4.517  66.583  1.00  0.00    -0.114 C  
BRANCH  10  11
HETATM   11  O   UNL     1      -8.531   4.642  67.950  1.00  0.00    -0.102 OA 
BRANCH  11  12
HETATM   12  C   UNL     1      -9.471   5.170  68.795  1.00  0.00    -0.133 A  
HETATM   13  C   UNL     1      -9.525   4.939  70.165  1.00  0.00    -0.240 A  
HETATM   14  C   UNL     1     -10.526   5.527  70.939  1.00  0.00    -0.319 A  
HETATM   15  C   UNL     1     -11.478   6.379  70.358  1.00  0.00    -0.458 A  
HETATM   16  C   UNL     1     -11.405   6.623  68.982  1.00  0.00    -0.235 A  
HETATM   17  C   UNL     1     -10.404   6.027  68.207  1.00  0.00    -0.252 A  
BRANCH  15  18
HETATM   18  C   UNL     1     -12.556   7.009  71.205  1.00  0.00    -0.418 C  
BRANCH  18  19
HETATM   19  C   UNL     1     -11.983   7.847  72.349  1.00  0.00    -0.320 C  
BRANCH  19  20
HETATM   20  O   UNL     1     -11.255   8.958  71.821  1.00  0.00    -0.315 OA 
BRANCH  20  21
HETATM   21  C   UNL     1     -12.151   9.980  71.381  1.00  0.00    -0.407 C  
BRANCH  21  22
HETATM   22  C   UNL     1     -11.433  10.887  70.436  1.00  0.00    -0.367 C  
HETATM   23  C   UNL     1     -10.447  10.303  69.455  1.00  0.00    -0.259 C  
HETATM   24  C   UNL     1     -11.745  10.877  68.961  1.00  0.00    -0.391 C  
ENDBRANCH  21  22
ENDBRANCH  20  21
ENDBRANCH  19  20
ENDBRANCH  18  19
ENDBRANCH  15  18
ENDBRANCH  11  12
ENDBRANCH  10  11
ENDBRANCH   7  10
ENDBRANCH   6   7
ENDBRANCH   4   6
ENDBRANCH   2   4
TORSDOF 11
ENDMDL
MODEL      255
REMARK 921   NORMALIZED FREE ENERGY PREDICTED BY IDOCK:   -3.16 KCAL/MOL
REMARK 922        TOTAL FREE ENERGY PREDICTED BY IDOCK:   -6.52 KCAL/MOL
REMARK 923 INTER-LIGAND FREE ENERGY PREDICTED BY IDOCK:   -5.35 KCAL/MOL
REMARK 924 INTRA-LIGAND FREE ENERGY PREDICTED BY IDOCK:   -1.17 KCAL/MOL
REMARK 927      BINDING AFFINITY PREDICTED BY RF-SCORE:    0.00 PKD
ROOT
HETATM    1  C   UNL     1     -10.588  11.184  66.323  1.00  0.00    -0.309 C  
HETATM    2  C   UNL     1      -9.429  10.675  65.463  1.00  0.00    -0.214 C  
HETATM    3  C   UNL     1      -8.106  10.929  66.188  1.00  0.00    -0.160 C  
ENDROOT
BRANCH   2   4
HETATM    4  N   UNL     1      -9.638   9.249  65.200  1.00  0.00    -0.458 NA 
HETATM    5  H   UNL     1      -8.876   8.870  64.637  1.00  0.00     0.000 HD 
BRANCH   4   6
HETATM    6  C   UNL     1      -9.831   8.453  66.421  1.00  0.00    -0.240 C  
BRANCH   6   7
HETATM    7  C   UNL     1      -9.262   7.036  66.228  1.00  0.00    -0.126 C  
HETATM    8  O   UNL     1      -8.884   6.851  64.853  1.00  0.00    -0.347 OA 
HETATM    9  H   UNL     1      -8.534   5.976  64.734  1.00  0.00     0.000 HD 
BRANCH   7  10
HETATM   10  C   UNL     1      -8.043   6.794  67.128  1.00  0.00    -0.117 C  
BRANCH  10  11
HETATM   11  O   UNL     1      -7.685   8.027  67.770  1.00  0.00    -0.106 OA 
BRANCH  11  12
HETATM   12  C   UNL     1      -8.056   8.124  69.084  1.00  0.00    -0.121 A  
HETATM   13  C   UNL     1      -8.163   9.317  69.792  1.00  0.00    -0.131 A  
HETATM   14  C   UNL     1      -8.551   9.306  71.132  1.00  0.00    -0.094 A  
HETATM   15  C   UNL     1      -8.864   8.102  71.782  1.00  0.00    -0.206 A  
HETATM   16  C   UNL     1      -8.772   6.908  71.058  1.00  0.00    -0.136 A  
HETATM   17  C   UNL     1      -8.377   6.920  69.715  1.00  0.00    -0.132 A  
BRANCH  15  18
HETATM   18  C   UNL     1      -9.282   8.104  73.233  1.00  0.00    -0.316 C  
BRANCH  18  19
HETATM   19  C   UNL     1     -10.506   7.224  73.487  1.00  0.00    -0.374 C  
BRANCH  19  20
HETATM   20  O   UNL     1     -11.701   7.976  73.260  1.00  0.00    -0.182 OA 
BRANCH  20  21
HETATM   21  C   UNL     1     -12.290   7.613  72.010  1.00  0.00    -0.280 C  
BRANCH  21  22
HETATM   22  C   UNL     1     -12.800   8.844  71.334  1.00  0.00    -0.335 C  
HETATM   23  C   UNL     1     -13.066  10.083  72.154  1.00  0.00    -0.482 C  
HETATM   24  C   UNL     1     -11.926  10.062  71.175  1.00  0.00    -0.484 C  
ENDBRANCH  21  22
ENDBRANCH  20  21
ENDBRANCH  19  20
ENDBRANCH  18  19
ENDBRANCH  15  18
ENDBRANCH  11  12
ENDBRANCH  10  11
ENDBRANCH   7  10
ENDBRANCH   6   7
ENDBRANCH   4   6
ENDBRANCH   2   4
TORSDOF 11
ENDMDL
MODEL      256
REMARK 921   NORMALIZED FREE ENERGY PREDICTED BY IDOCK:   -3.16 KCAL/MOL
REMARK 922        TOTAL FREE ENERGY PREDICTED BY IDOCK:   -6.51 KCAL/MOL
REMARK 923 INTER-LIGAND FREE ENERGY PREDICTED BY IDOCK:   -5.67 KCAL/MOL
REMARK 924 INTRA-LIGAND FREE ENERGY PREDICTED BY IDOCK:   -0.84 KCAL/MOL
REMARK 927      BINDING AFFINITY PREDICTED BY RF-SCORE:    0.00 PKD
ROOT
HETATM    1  C   UNL     1      -6.307  15.059  68.395  1.00  0.00    -0.107 C  
HETATM    2  C   UNL     1      -6.258  16.575  68.190  1.00  0.00    -0.128 C  
HETATM    3  C   UNL     1      -5.132  16.922  67.213  1.00  0.00    -0.162 C  
ENDROOT
BRANCH   2   4
HETATM    4  N   UNL     1      -7.563  17.021  67.695  1.00  0.00    -0.163 NA 
HETATM    5  H   UNL     1      -7.770  16.597  66.791  1.00  0.00     0.000 HD 
BRANCH   4   6
HETATM    6  C   UNL     1      -8.658  16.784  68.648  1.00  0.00    -0.263 C  
BRANCH   6   7
HETATM    7  C   UNL     1      -9.976  16.541  67.892  1.00  0.00    -0.245 C  
HETATM    8  O   UNL     1     -10.876  17.638  68.127  1.00  0.00    -0.349 OA 
HETATM    9  H   UNL     1     -11.690  17.488  67.660  1.00  0.00     0.000 HD 
BRANCH   7  10
HETATM   10  C   UNL     1      -9.737  16.394  66.383  1.00  0.00    -0.287 C  
BRANCH  10  11
HETATM   11  O   UNL     1     -10.801  15.615  65.815  1.00  0.00    -0.327 OA 
BRANCH  11  12
HETATM   12  C   UNL     1     -10.506  14.293  65.615  1.00  0.00    -0.324 A  
HETATM   13  C   UNL     1      -9.658  13.539  66.420  1.00  0.00    -0.268 A  
HETATM   14  C   UNL     1      -9.423  12.195  66.127  1.00  0.00    -0.231 A  
HETATM   15  C   UNL     1     -10.053  11.574  65.038  1.00  0.00    -0.315 A  
HETATM   16  C   UNL     1     -10.919  12.334  64.245  1.00  0.00    -0.392 A  
HETATM   17  C   UNL     1     -11.149  13.684  64.535  1.00  0.00    -0.396 A  
BRANCH  15  18
HETATM   18  C   UNL     1      -9.790  10.119  64.733  1.00  0.00    -0.382 C  
BRANCH  18  19
HETATM   19  C   UNL     1      -9.083   9.401  65.883  1.00  0.00    -0.195 C  
BRANCH  19  20
HETATM   20  O   UNL     1      -9.931   8.378  66.411  1.00  0.00    -0.263 OA 
BRANCH  20  21
HETATM   21  C   UNL     1     -10.632   8.853  67.561  1.00  0.00    -0.237 C  
BRANCH  21  22
HETATM   22  C   UNL     1      -9.709   8.840  68.737  1.00  0.00    -0.171 C  
HETATM   23  C   UNL     1      -9.037  10.122  69.164  1.00  0.00    -0.189 C  
HETATM   24  C   UNL     1     -10.095   9.504  70.034  1.00  0.00    -0.279 C  
ENDBRANCH  21  22
ENDBRANCH  20  21
ENDBRANCH  19  20
ENDBRANCH  18  19
ENDBRANCH  15  18
ENDBRANCH  11  12
ENDBRANCH  10  11
ENDBRANCH   7  10
ENDBRANCH   6   7
ENDBRANCH   4   6
ENDBRANCH   2   4
TORSDOF 11
ENDMDL
MODEL      257
REMARK 921   NORMALIZED FREE ENERGY PREDICTED BY IDOCK:   -3.15 KCAL/MOL
REMARK 922        TOTAL FREE ENERGY PREDICTED BY IDOCK:   -6.50 KCAL/MOL
REMARK 923 INTER-LIGAND FREE ENERGY PREDICTED BY IDOCK:   -5.55 KCAL/MOL
REMARK 924 INTRA-LIGAND FREE ENERGY PREDICTED BY IDOCK:   -0.96 KCAL/MOL
REMARK 927      BINDING AFFINITY PREDICTED BY RF-SCORE:    0.00 PKD
ROOT
HETATM    1  C   UNL     1      -8.348  16.562  66.219  1.00  0.00    -0.364 C  
HETATM    2  C   UNL     1      -9.437  16.363  67.276  1.00  0.00    -0.227 C  
HETATM    3  C   UNL     1     -10.437  17.519  67.202  1.00  0.00    -0.312 C  
ENDROOT
BRANCH   2   4
HETATM    4  N   UNL     1     -10.085  15.070  67.038  1.00  0.00    -0.241 NA 
HETATM    5  H   UNL     1     -11.047  15.080  67.376  1.00  0.00     0.000 HD 
BRANCH   4   6
HETATM    6  C   UNL     1     -10.028  14.641  65.633  1.00  0.00    -0.351 C  
BRANCH   6   7
HETATM    7  C   UNL     1     -11.397  14.096  65.188  1.00  0.00    -0.336 C  
HETATM    8  O   UNL     1     -11.694  14.563  63.860  1.00  0.00    -0.644 OA 
HETATM    9  H   UNL     1     -12.539  14.227  63.586  1.00  0.00     0.000 HD 
BRANCH   7  10
HETATM   10  C   UNL     1     -11.422  12.562  65.205  1.00  0.00    -0.333 C  
BRANCH  10  11
HETATM   11  O   UNL     1     -11.152  12.075  63.883  1.00  0.00    -0.336 OA 
BRANCH  11  12
HETATM   12  C   UNL     1     -10.165  11.130  63.805  1.00  0.00    -0.377 A  
HETATM   13  C   UNL     1      -9.245  11.026  62.767  1.00  0.00    -0.374 A  
HETATM   14  C   UNL     1      -8.276  10.022  62.783  1.00  0.00    -0.154 A  
HETATM   15  C   UNL     1      -8.194   9.118  63.853  1.00  0.00    -0.172 A  
HETATM   16  C   UNL     1      -9.111   9.240  64.903  1.00  0.00    -0.227 A  
HETATM   17  C   UNL     1     -10.086  10.244  64.882  1.00  0.00    -0.346 A  
BRANCH  15  18
HETATM   18  C   UNL     1      -7.141   8.036  63.859  1.00  0.00    -0.083 C  
BRANCH  18  19
HETATM   19  C   UNL     1      -7.658   6.724  64.451  1.00  0.00    -0.104 C  
BRANCH  19  20
HETATM   20  O   UNL     1      -6.740   6.240  65.434  1.00  0.00    -0.045 OA 
BRANCH  20  21
HETATM   21  C   UNL     1      -7.353   6.219  66.724  1.00  0.00    -0.079 C  
BRANCH  21  22
HETATM   22  C   UNL     1      -8.838   6.271  66.561  1.00  0.00    -0.140 C  
HETATM   23  C   UNL     1      -9.705   5.347  67.378  1.00  0.00    -0.153 C  
HETATM   24  C   UNL     1      -9.720   6.825  67.651  1.00  0.00    -0.146 C  
ENDBRANCH  21  22
ENDBRANCH  20  21
ENDBRANCH  19  20
ENDBRANCH  18  19
ENDBRANCH  15  18
ENDBRANCH  11  12
ENDBRANCH  10  11
ENDBRANCH   7  10
ENDBRANCH   6   7
ENDBRANCH   4   6
ENDBRANCH   2   4
TORSDOF 11
ENDMDL
MODEL      258
REMARK 921   NORMALIZED FREE ENERGY PREDICTED BY IDOCK:   -3.15 KCAL/MOL
REMARK 922        TOTAL FREE ENERGY PREDICTED BY IDOCK:   -6.50 KCAL/MOL
REMARK 923 INTER-LIGAND FREE ENERGY PREDICTED BY IDOCK:   -4.79 KCAL/MOL
REMARK 924 INTRA-LIGAND FREE ENERGY PREDICTED BY IDOCK:   -1.71 KCAL/MOL
REMARK 927      BINDING AFFINITY PREDICTED BY RF-SCORE:    0.00 PKD
ROOT
HETATM    1  C   UNL     1      -8.520   7.405  72.086  1.00  0.00    -0.124 C  
HETATM    2  C   UNL     1      -8.661   7.025  73.562  1.00  0.00    -0.138 C  
HETATM    3  C   UNL     1      -8.054   8.127  74.433  1.00  0.00    -0.291 C  
ENDROOT
BRANCH   2   4
HETATM    4  N   UNL     1     -10.082   6.822  73.856  1.00  0.00    -0.312 NA 
HETATM    5  H   UNL     1     -10.578   7.713  73.879  1.00  0.00     0.000 HD 
BRANCH   4   6
HETATM    6  C   UNL     1     -10.738   5.882  72.935  1.00  0.00    -0.249 C  
BRANCH   6   7
HETATM    7  C   UNL     1     -12.021   6.510  72.360  1.00  0.00    -0.160 C  
HETATM    8  O   UNL     1     -12.226   7.808  72.943  1.00  0.00    -0.590 OA 
HETATM    9  H   UNL     1     -13.017   8.195  72.587  1.00  0.00     0.000 HD 
BRANCH   7  10
HETATM   10  C   UNL     1     -11.942   6.644  70.833  1.00  0.00    -0.355 C  
BRANCH  10  11
HETATM   11  O   UNL     1     -11.134   5.579  70.311  1.00  0.00    -0.231 OA 
BRANCH  11  12
HETATM   12  C   UNL     1     -10.496   5.860  69.133  1.00  0.00    -0.270 A  
HETATM   13  C   UNL     1     -11.119   6.362  67.995  1.00  0.00    -0.365 A  
HETATM   14  C   UNL     1     -10.375   6.616  66.841  1.00  0.00    -0.324 A  
HETATM   15  C   UNL     1      -8.990   6.395  66.814  1.00  0.00    -0.134 A  
HETATM   16  C   UNL     1      -8.367   5.909  67.969  1.00  0.00    -0.111 A  
HETATM   17  C   UNL     1      -9.115   5.649  69.123  1.00  0.00    -0.126 A  
BRANCH  15  18
HETATM   18  C   UNL     1      -8.197   6.673  65.560  1.00  0.00    -0.138 C  
BRANCH  18  19
HETATM   19  C   UNL     1      -8.339   8.122  65.090  1.00  0.00    -0.143 C  
BRANCH  19  20
HETATM   20  O   UNL     1      -8.038   9.014  66.166  1.00  0.00    -0.107 OA 
BRANCH  20  21
HETATM   21  C   UNL     1      -8.991  10.076  66.218  1.00  0.00    -0.148 C  
BRANCH  21  22
HETATM   22  C   UNL     1      -9.565  10.151  67.595  1.00  0.00    -0.170 C  
HETATM   23  C   UNL     1      -8.795   9.562  68.752  1.00  0.00    -0.132 C  
HETATM   24  C   UNL     1      -8.960  11.052  68.641  1.00  0.00    -0.167 C  
ENDBRANCH  21  22
ENDBRANCH  20  21
ENDBRANCH  19  20
ENDBRANCH  18  19
ENDBRANCH  15  18
ENDBRANCH  11  12
ENDBRANCH  10  11
ENDBRANCH   7  10
ENDBRANCH   6   7
ENDBRANCH   4   6
ENDBRANCH   2   4
TORSDOF 11
ENDMDL
MODEL      259
REMARK 921   NORMALIZED FREE ENERGY PREDICTED BY IDOCK:   -3.12 KCAL/MOL
REMARK 922        TOTAL FREE ENERGY PREDICTED BY IDOCK:   -6.45 KCAL/MOL
REMARK 923 INTER-LIGAND FREE ENERGY PREDICTED BY IDOCK:   -5.83 KCAL/MOL
REMARK 924 INTRA-LIGAND FREE ENERGY PREDICTED BY IDOCK:   -0.62 KCAL/MOL
REMARK 927      BINDING AFFINITY PREDICTED BY RF-SCORE:    0.00 PKD
ROOT
HETATM    1  C   UNL     1      -9.755  15.731  69.327  1.00  0.00    -0.263 C  
HETATM    2  C   UNL     1     -11.095  16.207  68.760  1.00  0.00    -0.354 C  
HETATM    3  C   UNL     1     -10.846  17.098  67.540  1.00  0.00    -0.203 C  
ENDROOT
BRANCH   2   4
HETATM    4  N   UNL     1     -11.899  15.031  68.418  1.00  0.00    -0.481 NA 
HETATM    5  H   UNL     1     -11.857  14.842  67.416  1.00  0.00     0.000 HD 
BRANCH   4   6
HETATM    6  C   UNL     1     -11.537  13.834  69.191  1.00  0.00    -0.317 C  
BRANCH   6   7
HETATM    7  C   UNL     1     -11.210  12.667  68.242  1.00  0.00    -0.272 C  
HETATM    8  O   UNL     1     -12.098  11.567  68.506  1.00  0.00    -0.522 OA 
HETATM    9  H   UNL     1     -11.896  10.847  67.920  1.00  0.00     0.000 HD 
BRANCH   7  10
HETATM   10  C   UNL     1     -11.344  13.087  66.772  1.00  0.00    -0.324 C  
BRANCH  10  11
HETATM   11  O   UNL     1     -11.848  11.978  66.013  1.00  0.00    -0.522 OA 
BRANCH  11  12
HETATM   12  C   UNL     1     -10.909  11.307  65.277  1.00  0.00    -0.194 A  
HETATM   13  C   UNL     1     -10.082  10.304  65.773  1.00  0.00    -0.325 A  
HETATM   14  C   UNL     1      -9.155   9.681  64.936  1.00  0.00    -0.284 A  
HETATM   15  C   UNL     1      -9.056  10.033  63.582  1.00  0.00    -0.301 A  
HETATM   16  C   UNL     1      -9.904  11.029  63.086  1.00  0.00    -0.398 A  
HETATM   17  C   UNL     1     -10.829  11.657  63.928  1.00  0.00    -0.471 A  
BRANCH  15  18
HETATM   18  C   UNL     1      -8.048   9.351  62.688  1.00  0.00    -0.140 C  
BRANCH  18  19
HETATM   19  C   UNL     1      -7.118   8.418  63.464  1.00  0.00    -0.090 C  
BRANCH  19  20
HETATM   20  O   UNL     1      -6.858   7.241  62.694  1.00  0.00    -0.062 OA 
BRANCH  20  21
HETATM   21  C   UNL     1      -8.080   6.587  62.350  1.00  0.00    -0.093 C  
BRANCH  21  22
HETATM   22  C   UNL     1      -8.302   5.443  63.285  1.00  0.00    -0.104 C  
HETATM   23  C   UNL     1      -7.326   4.293  63.293  1.00  0.00    -0.050 C  
HETATM   24  C   UNL     1      -7.399   5.223  64.472  1.00  0.00    -0.060 C  
ENDBRANCH  21  22
ENDBRANCH  20  21
ENDBRANCH  19  20
ENDBRANCH  18  19
ENDBRANCH  15  18
ENDBRANCH  11  12
ENDBRANCH  10  11
ENDBRANCH   7  10
ENDBRANCH   6   7
ENDBRANCH   4   6
ENDBRANCH   2   4
TORSDOF 11
ENDMDL
MODEL      260
REMARK 921   NORMALIZED FREE ENERGY PREDICTED BY IDOCK:   -3.11 KCAL/MOL
REMARK 922        TOTAL FREE ENERGY PREDICTED BY IDOCK:   -6.43 KCAL/MOL
REMARK 923 INTER-LIGAND FREE ENERGY PREDICTED BY IDOCK:   -5.59 KCAL/MOL
REMARK 924 INTRA-LIGAND FREE ENERGY PREDICTED BY IDOCK:   -0.85 KCAL/MOL
REMARK 927      BINDING AFFINITY PREDICTED BY RF-SCORE:    0.00 PKD
ROOT
HETATM    1  C   UNL     1      -8.902   7.146  65.717  1.00  0.00    -0.090 C  
HETATM    2  C   UNL     1      -9.178   8.272  66.717  1.00  0.00    -0.169 C  
HETATM    3  C   UNL     1     -10.591   8.119  67.282  1.00  0.00    -0.344 C  
ENDROOT
BRANCH   2   4
HETATM    4  N   UNL     1      -8.162   8.216  67.771  1.00  0.00    -0.127 NA 
HETATM    5  H   UNL     1      -7.308   8.689  67.477  1.00  0.00     0.000 HD 
BRANCH   4   6
HETATM    6  C   UNL     1      -8.633   8.745  69.061  1.00  0.00    -0.132 C  
BRANCH   6   7
HETATM    7  C   UNL     1      -7.528   9.584  69.726  1.00  0.00    -0.098 C  
HETATM    8  O   UNL     1      -6.251   8.963  69.505  1.00  0.00    -0.042 OA 
HETATM    9  H   UNL     1      -5.569   9.482  69.916  1.00  0.00     0.000 HD 
BRANCH   7  10
HETATM   10  C   UNL     1      -7.501  11.015  69.171  1.00  0.00    -0.121 C  
BRANCH  10  11
HETATM   11  O   UNL     1      -8.338  11.079  68.007  1.00  0.00    -0.117 OA 
BRANCH  11  12
HETATM   12  C   UNL     1      -8.539  12.339  67.508  1.00  0.00    -0.174 A  
HETATM   13  C   UNL     1      -9.626  12.718  66.727  1.00  0.00    -0.244 A  
HETATM   14  C   UNL     1      -9.736  14.032  66.268  1.00  0.00    -0.311 A  
HETATM   15  C   UNL     1      -8.774  14.996  66.604  1.00  0.00    -0.289 A  
HETATM   16  C   UNL     1      -7.694  14.611  67.406  1.00  0.00    -0.226 A  
HETATM   17  C   UNL     1      -7.581  13.292  67.860  1.00  0.00    -0.152 A  
BRANCH  15  18
HETATM   18  C   UNL     1      -8.905  16.413  66.101  1.00  0.00    -0.349 C  
BRANCH  18  19
HETATM   19  C   UNL     1     -10.250  17.040  66.470  1.00  0.00    -0.320 C  
BRANCH  19  20
HETATM   20  O   UNL     1     -10.410  18.285  65.785  1.00  0.00    -0.594 OA 
BRANCH  20  21
HETATM   21  C   UNL     1     -10.720  19.328  66.710  1.00  0.00    -0.431 C  
BRANCH  21  22
HETATM   22  C   UNL     1      -9.602  20.320  66.721  1.00  0.00    -0.548 C  
HETATM   23  C   UNL     1      -8.463  20.141  67.694  1.00  0.00    -0.357 C  
HETATM   24  C   UNL     1      -8.229  19.948  66.222  1.00  0.00    -0.357 C  
ENDBRANCH  21  22
ENDBRANCH  20  21
ENDBRANCH  19  20
ENDBRANCH  18  19
ENDBRANCH  15  18
ENDBRANCH  11  12
ENDBRANCH  10  11
ENDBRANCH   7  10
ENDBRANCH   6   7
ENDBRANCH   4   6
ENDBRANCH   2   4
TORSDOF 11
ENDMDL
MODEL      261
REMARK 921   NORMALIZED FREE ENERGY PREDICTED BY IDOCK:   -3.10 KCAL/MOL
REMARK 922        TOTAL FREE ENERGY PREDICTED BY IDOCK:   -6.42 KCAL/MOL
REMARK 923 INTER-LIGAND FREE ENERGY PREDICTED BY IDOCK:   -5.99 KCAL/MOL
REMARK 924 INTRA-LIGAND FREE ENERGY PREDICTED BY IDOCK:   -0.43 KCAL/MOL
REMARK 927      BINDING AFFINITY PREDICTED BY RF-SCORE:    0.00 PKD
ROOT
HETATM    1  C   UNL     1      -8.173  20.060  67.664  1.00  0.00    -0.347 C  
HETATM    2  C   UNL     1      -9.349  19.330  68.318  1.00  0.00    -0.351 C  
HETATM    3  C   UNL     1     -10.660  19.811  67.693  1.00  0.00    -0.530 C  
ENDROOT
BRANCH   2   4
HETATM    4  N   UNL     1      -9.159  17.888  68.138  1.00  0.00    -0.271 NA 
HETATM    5  H   UNL     1      -8.803  17.461  68.992  1.00  0.00     0.000 HD 
BRANCH   4   6
HETATM    6  C   UNL     1     -10.370  17.196  67.672  1.00  0.00    -0.344 C  
BRANCH   6   7
HETATM    7  C   UNL     1     -10.209  16.774  66.201  1.00  0.00    -0.351 C  
HETATM    8  O   UNL     1      -8.840  16.950  65.796  1.00  0.00    -0.522 OA 
HETATM    9  H   UNL     1      -8.741  16.689  64.888  1.00  0.00     0.000 HD 
BRANCH   7  10
HETATM   10  C   UNL     1     -10.617  15.309  65.991  1.00  0.00    -0.319 C  
BRANCH  10  11
HETATM   11  O   UNL     1      -9.446  14.483  66.058  1.00  0.00    -0.292 OA 
BRANCH  11  12
HETATM   12  C   UNL     1      -9.666  13.201  66.485  1.00  0.00    -0.268 A  
HETATM   13  C   UNL     1      -9.520  12.767  67.799  1.00  0.00    -0.205 A  
HETATM   14  C   UNL     1      -9.770  11.435  68.130  1.00  0.00    -0.194 A  
HETATM   15  C   UNL     1     -10.196  10.518  67.157  1.00  0.00    -0.270 A  
HETATM   16  C   UNL     1     -10.358  10.966  65.842  1.00  0.00    -0.310 A  
HETATM   17  C   UNL     1     -10.101  12.302  65.510  1.00  0.00    -0.279 A  
BRANCH  15  18
HETATM   18  C   UNL     1     -10.463   9.079  67.529  1.00  0.00    -0.338 C  
BRANCH  18  19
HETATM   19  C   UNL     1      -9.227   8.195  67.358  1.00  0.00    -0.137 C  
BRANCH  19  20
HETATM   20  O   UNL     1      -9.382   6.992  68.116  1.00  0.00    -0.127 OA 
BRANCH  20  21
HETATM   21  C   UNL     1      -9.799   5.919  67.271  1.00  0.00    -0.138 C  
BRANCH  21  22
HETATM   22  C   UNL     1      -8.781   4.826  67.331  1.00  0.00    -0.103 C  
HETATM   23  C   UNL     1      -8.306   4.330  68.674  1.00  0.00    -0.092 C  
HETATM   24  C   UNL     1      -9.153   3.444  67.805  1.00  0.00    -0.204 C  
ENDBRANCH  21  22
ENDBRANCH  20  21
ENDBRANCH  19  20
ENDBRANCH  18  19
ENDBRANCH  15  18
ENDBRANCH  11  12
ENDBRANCH  10  11
ENDBRANCH   7  10
ENDBRANCH   6   7
ENDBRANCH   4   6
ENDBRANCH   2   4
TORSDOF 11
ENDMDL
MODEL      262
REMARK 921   NORMALIZED FREE ENERGY PREDICTED BY IDOCK:   -3.10 KCAL/MOL
REMARK 922        TOTAL FREE ENERGY PREDICTED BY IDOCK:   -6.42 KCAL/MOL
REMARK 923 INTER-LIGAND FREE ENERGY PREDICTED BY IDOCK:   -5.69 KCAL/MOL
REMARK 924 INTRA-LIGAND FREE ENERGY PREDICTED BY IDOCK:   -0.73 KCAL/MOL
REMARK 927      BINDING AFFINITY PREDICTED BY RF-SCORE:    0.00 PKD
ROOT
HETATM    1  C   UNL     1     -13.732  14.483  72.548  1.00  0.00    -0.580 C  
HETATM    2  C   UNL     1     -13.221  15.581  71.612  1.00  0.00    -0.492 C  
HETATM    3  C   UNL     1     -11.902  16.138  72.151  1.00  0.00    -0.626 C  
ENDROOT
BRANCH   2   4
HETATM    4  N   UNL     1     -13.063  15.012  70.271  1.00  0.00    -0.638 NA 
HETATM    5  H   UNL     1     -13.765  15.386  69.634  1.00  0.00     0.000 HD 
BRANCH   4   6
HETATM    6  C   UNL     1     -11.711  15.188  69.720  1.00  0.00    -0.319 C  
BRANCH   6   7
HETATM    7  C   UNL     1     -11.661  14.690  68.265  1.00  0.00    -0.326 C  
HETATM    8  O   UNL     1     -10.565  15.318  67.577  1.00  0.00    -0.262 OA 
HETATM    9  H   UNL     1     -10.535  15.010  66.679  1.00  0.00     0.000 HD 
BRANCH   7  10
HETATM   10  C   UNL     1     -11.496  13.165  68.201  1.00  0.00    -0.314 C  
BRANCH  10  11
HETATM   11  O   UNL     1     -10.525  12.843  67.195  1.00  0.00    -0.236 OA 
BRANCH  11  12
HETATM   12  C   UNL     1     -10.050  11.559  67.240  1.00  0.00    -0.199 A  
HETATM   13  C   UNL     1     -10.633  10.523  67.961  1.00  0.00    -0.251 A  
HETATM   14  C   UNL     1     -10.067   9.247  67.940  1.00  0.00    -0.246 A  
HETATM   15  C   UNL     1      -8.922   8.979  67.176  1.00  0.00    -0.144 A  
HETATM   16  C   UNL     1      -8.352  10.022  66.438  1.00  0.00    -0.126 A  
HETATM   17  C   UNL     1      -8.916  11.303  66.465  1.00  0.00    -0.189 A  
BRANCH  15  18
HETATM   18  C   UNL     1      -8.320   7.595  67.163  1.00  0.00    -0.121 C  
BRANCH  18  19
HETATM   19  C   UNL     1      -9.377   6.499  67.304  1.00  0.00    -0.121 C  
BRANCH  19  20
HETATM   20  O   UNL     1      -9.737   6.001  66.013  1.00  0.00    -0.078 OA 
BRANCH  20  21
HETATM   21  C   UNL     1      -9.105   4.744  65.767  1.00  0.00    -0.142 C  
BRANCH  21  22
HETATM   22  C   UNL     1      -8.514   4.754  64.395  1.00  0.00    -0.134 C  
HETATM   23  C   UNL     1      -7.775   5.980  63.916  1.00  0.00    -0.101 C  
HETATM   24  C   UNL     1      -7.020   4.709  64.192  1.00  0.00    -0.049 C  
ENDBRANCH  21  22
ENDBRANCH  20  21
ENDBRANCH  19  20
ENDBRANCH  18  19
ENDBRANCH  15  18
ENDBRANCH  11  12
ENDBRANCH  10  11
ENDBRANCH   7  10
ENDBRANCH   6   7
ENDBRANCH   4   6
ENDBRANCH   2   4
TORSDOF 11
ENDMDL
MODEL      263
REMARK 921   NORMALIZED FREE ENERGY PREDICTED BY IDOCK:   -3.08 KCAL/MOL
REMARK 922        TOTAL FREE ENERGY PREDICTED BY IDOCK:   -6.38 KCAL/MOL
REMARK 923 INTER-LIGAND FREE ENERGY PREDICTED BY IDOCK:   -5.11 KCAL/MOL
REMARK 924 INTRA-LIGAND FREE ENERGY PREDICTED BY IDOCK:   -1.27 KCAL/MOL
REMARK 927      BINDING AFFINITY PREDICTED BY RF-SCORE:    0.00 PKD
ROOT
HETATM    1  C   UNL     1      -8.290  19.221  67.841  1.00  0.00    -0.338 C  
HETATM    2  C   UNL     1      -9.632  18.555  68.153  1.00  0.00    -0.327 C  
HETATM    3  C   UNL     1     -10.755  19.306  67.433  1.00  0.00    -0.594 C  
ENDROOT
BRANCH   2   4
HETATM    4  N   UNL     1      -9.564  17.152  67.736  1.00  0.00    -0.252 NA 
HETATM    5  H   UNL     1      -9.149  16.577  68.469  1.00  0.00     0.000 HD 
BRANCH   4   6
HETATM    6  C   UNL     1     -10.863  16.606  67.316  1.00  0.00    -0.158 C  
BRANCH   6   7
HETATM    7  C   UNL     1     -10.807  16.178  65.839  1.00  0.00    -0.177 C  
HETATM    8  O   UNL     1      -9.451  16.255  65.366  1.00  0.00    -0.405 OA 
HETATM    9  H   UNL     1      -9.417  15.990  64.454  1.00  0.00     0.000 HD 
BRANCH   7  10
HETATM   10  C   UNL     1     -11.332  14.748  65.651  1.00  0.00    -0.343 C  
BRANCH  10  11
HETATM   11  O   UNL     1     -10.256  13.823  65.868  1.00  0.00    -0.296 OA 
BRANCH  11  12
HETATM   12  C   UNL     1     -10.511  12.848  66.794  1.00  0.00    -0.254 A  
HETATM   13  C   UNL     1     -10.411  13.016  68.171  1.00  0.00    -0.252 A  
HETATM   14  C   UNL     1     -10.694  11.954  69.031  1.00  0.00    -0.197 A  
HETATM   15  C   UNL     1     -11.106  10.710  68.529  1.00  0.00    -0.318 A  
HETATM   16  C   UNL     1     -11.222  10.554  67.144  1.00  0.00    -0.134 A  
HETATM   17  C   UNL     1     -10.933  11.618  66.282  1.00  0.00    -0.338 A  
BRANCH  15  18
HETATM   18  C   UNL     1     -11.408   9.570  69.470  1.00  0.00    -0.025 C  
BRANCH  18  19
HETATM   19  C   UNL     1     -10.140   8.939  70.047  1.00  0.00    -0.192 C  
BRANCH  19  20
HETATM   20  O   UNL     1      -9.383   8.325  69.001  1.00  0.00    -0.147 OA 
BRANCH  20  21
HETATM   21  C   UNL     1      -8.024   8.763  69.044  1.00  0.00    -0.111 C  
BRANCH  21  22
HETATM   22  C   UNL     1      -7.768   9.681  67.894  1.00  0.00    -0.087 C  
HETATM   23  C   UNL     1      -6.496   9.532  67.097  1.00  0.00    -0.066 C  
HETATM   24  C   UNL     1      -7.817   9.178  66.473  1.00  0.00    -0.100 C  
ENDBRANCH  21  22
ENDBRANCH  20  21
ENDBRANCH  19  20
ENDBRANCH  18  19
ENDBRANCH  15  18
ENDBRANCH  11  12
ENDBRANCH  10  11
ENDBRANCH   7  10
ENDBRANCH   6   7
ENDBRANCH   4   6
ENDBRANCH   2   4
TORSDOF 11
ENDMDL
MODEL      264
REMARK 921   NORMALIZED FREE ENERGY PREDICTED BY IDOCK:   -3.06 KCAL/MOL
REMARK 922        TOTAL FREE ENERGY PREDICTED BY IDOCK:   -6.35 KCAL/MOL
REMARK 923 INTER-LIGAND FREE ENERGY PREDICTED BY IDOCK:   -5.78 KCAL/MOL
REMARK 924 INTRA-LIGAND FREE ENERGY PREDICTED BY IDOCK:   -0.57 KCAL/MOL
REMARK 927      BINDING AFFINITY PREDICTED BY RF-SCORE:    0.00 PKD
ROOT
HETATM    1  C   UNL     1      -5.712  12.369  68.078  1.00  0.00    -0.073 C  
HETATM    2  C   UNL     1      -6.619  12.712  69.262  1.00  0.00    -0.092 C  
HETATM    3  C   UNL     1      -6.579  14.221  69.515  1.00  0.00    -0.134 C  
ENDROOT
BRANCH   2   4
HETATM    4  N   UNL     1      -7.976  12.249  68.958  1.00  0.00    -0.339 NA 
HETATM    5  H   UNL     1      -8.663  12.968  69.182  1.00  0.00     0.000 HD 
BRANCH   4   6
HETATM    6  C   UNL     1      -8.136  11.787  67.571  1.00  0.00    -0.152 C  
BRANCH   6   7
HETATM    7  C   UNL     1      -9.326  12.502  66.907  1.00  0.00    -0.219 C  
HETATM    8  O   UNL     1      -9.195  12.429  65.477  1.00  0.00    -0.439 OA 
HETATM    9  H   UNL     1      -9.930  12.870  65.067  1.00  0.00     0.000 HD 
BRANCH   7  10
HETATM   10  C   UNL     1     -10.662  11.874  67.329  1.00  0.00    -0.236 C  
BRANCH  10  11
HETATM   11  O   UNL     1     -11.220  12.645  68.403  1.00  0.00    -0.242 OA 
BRANCH  11  12
HETATM   12  C   UNL     1     -11.040  13.998  68.299  1.00  0.00    -0.254 A  
HETATM   13  C   UNL     1     -10.404  14.788  69.251  1.00  0.00    -0.213 A  
HETATM   14  C   UNL     1     -10.271  16.163  69.047  1.00  0.00    -0.250 A  
HETATM   15  C   UNL     1     -10.751  16.767  67.876  1.00  0.00    -0.347 A  
HETATM   16  C   UNL     1     -11.373  15.962  66.915  1.00  0.00     0.123 A  
HETATM   17  C   UNL     1     -11.510  14.585  67.123  1.00  0.00    -0.383 A  
BRANCH  15  18
HETATM   18  C   UNL     1     -10.602  18.255  67.668  1.00  0.00    -0.427 C  
BRANCH  18  19
HETATM   19  C   UNL     1     -10.445  18.625  66.193  1.00  0.00    -0.430 C  
BRANCH  19  20
HETATM   20  O   UNL     1      -9.104  19.051  65.939  1.00  0.00    -0.446 OA 
BRANCH  20  21
HETATM   21  C   UNL     1      -8.460  19.428  67.156  1.00  0.00    -0.289 C  
BRANCH  21  22
HETATM   22  C   UNL     1      -7.530  20.566  66.886  1.00  0.00    -0.336 C  
HETATM   23  C   UNL     1      -6.408  20.852  67.854  1.00  0.00    -0.393 C  
HETATM   24  C   UNL     1      -6.098  20.321  66.482  1.00  0.00    -0.206 C  
ENDBRANCH  21  22
ENDBRANCH  20  21
ENDBRANCH  19  20
ENDBRANCH  18  19
ENDBRANCH  15  18
ENDBRANCH  11  12
ENDBRANCH  10  11
ENDBRANCH   7  10
ENDBRANCH   6   7
ENDBRANCH   4   6
ENDBRANCH   2   4
TORSDOF 11
ENDMDL
MODEL      265
REMARK 921   NORMALIZED FREE ENERGY PREDICTED BY IDOCK:   -3.05 KCAL/MOL
REMARK 922        TOTAL FREE ENERGY PREDICTED BY IDOCK:   -6.34 KCAL/MOL
REMARK 923 INTER-LIGAND FREE ENERGY PREDICTED BY IDOCK:   -5.39 KCAL/MOL
REMARK 924 INTRA-LIGAND FREE ENERGY PREDICTED BY IDOCK:   -0.95 KCAL/MOL
REMARK 927      BINDING AFFINITY PREDICTED BY RF-SCORE:    0.00 PKD
ROOT
HETATM    1  C   UNL     1     -12.304  14.742  64.215  1.00  0.00    -0.345 C  
HETATM    2  C   UNL     1     -12.472  13.357  64.843  1.00  0.00    -0.396 C  
HETATM    3  C   UNL     1     -12.363  12.286  63.755  1.00  0.00    -0.637 C  
ENDROOT
BRANCH   2   4
HETATM    4  N   UNL     1     -11.446  13.187  65.876  1.00  0.00    -0.322 NA 
HETATM    5  H   UNL     1     -10.633  13.770  65.677  1.00  0.00     0.000 HD 
BRANCH   4   6
HETATM    6  C   UNL     1     -11.945  13.433  67.237  1.00  0.00    -0.347 C  
BRANCH   6   7
HETATM    7  C   UNL     1     -10.882  13.028  68.274  1.00  0.00    -0.246 C  
HETATM    8  O   UNL     1     -11.408  13.208  69.600  1.00  0.00    -0.431 OA 
HETATM    9  H   UNL     1     -10.752  12.958  70.240  1.00  0.00     0.000 HD 
BRANCH   7  10
HETATM   10  C   UNL     1     -10.452  11.566  68.091  1.00  0.00    -0.193 C  
BRANCH  10  11
HETATM   11  O   UNL     1      -9.568  11.203  69.162  1.00  0.00    -0.132 OA 
BRANCH  11  12
HETATM   12  C   UNL     1      -9.922  10.070  69.844  1.00  0.00    -0.237 A  
HETATM   13  C   UNL     1     -11.216   9.565  69.926  1.00  0.00    -0.209 A  
HETATM   14  C   UNL     1     -11.471   8.400  70.650  1.00  0.00    -0.235 A  
HETATM   15  C   UNL     1     -10.431   7.704  71.285  1.00  0.00    -0.223 A  
HETATM   16  C   UNL     1      -9.130   8.207  71.182  1.00  0.00    -0.183 A  
HETATM   17  C   UNL     1      -8.876   9.379  70.461  1.00  0.00    -0.287 A  
BRANCH  15  18
HETATM   18  C   UNL     1     -10.721   6.444  72.065  1.00  0.00    -0.261 C  
BRANCH  18  19
HETATM   19  C   UNL     1     -10.881   5.222  71.160  1.00  0.00    -0.060 C  
BRANCH  19  20
HETATM   20  O   UNL     1      -9.607   4.613  70.936  1.00  0.00    -0.153 OA 
BRANCH  20  21
HETATM   21  C   UNL     1      -9.601   3.908  69.694  1.00  0.00    -0.189 C  
BRANCH  21  22
HETATM   22  C   UNL     1      -8.421   4.346  68.888  1.00  0.00    -0.095 C  
HETATM   23  C   UNL     1      -8.633   4.862  67.487  1.00  0.00    -0.104 C  
HETATM   24  C   UNL     1      -8.194   5.803  68.573  1.00  0.00    -0.108 C  
ENDBRANCH  21  22
ENDBRANCH  20  21
ENDBRANCH  19  20
ENDBRANCH  18  19
ENDBRANCH  15  18
ENDBRANCH  11  12
ENDBRANCH  10  11
ENDBRANCH   7  10
ENDBRANCH   6   7
ENDBRANCH   4   6
ENDBRANCH   2   4
TORSDOF 11
ENDMDL
MODEL      266
REMARK 921   NORMALIZED FREE ENERGY PREDICTED BY IDOCK:   -3.05 KCAL/MOL
REMARK 922        TOTAL FREE ENERGY PREDICTED BY IDOCK:   -6.34 KCAL/MOL
REMARK 923 INTER-LIGAND FREE ENERGY PREDICTED BY IDOCK:   -4.85 KCAL/MOL
REMARK 924 INTRA-LIGAND FREE ENERGY PREDICTED BY IDOCK:   -1.48 KCAL/MOL
REMARK 927      BINDING AFFINITY PREDICTED BY RF-SCORE:    0.00 PKD
ROOT
HETATM    1  C   UNL     1     -11.675   9.073  70.365  1.00  0.00    -0.090 C  
HETATM    2  C   UNL     1     -10.342   9.811  70.514  1.00  0.00    -0.283 C  
HETATM    3  C   UNL     1      -9.197   8.887  70.092  1.00  0.00    -0.195 C  
ENDROOT
BRANCH   2   4
HETATM    4  N   UNL     1     -10.389  11.025  69.696  1.00  0.00    -0.446 NA 
HETATM    5  H   UNL     1     -10.284  11.857  70.276  1.00  0.00     0.000 HD 
BRANCH   4   6
HETATM    6  C   UNL     1      -9.408  11.027  68.599  1.00  0.00    -0.194 C  
BRANCH   6   7
HETATM    7  C   UNL     1     -10.089  11.426  67.278  1.00  0.00    -0.192 C  
HETATM    8  O   UNL     1      -9.179  12.203  66.482  1.00  0.00    -0.212 OA 
HETATM    9  H   UNL     1      -9.599  12.449  65.666  1.00  0.00     0.000 HD 
BRANCH   7  10
HETATM   10  C   UNL     1     -10.534  10.191  66.483  1.00  0.00    -0.166 C  
BRANCH  10  11
HETATM   11  O   UNL     1      -9.376   9.421  66.129  1.00  0.00    -0.172 OA 
BRANCH  11  12
HETATM   12  C   UNL     1      -9.410   8.110  66.523  1.00  0.00    -0.206 A  
HETATM   13  C   UNL     1      -8.313   7.256  66.532  1.00  0.00    -0.121 A  
HETATM   14  C   UNL     1      -8.456   5.933  66.954  1.00  0.00    -0.108 A  
HETATM   15  C   UNL     1      -9.695   5.449  67.399  1.00  0.00    -0.153 A  
HETATM   16  C   UNL     1     -10.790   6.319  67.405  1.00  0.00    -0.448 A  
HETATM   17  C   UNL     1     -10.647   7.644  66.976  1.00  0.00    -0.406 A  
BRANCH  15  18
HETATM   18  C   UNL     1      -9.836   4.016  67.853  1.00  0.00    -0.078 C  
BRANCH  18  19
HETATM   19  C   UNL     1      -9.290   3.795  69.263  1.00  0.00    -0.174 C  
BRANCH  19  20
HETATM   20  O   UNL     1      -9.724   4.851  70.124  1.00  0.00    -0.173 OA 
BRANCH  20  21
HETATM   21  C   UNL     1      -9.288   4.616  71.463  1.00  0.00    -0.148 C  
BRANCH  21  22
HETATM   22  C   UNL     1     -10.121   5.431  72.399  1.00  0.00    -0.225 C  
HETATM   23  C   UNL     1     -11.500   5.869  71.971  1.00  0.00    -0.311 C  
HETATM   24  C   UNL     1     -11.343   4.845  73.061  1.00  0.00    -0.354 C  
ENDBRANCH  21  22
ENDBRANCH  20  21
ENDBRANCH  19  20
ENDBRANCH  18  19
ENDBRANCH  15  18
ENDBRANCH  11  12
ENDBRANCH  10  11
ENDBRANCH   7  10
ENDBRANCH   6   7
ENDBRANCH   4   6
ENDBRANCH   2   4
TORSDOF 11
ENDMDL
MODEL      267
REMARK 921   NORMALIZED FREE ENERGY PREDICTED BY IDOCK:   -3.05 KCAL/MOL
REMARK 922        TOTAL FREE ENERGY PREDICTED BY IDOCK:   -6.34 KCAL/MOL
REMARK 923 INTER-LIGAND FREE ENERGY PREDICTED BY IDOCK:   -5.19 KCAL/MOL
REMARK 924 INTRA-LIGAND FREE ENERGY PREDICTED BY IDOCK:   -1.14 KCAL/MOL
REMARK 927      BINDING AFFINITY PREDICTED BY RF-SCORE:    0.00 PKD
ROOT
HETATM    1  C   UNL     1      -6.060  18.751  67.500  1.00  0.00    -0.179 C  
HETATM    2  C   UNL     1      -6.855  17.645  66.802  1.00  0.00    -0.199 C  
HETATM    3  C   UNL     1      -6.362  16.279  67.285  1.00  0.00    -0.214 C  
ENDROOT
BRANCH   2   4
HETATM    4  N   UNL     1      -8.278  17.842  67.091  1.00  0.00    -0.214 NA 
HETATM    5  H   UNL     1      -8.848  17.177  66.570  1.00  0.00     0.000 HD 
BRANCH   4   6
HETATM    6  C   UNL     1      -8.592  17.787  68.527  1.00  0.00    -0.291 C  
BRANCH   6   7
HETATM    7  C   UNL     1      -9.910  17.024  68.754  1.00  0.00    -0.278 C  
HETATM    8  O   UNL     1     -10.764  17.785  69.625  1.00  0.00    -0.264 OA 
HETATM    9  H   UNL     1     -11.577  17.314  69.764  1.00  0.00     0.000 HD 
BRANCH   7  10
HETATM   10  C   UNL     1     -10.638  16.760  67.429  1.00  0.00    -0.291 C  
BRANCH  10  11
HETATM   11  O   UNL     1     -11.490  15.616  67.584  1.00  0.00    -0.284 OA 
BRANCH  11  12
HETATM   12  C   UNL     1     -11.206  14.567  66.752  1.00  0.00    -0.334 A  
HETATM   13  C   UNL     1     -10.402  14.648  65.620  1.00  0.00    -0.370 A  
HETATM   14  C   UNL     1     -10.174  13.515  64.837  1.00  0.00    -0.351 A  
HETATM   15  C   UNL     1     -10.727  12.274  65.188  1.00  0.00    -0.330 A  
HETATM   16  C   UNL     1     -11.518  12.196  66.339  1.00  0.00    -0.430 A  
HETATM   17  C   UNL     1     -11.751  13.334  67.120  1.00  0.00    -0.425 A  
BRANCH  15  18
HETATM   18  C   UNL     1     -10.473  11.056  64.333  1.00  0.00    -0.422 C  
BRANCH  18  19
HETATM   19  C   UNL     1     -10.371   9.774  65.160  1.00  0.00     0.404 C  
BRANCH  19  20
HETATM   20  O   UNL     1      -9.002   9.376  65.271  1.00  0.00    -0.179 OA 
BRANCH  20  21
HETATM   21  C   UNL     1      -8.163  10.515  65.462  1.00  0.00    -0.162 C  
BRANCH  21  22
HETATM   22  C   UNL     1      -7.732  10.572  66.892  1.00  0.00    -0.114 C  
HETATM   23  C   UNL     1      -7.340  11.898  67.495  1.00  0.00    -0.132 C  
HETATM   24  C   UNL     1      -8.603  11.216  67.940  1.00  0.00    -0.135 C  
ENDBRANCH  21  22
ENDBRANCH  20  21
ENDBRANCH  19  20
ENDBRANCH  18  19
ENDBRANCH  15  18
ENDBRANCH  11  12
ENDBRANCH  10  11
ENDBRANCH   7  10
ENDBRANCH   6   7
ENDBRANCH   4   6
ENDBRANCH   2   4
TORSDOF 11
ENDMDL
MODEL      268
REMARK 921   NORMALIZED FREE ENERGY PREDICTED BY IDOCK:   -3.05 KCAL/MOL
REMARK 922        TOTAL FREE ENERGY PREDICTED BY IDOCK:   -6.33 KCAL/MOL
REMARK 923 INTER-LIGAND FREE ENERGY PREDICTED BY IDOCK:   -5.25 KCAL/MOL
REMARK 924 INTRA-LIGAND FREE ENERGY PREDICTED BY IDOCK:   -1.08 KCAL/MOL
REMARK 927      BINDING AFFINITY PREDICTED BY RF-SCORE:    0.00 PKD
ROOT
HETATM    1  C   UNL     1      -7.179   9.391  70.844  1.00  0.00    -0.097 C  
HETATM    2  C   UNL     1      -7.650   7.994  71.255  1.00  0.00    -0.081 C  
HETATM    3  C   UNL     1      -6.816   6.939  70.524  1.00  0.00    -0.058 C  
ENDROOT
BRANCH   2   4
HETATM    4  N   UNL     1      -7.526   7.870  72.709  1.00  0.00    -0.099 NA 
HETATM    5  H   UNL     1      -6.821   8.513  73.068  1.00  0.00     0.000 HD 
BRANCH   4   6
HETATM    6  C   UNL     1      -8.803   8.046  73.419  1.00  0.00    -0.269 C  
BRANCH   6   7
HETATM    7  C   UNL     1      -9.837   7.024  72.913  1.00  0.00    -0.177 C  
HETATM    8  O   UNL     1      -9.747   5.820  73.694  1.00  0.00    -0.149 OA 
HETATM    9  H   UNL     1     -10.385   5.190  73.382  1.00  0.00     0.000 HD 
BRANCH   7  10
HETATM   10  C   UNL     1     -11.264   7.582  73.000  1.00  0.00    -0.322 C  
BRANCH  10  11
HETATM   11  O   UNL     1     -11.858   7.549  71.694  1.00  0.00    -0.270 OA 
BRANCH  11  12
HETATM   12  C   UNL     1     -11.754   8.713  70.981  1.00  0.00    -0.278 A  
HETATM   13  C   UNL     1     -10.703   9.027  70.125  1.00  0.00    -0.258 A  
HETATM   14  C   UNL     1     -10.692  10.245  69.444  1.00  0.00    -0.272 A  
HETATM   15  C   UNL     1     -11.745  11.161  69.588  1.00  0.00    -0.410 A  
HETATM   16  C   UNL     1     -12.808  10.830  70.436  1.00  0.00    -0.285 A  
HETATM   17  C   UNL     1     -12.814   9.611  71.124  1.00  0.00    -0.400 A  
BRANCH  15  18
HETATM   18  C   UNL     1     -11.721  12.475  68.845  1.00  0.00    -0.367 C  
BRANCH  18  19
HETATM   19  C   UNL     1     -10.302  13.016  68.665  1.00  0.00    -0.191 C  
BRANCH  19  20
HETATM   20  O   UNL     1     -10.029  13.208  67.275  1.00  0.00    -0.225 OA 
BRANCH  20  21
HETATM   21  C   UNL     1     -10.790  12.295  66.484  1.00  0.00    -0.259 C  
BRANCH  21  22
HETATM   22  C   UNL     1      -9.896  11.666  65.465  1.00  0.00    -0.264 C  
HETATM   23  C   UNL     1      -8.588  11.057  65.905  1.00  0.00    -0.165 C  
HETATM   24  C   UNL     1      -9.701  10.172  65.420  1.00  0.00    -0.355 C  
ENDBRANCH  21  22
ENDBRANCH  20  21
ENDBRANCH  19  20
ENDBRANCH  18  19
ENDBRANCH  15  18
ENDBRANCH  11  12
ENDBRANCH  10  11
ENDBRANCH   7  10
ENDBRANCH   6   7
ENDBRANCH   4   6
ENDBRANCH   2   4
TORSDOF 11
ENDMDL
MODEL      269
REMARK 921   NORMALIZED FREE ENERGY PREDICTED BY IDOCK:   -3.05 KCAL/MOL
REMARK 922        TOTAL FREE ENERGY PREDICTED BY IDOCK:   -6.33 KCAL/MOL
REMARK 923 INTER-LIGAND FREE ENERGY PREDICTED BY IDOCK:   -5.29 KCAL/MOL
REMARK 924 INTRA-LIGAND FREE ENERGY PREDICTED BY IDOCK:   -1.04 KCAL/MOL
REMARK 927      BINDING AFFINITY PREDICTED BY RF-SCORE:    0.00 PKD
ROOT
HETATM    1  C   UNL     1      -8.332  16.245  66.541  1.00  0.00    -0.343 C  
HETATM    2  C   UNL     1      -8.683  16.173  68.029  1.00  0.00    -0.176 C  
HETATM    3  C   UNL     1      -9.668  17.291  68.377  1.00  0.00    -0.293 C  
ENDROOT
BRANCH   2   4
HETATM    4  N   UNL     1      -9.245  14.849  68.311  1.00  0.00    -0.182 NA 
HETATM    5  H   UNL     1      -9.672  14.826  69.236  1.00  0.00     0.000 HD 
BRANCH   4   6
HETATM    6  C   UNL     1     -10.194  14.389  67.285  1.00  0.00    -0.252 C  
BRANCH   6   7
HETATM    7  C   UNL     1     -11.587  14.183  67.905  1.00  0.00    -0.338 C  
HETATM    8  O   UNL     1     -12.599  14.554  66.953  1.00  0.00    -0.492 OA 
HETATM    9  H   UNL     1     -13.459  14.426  67.336  1.00  0.00     0.000 HD 
BRANCH   7  10
HETATM   10  C   UNL     1     -11.799  12.724  68.332  1.00  0.00    -0.310 C  
BRANCH  10  11
HETATM   11  O   UNL     1     -11.889  11.903  67.158  1.00  0.00    -0.588 OA 
BRANCH  11  12
HETATM   12  C   UNL     1     -11.089  10.792  67.167  1.00  0.00    -0.227 A  
HETATM   13  C   UNL     1     -10.214  10.436  66.146  1.00  0.00    -0.288 A  
HETATM   14  C   UNL     1      -9.441   9.279  66.254  1.00  0.00    -0.284 A  
HETATM   15  C   UNL     1      -9.511   8.470  67.399  1.00  0.00    -0.188 A  
HETATM   16  C   UNL     1     -10.379   8.845  68.430  1.00  0.00    -0.237 A  
HETATM   17  C   UNL     1     -11.158  10.002  68.317  1.00  0.00    -0.247 A  
BRANCH  15  18
HETATM   18  C   UNL     1      -8.669   7.222  67.503  1.00  0.00    -0.121 C  
BRANCH  18  19
HETATM   19  C   UNL     1      -9.292   6.175  68.428  1.00  0.00    -0.116 C  
BRANCH  19  20
HETATM   20  O   UNL     1      -8.339   5.767  69.412  1.00  0.00    -0.109 OA 
BRANCH  20  21
HETATM   21  C   UNL     1      -7.474   6.852  69.751  1.00  0.00    -0.095 C  
BRANCH  21  22
HETATM   22  C   UNL     1      -7.751   7.279  71.156  1.00  0.00    -0.092 C  
HETATM   23  C   UNL     1      -7.651   8.740  71.519  1.00  0.00    -0.130 C  
HETATM   24  C   UNL     1      -8.993   8.063  71.499  1.00  0.00    -0.180 C  
ENDBRANCH  21  22
ENDBRANCH  20  21
ENDBRANCH  19  20
ENDBRANCH  18  19
ENDBRANCH  15  18
ENDBRANCH  11  12
ENDBRANCH  10  11
ENDBRANCH   7  10
ENDBRANCH   6   7
ENDBRANCH   4   6
ENDBRANCH   2   4
TORSDOF 11
ENDMDL
MODEL      270
REMARK 921   NORMALIZED FREE ENERGY PREDICTED BY IDOCK:   -3.05 KCAL/MOL
REMARK 922        TOTAL FREE ENERGY PREDICTED BY IDOCK:   -6.33 KCAL/MOL
REMARK 923 INTER-LIGAND FREE ENERGY PREDICTED BY IDOCK:   -5.37 KCAL/MOL
REMARK 924 INTRA-LIGAND FREE ENERGY PREDICTED BY IDOCK:   -0.96 KCAL/MOL
REMARK 927      BINDING AFFINITY PREDICTED BY RF-SCORE:    0.00 PKD
ROOT
HETATM    1  C   UNL     1     -14.411   7.090  71.752  1.00  0.00    -0.457 C  
HETATM    2  C   UNL     1     -13.540   8.282  71.346  1.00  0.00    -0.225 C  
HETATM    3  C   UNL     1     -13.442   9.264  72.515  1.00  0.00    -0.471 C  
ENDROOT
BRANCH   2   4
HETATM    4  N   UNL     1     -12.222   7.780  70.948  1.00  0.00    -0.491 NA 
HETATM    5  H   UNL     1     -11.751   8.446  70.337  1.00  0.00     0.000 HD 
BRANCH   4   6
HETATM    6  C   UNL     1     -11.367   7.421  72.089  1.00  0.00    -0.271 C  
BRANCH   6   7
HETATM    7  C   UNL     1     -10.625   6.103  71.804  1.00  0.00    -0.223 C  
HETATM    8  O   UNL     1     -11.200   5.045  72.589  1.00  0.00    -0.226 OA 
HETATM    9  H   UNL     1     -10.742   4.232  72.412  1.00  0.00     0.000 HD 
BRANCH   7  10
HETATM   10  C   UNL     1     -10.697   5.731  70.316  1.00  0.00    -0.309 C  
BRANCH  10  11
HETATM   11  O   UNL     1      -9.399   5.899  69.729  1.00  0.00    -0.145 OA 
BRANCH  11  12
HETATM   12  C   UNL     1      -9.298   6.931  68.834  1.00  0.00    -0.134 A  
HETATM   13  C   UNL     1     -10.282   7.281  67.915  1.00  0.00    -0.237 A  
HETATM   14  C   UNL     1     -10.079   8.353  67.044  1.00  0.00    -0.354 A  
HETATM   15  C   UNL     1      -8.898   9.109  67.094  1.00  0.00    -0.130 A  
HETATM   16  C   UNL     1      -7.922   8.762  68.035  1.00  0.00    -0.106 A  
HETATM   17  C   UNL     1      -8.124   7.684  68.903  1.00  0.00    -0.127 A  
BRANCH  15  18
HETATM   18  C   UNL     1      -8.692  10.266  66.147  1.00  0.00    -0.163 C  
BRANCH  18  19
HETATM   19  C   UNL     1      -8.409  11.577  66.880  1.00  0.00    -0.166 C  
BRANCH  19  20
HETATM   20  O   UNL     1      -9.638  12.251  67.164  1.00  0.00    -0.193 OA 
BRANCH  20  21
HETATM   21  C   UNL     1      -9.516  13.036  68.350  1.00  0.00    -0.165 C  
BRANCH  21  22
HETATM   22  C   UNL     1     -10.843  13.641  68.675  1.00  0.00    -0.283 C  
HETATM   23  C   UNL     1     -11.559  13.224  69.936  1.00  0.00    -0.260 C  
HETATM   24  C   UNL     1     -10.995  14.612  69.818  1.00  0.00    -0.232 C  
ENDBRANCH  21  22
ENDBRANCH  20  21
ENDBRANCH  19  20
ENDBRANCH  18  19
ENDBRANCH  15  18
ENDBRANCH  11  12
ENDBRANCH  10  11
ENDBRANCH   7  10
ENDBRANCH   6   7
ENDBRANCH   4   6
ENDBRANCH   2   4
TORSDOF 11
ENDMDL
MODEL      271
REMARK 921   NORMALIZED FREE ENERGY PREDICTED BY IDOCK:   -3.02 KCAL/MOL
REMARK 922        TOTAL FREE ENERGY PREDICTED BY IDOCK:   -6.28 KCAL/MOL
REMARK 923 INTER-LIGAND FREE ENERGY PREDICTED BY IDOCK:   -5.64 KCAL/MOL
REMARK 924 INTRA-LIGAND FREE ENERGY PREDICTED BY IDOCK:   -0.65 KCAL/MOL
REMARK 927      BINDING AFFINITY PREDICTED BY RF-SCORE:    0.00 PKD
ROOT
HETATM    1  C   UNL     1     -10.430   2.771  63.525  1.00  0.00    -0.207 C  
HETATM    2  C   UNL     1      -9.736   3.497  64.680  1.00  0.00    -0.172 C  
HETATM    3  C   UNL     1     -10.697   4.518  65.292  1.00  0.00    -0.145 C  
ENDROOT
BRANCH   2   4
HETATM    4  N   UNL     1      -9.303   2.501  65.663  1.00  0.00    -0.336 NA 
HETATM    5  H   UNL     1      -9.676   1.580  65.433  1.00  0.00     0.000 HD 
BRANCH   4   6
HETATM    6  C   UNL     1      -7.843   2.447  65.833  1.00  0.00    -0.081 C  
BRANCH   6   7
HETATM    7  C   UNL     1      -7.431   3.176  67.124  1.00  0.00    -0.070 C  
HETATM    8  O   UNL     1      -7.512   4.597  66.922  1.00  0.00    -0.083 OA 
HETATM    9  H   UNL     1      -7.257   5.047  67.719  1.00  0.00     0.000 HD 
BRANCH   7  10
HETATM   10  C   UNL     1      -8.328   2.776  68.303  1.00  0.00    -0.070 C  
BRANCH  10  11
HETATM   11  O   UNL     1      -9.539   3.544  68.249  1.00  0.00    -0.170 OA 
BRANCH  11  12
HETATM   12  C   UNL     1      -9.894   4.147  69.425  1.00  0.00    -0.093 A  
HETATM   13  C   UNL     1     -10.530   5.380  69.524  1.00  0.00    -0.343 A  
HETATM   14  C   UNL     1     -10.850   5.908  70.776  1.00  0.00    -0.352 A  
HETATM   15  C   UNL     1     -10.561   5.199  71.952  1.00  0.00    -0.256 A  
HETATM   16  C   UNL     1      -9.938   3.950  71.844  1.00  0.00    -0.238 A  
HETATM   17  C   UNL     1      -9.613   3.425  70.588  1.00  0.00    -0.238 A  
BRANCH  15  18
HETATM   18  C   UNL     1     -10.911   5.781  73.300  1.00  0.00    -0.292 C  
BRANCH  18  19
HETATM   19  C   UNL     1     -10.528   7.257  73.414  1.00  0.00    -0.377 C  
BRANCH  19  20
HETATM   20  O   UNL     1     -11.571   8.073  72.876  1.00  0.00    -0.397 OA 
BRANCH  20  21
HETATM   21  C   UNL     1     -11.035   9.033  71.964  1.00  0.00    -0.285 C  
BRANCH  21  22
HETATM   22  C   UNL     1     -12.135   9.550  71.095  1.00  0.00    -0.429 C  
HETATM   23  C   UNL     1     -13.410  10.048  71.731  1.00  0.00    -0.492 C  
HETATM   24  C   UNL     1     -12.476  11.018  71.064  1.00  0.00    -0.512 C  
ENDBRANCH  21  22
ENDBRANCH  20  21
ENDBRANCH  19  20
ENDBRANCH  18  19
ENDBRANCH  15  18
ENDBRANCH  11  12
ENDBRANCH  10  11
ENDBRANCH   7  10
ENDBRANCH   6   7
ENDBRANCH   4   6
ENDBRANCH   2   4
TORSDOF 11
ENDMDL
MODEL      272
REMARK 921   NORMALIZED FREE ENERGY PREDICTED BY IDOCK:   -3.02 KCAL/MOL
REMARK 922        TOTAL FREE ENERGY PREDICTED BY IDOCK:   -6.28 KCAL/MOL
REMARK 923 INTER-LIGAND FREE ENERGY PREDICTED BY IDOCK:   -5.05 KCAL/MOL
REMARK 924 INTRA-LIGAND FREE ENERGY PREDICTED BY IDOCK:   -1.23 KCAL/MOL
REMARK 927      BINDING AFFINITY PREDICTED BY RF-SCORE:    0.00 PKD
ROOT
HETATM    1  C   UNL     1     -10.439   8.590  66.944  1.00  0.00    -0.345 C  
HETATM    2  C   UNL     1      -9.864   9.932  66.482  1.00  0.00    -0.215 C  
HETATM    3  C   UNL     1      -9.946  10.024  64.957  1.00  0.00    -0.320 C  
ENDROOT
BRANCH   2   4
HETATM    4  N   UNL     1     -10.616  11.008  67.132  1.00  0.00    -0.236 NA 
HETATM    5  H   UNL     1     -11.614  10.802  67.133  1.00  0.00     0.000 HD 
BRANCH   4   6
HETATM    6  C   UNL     1     -10.143  11.309  68.492  1.00  0.00    -0.204 C  
BRANCH   6   7
HETATM    7  C   UNL     1     -11.311  11.800  69.364  1.00  0.00    -0.272 C  
HETATM    8  O   UNL     1     -12.176  12.642  68.583  1.00  0.00    -0.176 OA 
HETATM    9  H   UNL     1     -12.897  12.946  69.122  1.00  0.00     0.000 HD 
BRANCH   7  10
HETATM   10  C   UNL     1     -12.120  10.625  69.930  1.00  0.00    -0.299 C  
BRANCH  10  11
HETATM   11  O   UNL     1     -11.499  10.171  71.141  1.00  0.00    -0.357 OA 
BRANCH  11  12
HETATM   12  C   UNL     1     -11.213   8.832  71.177  1.00  0.00    -0.277 A  
HETATM   13  C   UNL     1     -12.013   7.836  70.627  1.00  0.00    -0.090 A  
HETATM   14  C   UNL     1     -11.629   6.497  70.719  1.00  0.00    -0.437 A  
HETATM   15  C   UNL     1     -10.425   6.133  71.341  1.00  0.00    -0.273 A  
HETATM   16  C   UNL     1      -9.617   7.143  71.874  1.00  0.00    -0.161 A  
HETATM   17  C   UNL     1     -10.006   8.484  71.787  1.00  0.00    -0.345 A  
BRANCH  15  18
HETATM   18  C   UNL     1     -10.023   4.681  71.433  1.00  0.00    -0.267 C  
BRANCH  18  19
HETATM   19  C   UNL     1      -8.549   4.463  71.089  1.00  0.00    -0.098 C  
BRANCH  19  20
HETATM   20  O   UNL     1      -8.369   4.503  69.671  1.00  0.00    -0.069 OA 
BRANCH  20  21
HETATM   21  C   UNL     1      -8.817   3.285  69.075  1.00  0.00    -0.105 C  
BRANCH  21  22
HETATM   22  C   UNL     1      -8.914   3.471  67.596  1.00  0.00    -0.168 C  
HETATM   23  C   UNL     1      -9.881   4.486  67.040  1.00  0.00    -0.232 C  
HETATM   24  C   UNL     1      -8.401   4.725  66.935  1.00  0.00    -0.106 C  
ENDBRANCH  21  22
ENDBRANCH  20  21
ENDBRANCH  19  20
ENDBRANCH  18  19
ENDBRANCH  15  18
ENDBRANCH  11  12
ENDBRANCH  10  11
ENDBRANCH   7  10
ENDBRANCH   6   7
ENDBRANCH   4   6
ENDBRANCH   2   4
TORSDOF 11
ENDMDL
MODEL      273
REMARK 921   NORMALIZED FREE ENERGY PREDICTED BY IDOCK:   -3.01 KCAL/MOL
REMARK 922        TOTAL FREE ENERGY PREDICTED BY IDOCK:   -6.28 KCAL/MOL
REMARK 923 INTER-LIGAND FREE ENERGY PREDICTED BY IDOCK:   -5.42 KCAL/MOL
REMARK 924 INTRA-LIGAND FREE ENERGY PREDICTED BY IDOCK:   -0.85 KCAL/MOL
REMARK 927      BINDING AFFINITY PREDICTED BY RF-SCORE:    0.00 PKD
ROOT
HETATM    1  C   UNL     1      -7.585  10.384  69.126  1.00  0.00    -0.117 C  
HETATM    2  C   UNL     1      -7.731   8.949  68.613  1.00  0.00    -0.097 C  
HETATM    3  C   UNL     1      -8.445   8.100  69.667  1.00  0.00    -0.126 C  
ENDROOT
BRANCH   2   4
HETATM    4  N   UNL     1      -8.471   8.981  67.349  1.00  0.00    -0.115 NA 
HETATM    5  H   UNL     1      -8.865   9.907  67.183  1.00  0.00     0.000 HD 
BRANCH   4   6
HETATM    6  C   UNL     1      -7.671   8.540  66.196  1.00  0.00    -0.093 C  
BRANCH   6   7
HETATM    7  C   UNL     1      -7.669   9.626  65.104  1.00  0.00    -0.117 C  
HETATM    8  O   UNL     1      -6.496   9.485  64.285  1.00  0.00    -0.090 OA 
HETATM    9  H   UNL     1      -6.496  10.155  63.612  1.00  0.00     0.000 HD 
BRANCH   7  10
HETATM   10  C   UNL     1      -8.921   9.533  64.221  1.00  0.00    -0.205 C  
BRANCH  10  11
HETATM   11  O   UNL     1     -10.072   9.878  65.006  1.00  0.00    -0.286 OA 
BRANCH  11  12
HETATM   12  C   UNL     1     -10.361  11.215  65.052  1.00  0.00    -0.301 A  
HETATM   13  C   UNL     1     -10.026  12.063  66.103  1.00  0.00    -0.254 A  
HETATM   14  C   UNL     1     -10.367  13.415  66.051  1.00  0.00    -0.297 A  
HETATM   15  C   UNL     1     -11.028  13.949  64.935  1.00  0.00    -0.391 A  
HETATM   16  C   UNL     1     -11.345  13.095  63.874  1.00  0.00    -0.420 A  
HETATM   17  C   UNL     1     -11.007  11.737  63.929  1.00  0.00    -0.476 A  
BRANCH  15  18
HETATM   18  C   UNL     1     -11.392  15.414  64.892  1.00  0.00    -0.367 C  
BRANCH  18  19
HETATM   19  C   UNL     1     -10.441  16.275  65.724  1.00  0.00    -0.364 C  
BRANCH  19  20
HETATM   20  O   UNL     1     -10.749  17.658  65.538  1.00  0.00    -0.565 OA 
BRANCH  20  21
HETATM   21  C   UNL     1      -9.613  18.469  65.838  1.00  0.00     0.109 C  
BRANCH  21  22
HETATM   22  C   UNL     1      -9.928  19.338  67.012  1.00  0.00    -0.447 C  
HETATM   23  C   UNL     1     -11.128  19.019  67.869  1.00  0.00     0.019 C  
HETATM   24  C   UNL     1      -9.742  18.836  68.422  1.00  0.00    -0.421 C  
ENDBRANCH  21  22
ENDBRANCH  20  21
ENDBRANCH  19  20
ENDBRANCH  18  19
ENDBRANCH  15  18
ENDBRANCH  11  12
ENDBRANCH  10  11
ENDBRANCH   7  10
ENDBRANCH   6   7
ENDBRANCH   4   6
ENDBRANCH   2   4
TORSDOF 11
ENDMDL
MODEL      274
REMARK 921   NORMALIZED FREE ENERGY PREDICTED BY IDOCK:   -3.01 KCAL/MOL
REMARK 922        TOTAL FREE ENERGY PREDICTED BY IDOCK:   -6.27 KCAL/MOL
REMARK 923 INTER-LIGAND FREE ENERGY PREDICTED BY IDOCK:   -4.70 KCAL/MOL
REMARK 924 INTRA-LIGAND FREE ENERGY PREDICTED BY IDOCK:   -1.57 KCAL/MOL
REMARK 927      BINDING AFFINITY PREDICTED BY RF-SCORE:    0.00 PKD
ROOT
HETATM    1  C   UNL     1      -7.342   9.269  70.698  1.00  0.00    -0.129 C  
HETATM    2  C   UNL     1      -7.972   7.912  71.023  1.00  0.00    -0.090 C  
HETATM    3  C   UNL     1      -7.336   6.830  70.148  1.00  0.00    -0.085 C  
ENDROOT
BRANCH   2   4
HETATM    4  N   UNL     1      -7.778   7.640  72.450  1.00  0.00    -0.093 NA 
HETATM    5  H   UNL     1      -6.901   8.042  72.779  1.00  0.00     0.000 HD 
BRANCH   4   6
HETATM    6  C   UNL     1      -8.903   8.086  73.286  1.00  0.00    -0.265 C  
BRANCH   6   7
HETATM    7  C   UNL     1     -10.094   7.122  73.132  1.00  0.00    -0.251 C  
HETATM    8  O   UNL     1     -10.271   6.376  74.348  1.00  0.00    -0.335 OA 
HETATM    9  H   UNL     1     -11.006   5.781  74.253  1.00  0.00     0.000 HD 
BRANCH   7  10
HETATM   10  C   UNL     1     -11.388   7.880  72.807  1.00  0.00    -0.393 C  
BRANCH  10  11
HETATM   11  O   UNL     1     -12.044   7.233  71.706  1.00  0.00    -0.292 OA 
BRANCH  11  12
HETATM   12  C   UNL     1     -11.510   7.504  70.475  1.00  0.00    -0.237 A  
HETATM   13  C   UNL     1     -11.141   8.770  70.031  1.00  0.00    -0.169 A  
HETATM   14  C   UNL     1     -10.604   8.938  68.754  1.00  0.00    -0.185 A  
HETATM   15  C   UNL     1     -10.402   7.838  67.907  1.00  0.00    -0.276 A  
HETATM   16  C   UNL     1     -10.756   6.565  68.368  1.00  0.00    -0.339 A  
HETATM   17  C   UNL     1     -11.301   6.399  69.646  1.00  0.00    -0.479 A  
BRANCH  15  18
HETATM   18  C   UNL     1      -9.820   8.033  66.528  1.00  0.00    -0.289 C  
BRANCH  18  19
HETATM   19  C   UNL     1     -10.017   9.458  66.009  1.00  0.00    -0.281 C  
BRANCH  19  20
HETATM   20  O   UNL     1      -8.774   9.978  65.532  1.00  0.00    -0.143 OA 
BRANCH  20  21
HETATM   21  C   UNL     1      -7.678   9.284  66.130  1.00  0.00    -0.096 C  
BRANCH  21  22
HETATM   22  C   UNL     1      -6.467  10.158  66.095  1.00  0.00    -0.096 C  
HETATM   23  C   UNL     1      -6.454  11.437  66.895  1.00  0.00    -0.138 C  
HETATM   24  C   UNL     1      -5.570  10.291  67.299  1.00  0.00    -0.041 C  
ENDBRANCH  21  22
ENDBRANCH  20  21
ENDBRANCH  19  20
ENDBRANCH  18  19
ENDBRANCH  15  18
ENDBRANCH  11  12
ENDBRANCH  10  11
ENDBRANCH   7  10
ENDBRANCH   6   7
ENDBRANCH   4   6
ENDBRANCH   2   4
TORSDOF 11
ENDMDL
MODEL      275
REMARK 921   NORMALIZED FREE ENERGY PREDICTED BY IDOCK:   -3.00 KCAL/MOL
REMARK 922        TOTAL FREE ENERGY PREDICTED BY IDOCK:   -6.25 KCAL/MOL
REMARK 923 INTER-LIGAND FREE ENERGY PREDICTED BY IDOCK:   -5.34 KCAL/MOL
REMARK 924 INTRA-LIGAND FREE ENERGY PREDICTED BY IDOCK:   -0.91 KCAL/MOL
REMARK 927      BINDING AFFINITY PREDICTED BY RF-SCORE:    0.00 PKD
ROOT
HETATM    1  C   UNL     1     -10.262   7.651  72.221  1.00  0.00    -0.268 C  
HETATM    2  C   UNL     1     -11.330   6.576  72.004  1.00  0.00    -0.285 C  
HETATM    3  C   UNL     1     -12.616   7.230  71.494  1.00  0.00    -0.415 C  
ENDROOT
BRANCH   2   4
HETATM    4  N   UNL     1     -10.810   5.588  71.056  1.00  0.00    -0.215 NA 
HETATM    5  H   UNL     1     -11.189   5.748  70.122  1.00  0.00     0.000 HD 
BRANCH   4   6
HETATM    6  C   UNL     1      -9.341   5.532  71.021  1.00  0.00    -0.153 C  
BRANCH   6   7
HETATM    7  C   UNL     1      -8.875   4.295  70.234  1.00  0.00    -0.084 C  
HETATM    8  O   UNL     1      -9.775   3.200  70.479  1.00  0.00    -0.161 OA 
HETATM    9  H   UNL     1      -9.487   2.436  69.992  1.00  0.00     0.000 HD 
BRANCH   7  10
HETATM   10  C   UNL     1      -8.817   4.579  68.727  1.00  0.00    -0.101 C  
BRANCH  10  11
HETATM   11  O   UNL     1      -9.873   5.487  68.382  1.00  0.00    -0.127 OA 
BRANCH  11  12
HETATM   12  C   UNL     1      -9.562   6.389  67.400  1.00  0.00    -0.120 A  
HETATM   13  C   UNL     1     -10.141   7.647  67.266  1.00  0.00    -0.306 A  
HETATM   14  C   UNL     1      -9.752   8.492  66.226  1.00  0.00    -0.300 A  
HETATM   15  C   UNL     1      -8.758   8.104  65.315  1.00  0.00    -0.093 A  
HETATM   16  C   UNL     1      -8.167   6.845  65.467  1.00  0.00    -0.135 A  
HETATM   17  C   UNL     1      -8.563   5.996  66.507  1.00  0.00    -0.124 A  
BRANCH  15  18
HETATM   18  C   UNL     1      -8.347   9.028  64.194  1.00  0.00    -0.178 C  
BRANCH  18  19
HETATM   19  C   UNL     1      -8.938  10.429  64.349  1.00  0.00    -0.223 C  
BRANCH  19  20
HETATM   20  O   UNL     1      -9.878  10.679  63.300  1.00  0.00    -0.319 OA 
BRANCH  20  21
HETATM   21  C   UNL     1     -10.325  12.034  63.341  1.00  0.00    -0.434 C  
BRANCH  21  22
HETATM   22  C   UNL     1     -11.702  12.078  63.921  1.00  0.00    -0.537 C  
HETATM   23  C   UNL     1     -11.900  12.613  65.318  1.00  0.00    -0.452 C  
HETATM   24  C   UNL     1     -12.412  13.390  64.138  1.00  0.00    -0.312 C  
ENDBRANCH  21  22
ENDBRANCH  20  21
ENDBRANCH  19  20
ENDBRANCH  18  19
ENDBRANCH  15  18
ENDBRANCH  11  12
ENDBRANCH  10  11
ENDBRANCH   7  10
ENDBRANCH   6   7
ENDBRANCH   4   6
ENDBRANCH   2   4
TORSDOF 11
ENDMDL
MODEL      276
REMARK 921   NORMALIZED FREE ENERGY PREDICTED BY IDOCK:   -2.99 KCAL/MOL
REMARK 922        TOTAL FREE ENERGY PREDICTED BY IDOCK:   -6.24 KCAL/MOL
REMARK 923 INTER-LIGAND FREE ENERGY PREDICTED BY IDOCK:   -5.68 KCAL/MOL
REMARK 924 INTRA-LIGAND FREE ENERGY PREDICTED BY IDOCK:   -0.56 KCAL/MOL
REMARK 927      BINDING AFFINITY PREDICTED BY RF-SCORE:    0.00 PKD
ROOT
HETATM    1  C   UNL     1      -7.938   7.136  73.508  1.00  0.00    -0.127 C  
HETATM    2  C   UNL     1      -9.207   6.365  73.136  1.00  0.00    -0.128 C  
HETATM    3  C   UNL     1     -10.414   7.008  73.822  1.00  0.00    -0.392 C  
ENDROOT
BRANCH   2   4
HETATM    4  N   UNL     1      -9.344   6.371  71.678  1.00  0.00    -0.145 NA 
HETATM    5  H   UNL     1      -9.019   5.490  71.280  1.00  0.00     0.000 HD 
BRANCH   4   6
HETATM    6  C   UNL     1     -10.709   6.678  71.224  1.00  0.00    -0.231 C  
BRANCH   6   7
HETATM    7  C   UNL     1     -10.671   7.714  70.087  1.00  0.00    -0.240 C  
HETATM    8  O   UNL     1     -11.362   7.196  68.937  1.00  0.00    -0.468 OA 
HETATM    9  H   UNL     1     -11.338   7.837  68.236  1.00  0.00     0.000 HD 
BRANCH   7  10
HETATM   10  C   UNL     1     -11.317   9.039  70.515  1.00  0.00    -0.243 C  
BRANCH  10  11
HETATM   11  O   UNL     1     -10.375  10.103  70.317  1.00  0.00    -0.267 OA 
BRANCH  11  12
HETATM   12  C   UNL     1     -10.478  10.750  69.115  1.00  0.00    -0.218 A  
HETATM   13  C   UNL     1     -11.614  11.419  68.669  1.00  0.00    -0.384 A  
HETATM   14  C   UNL     1     -11.615  12.048  67.423  1.00  0.00    -0.388 A  
HETATM   15  C   UNL     1     -10.471  12.040  66.611  1.00  0.00    -0.247 A  
HETATM   16  C   UNL     1      -9.327  11.382  67.074  1.00  0.00    -0.183 A  
HETATM   17  C   UNL     1      -9.329  10.746  68.321  1.00  0.00    -0.161 A  
BRANCH  15  18
HETATM   18  C   UNL     1     -10.486  12.724  65.266  1.00  0.00    -0.312 C  
BRANCH  18  19
HETATM   19  C   UNL     1     -11.145  14.103  65.320  1.00  0.00    -0.331 C  
BRANCH  19  20
HETATM   20  O   UNL     1     -10.143  15.122  65.322  1.00  0.00    -0.348 OA 
BRANCH  20  21
HETATM   21  C   UNL     1      -9.412  15.103  66.548  1.00  0.00    -0.283 C  
BRANCH  21  22
HETATM   22  C   UNL     1      -8.074  15.732  66.331  1.00  0.00    -0.126 C  
HETATM   23  C   UNL     1      -7.731  17.011  67.053  1.00  0.00    -0.219 C  
HETATM   24  C   UNL     1      -7.030  15.733  67.419  1.00  0.00    -0.235 C  
ENDBRANCH  21  22
ENDBRANCH  20  21
ENDBRANCH  19  20
ENDBRANCH  18  19
ENDBRANCH  15  18
ENDBRANCH  11  12
ENDBRANCH  10  11
ENDBRANCH   7  10
ENDBRANCH   6   7
ENDBRANCH   4   6
ENDBRANCH   2   4
TORSDOF 11
ENDMDL
MODEL      277
REMARK 921   NORMALIZED FREE ENERGY PREDICTED BY IDOCK:   -2.98 KCAL/MOL
REMARK 922        TOTAL FREE ENERGY PREDICTED BY IDOCK:   -6.23 KCAL/MOL
REMARK 923 INTER-LIGAND FREE ENERGY PREDICTED BY IDOCK:   -5.18 KCAL/MOL
REMARK 924 INTRA-LIGAND FREE ENERGY PREDICTED BY IDOCK:   -1.04 KCAL/MOL
REMARK 927      BINDING AFFINITY PREDICTED BY RF-SCORE:    0.00 PKD
ROOT
HETATM    1  C   UNL     1     -10.837   7.107  67.108  1.00  0.00    -0.403 C  
HETATM    2  C   UNL     1     -10.046   8.412  66.988  1.00  0.00    -0.284 C  
HETATM    3  C   UNL     1     -10.808   9.537  67.691  1.00  0.00    -0.253 C  
ENDROOT
BRANCH   2   4
HETATM    4  N   UNL     1      -8.719   8.207  67.574  1.00  0.00    -0.128 NA 
HETATM    5  H   UNL     1      -8.069   7.840  66.880  1.00  0.00     0.000 HD 
BRANCH   4   6
HETATM    6  C   UNL     1      -8.173   9.413  68.214  1.00  0.00    -0.118 C  
BRANCH   6   7
HETATM    7  C   UNL     1      -6.904   9.878  67.478  1.00  0.00    -0.081 C  
HETATM    8  O   UNL     1      -6.305   8.761  66.798  1.00  0.00    -0.058 OA 
HETATM    9  H   UNL     1      -5.522   9.048  66.343  1.00  0.00     0.000 HD 
BRANCH   7  10
HETATM   10  C   UNL     1      -7.221  10.983  66.461  1.00  0.00    -0.143 C  
BRANCH  10  11
HETATM   11  O   UNL     1      -8.320  11.765  66.948  1.00  0.00    -0.163 OA 
BRANCH  11  12
HETATM   12  C   UNL     1      -7.982  13.003  67.425  1.00  0.00    -0.172 A  
HETATM   13  C   UNL     1      -6.688  13.513  67.459  1.00  0.00    -0.144 A  
HETATM   14  C   UNL     1      -6.450  14.791  67.968  1.00  0.00    -0.163 A  
HETATM   15  C   UNL     1      -7.506  15.592  68.428  1.00  0.00    -0.115 A  
HETATM   16  C   UNL     1      -8.807  15.079  68.373  1.00  0.00    -0.178 A  
HETATM   17  C   UNL     1      -9.044  13.795  67.869  1.00  0.00    -0.193 A  
BRANCH  15  18
HETATM   18  C   UNL     1      -7.235  16.972  68.976  1.00  0.00    -0.229 C  
BRANCH  18  19
HETATM   19  C   UNL     1      -6.674  17.920  67.915  1.00  0.00    -0.193 C  
BRANCH  19  20
HETATM   20  O   UNL     1      -7.699  18.811  67.468  1.00  0.00    -0.228 OA 
BRANCH  20  21
HETATM   21  C   UNL     1      -8.342  19.433  68.582  1.00  0.00    -0.362 C  
BRANCH  21  22
HETATM   22  C   UNL     1      -9.799  19.581  68.286  1.00  0.00    -0.512 C  
HETATM   23  C   UNL     1     -10.232  20.064  66.924  1.00  0.00    -0.595 C  
HETATM   24  C   UNL     1     -10.497  18.642  67.335  1.00  0.00    -0.467 C  
ENDBRANCH  21  22
ENDBRANCH  20  21
ENDBRANCH  19  20
ENDBRANCH  18  19
ENDBRANCH  15  18
ENDBRANCH  11  12
ENDBRANCH  10  11
ENDBRANCH   7  10
ENDBRANCH   6   7
ENDBRANCH   4   6
ENDBRANCH   2   4
TORSDOF 11
ENDMDL
MODEL      278
REMARK 921   NORMALIZED FREE ENERGY PREDICTED BY IDOCK:   -2.97 KCAL/MOL
REMARK 922        TOTAL FREE ENERGY PREDICTED BY IDOCK:   -6.20 KCAL/MOL
REMARK 923 INTER-LIGAND FREE ENERGY PREDICTED BY IDOCK:   -5.18 KCAL/MOL
REMARK 924 INTRA-LIGAND FREE ENERGY PREDICTED BY IDOCK:   -1.02 KCAL/MOL
REMARK 927      BINDING AFFINITY PREDICTED BY RF-SCORE:    0.00 PKD
ROOT
HETATM    1  C   UNL     1     -11.762   6.613  70.327  1.00  0.00    -0.432 C  
HETATM    2  C   UNL     1     -10.639   7.142  71.222  1.00  0.00    -0.213 C  
HETATM    3  C   UNL     1     -11.235   8.028  72.319  1.00  0.00    -0.402 C  
ENDROOT
BRANCH   2   4
HETATM    4  N   UNL     1      -9.914   5.999  71.782  1.00  0.00    -0.169 NA 
HETATM    5  H   UNL     1     -10.429   5.132  71.627  1.00  0.00     0.000 HD 
BRANCH   4   6
HETATM    6  C   UNL     1      -8.535   5.884  71.284  1.00  0.00    -0.128 C  
BRANCH   6   7
HETATM    7  C   UNL     1      -8.451   4.797  70.198  1.00  0.00    -0.082 C  
HETATM    8  O   UNL     1      -9.533   3.864  70.364  1.00  0.00    -0.149 OA 
HETATM    9  H   UNL     1      -9.481   3.193  69.693  1.00  0.00     0.000 HD 
BRANCH   7  10
HETATM   10  C   UNL     1      -8.516   5.406  68.791  1.00  0.00    -0.096 C  
BRANCH  10  11
HETATM   11  O   UNL     1      -7.723   6.602  68.763  1.00  0.00    -0.105 OA 
BRANCH  11  12
HETATM   12  C   UNL     1      -8.344   7.694  68.220  1.00  0.00    -0.125 A  
HETATM   13  C   UNL     1      -9.096   7.680  67.050  1.00  0.00    -0.157 A  
HETATM   14  C   UNL     1      -9.689   8.853  66.582  1.00  0.00    -0.303 A  
HETATM   15  C   UNL     1      -9.561  10.058  67.290  1.00  0.00    -0.188 A  
HETATM   16  C   UNL     1      -8.820  10.060  68.476  1.00  0.00    -0.120 A  
HETATM   17  C   UNL     1      -8.220   8.884  68.941  1.00  0.00    -0.117 A  
BRANCH  15  18
HETATM   18  C   UNL     1     -10.208  11.320  66.772  1.00  0.00    -0.263 C  
BRANCH  18  19
HETATM   19  C   UNL     1     -11.640  11.491  67.280  1.00  0.00    -0.199 C  
BRANCH  19  20
HETATM   20  O   UNL     1     -12.400  12.258  66.342  1.00  0.00    -0.531 OA 
BRANCH  20  21
HETATM   21  C   UNL     1     -11.537  12.885  65.392  1.00  0.00    -0.350 C  
BRANCH  21  22
HETATM   22  C   UNL     1     -11.635  14.368  65.546  1.00  0.00    -0.347 C  
HETATM   23  C   UNL     1     -10.520  15.241  65.025  1.00  0.00    -0.411 C  
HETATM   24  C   UNL     1     -11.864  15.259  64.352  1.00  0.00    -0.288 C  
ENDBRANCH  21  22
ENDBRANCH  20  21
ENDBRANCH  19  20
ENDBRANCH  18  19
ENDBRANCH  15  18
ENDBRANCH  11  12
ENDBRANCH  10  11
ENDBRANCH   7  10
ENDBRANCH   6   7
ENDBRANCH   4   6
ENDBRANCH   2   4
TORSDOF 11
ENDMDL
MODEL      279
REMARK 921   NORMALIZED FREE ENERGY PREDICTED BY IDOCK:   -2.95 KCAL/MOL
REMARK 922        TOTAL FREE ENERGY PREDICTED BY IDOCK:   -6.18 KCAL/MOL
REMARK 923 INTER-LIGAND FREE ENERGY PREDICTED BY IDOCK:   -4.76 KCAL/MOL
REMARK 924 INTRA-LIGAND FREE ENERGY PREDICTED BY IDOCK:   -1.42 KCAL/MOL
REMARK 927      BINDING AFFINITY PREDICTED BY RF-SCORE:    0.00 PKD
ROOT
HETATM    1  C   UNL     1     -11.872  10.771  68.484  1.00  0.00    -0.168 C  
HETATM    2  C   UNL     1     -11.164  11.957  67.825  1.00  0.00    -0.267 C  
HETATM    3  C   UNL     1     -12.025  12.494  66.679  1.00  0.00    -0.351 C  
ENDROOT
BRANCH   2   4
HETATM    4  N   UNL     1     -10.922  12.979  68.847  1.00  0.00    -0.296 NA 
HETATM    5  H   UNL     1     -11.006  12.583  69.782  1.00  0.00     0.000 HD 
BRANCH   4   6
HETATM    6  C   UNL     1      -9.634  13.670  68.685  1.00  0.00    -0.099 C  
BRANCH   6   7
HETATM    7  C   UNL     1      -8.897  13.136  67.444  1.00  0.00    -0.204 C  
HETATM    8  O   UNL     1      -8.579  14.229  66.564  1.00  0.00    -0.442 OA 
HETATM    9  H   UNL     1      -8.124  13.899  65.798  1.00  0.00     0.000 HD 
BRANCH   7  10
HETATM   10  C   UNL     1      -7.605  12.404  67.832  1.00  0.00    -0.130 C  
BRANCH  10  11
HETATM   11  O   UNL     1      -7.817  11.709  69.070  1.00  0.00    -0.080 OA 
BRANCH  11  12
HETATM   12  C   UNL     1      -8.074  10.371  68.946  1.00  0.00    -0.129 A  
HETATM   13  C   UNL     1      -8.412   9.736  67.755  1.00  0.00    -0.121 A  
HETATM   14  C   UNL     1      -8.656   8.362  67.736  1.00  0.00    -0.130 A  
HETATM   15  C   UNL     1      -8.540   7.593  68.904  1.00  0.00    -0.129 A  
HETATM   16  C   UNL     1      -8.180   8.236  70.094  1.00  0.00    -0.118 A  
HETATM   17  C   UNL     1      -7.942   9.615  70.113  1.00  0.00    -0.189 A  
BRANCH  15  18
HETATM   18  C   UNL     1      -8.806   6.108  68.870  1.00  0.00    -0.122 C  
BRANCH  18  19
HETATM   19  C   UNL     1      -9.340   5.581  70.203  1.00  0.00    -0.146 C  
BRANCH  19  20
HETATM   20  O   UNL     1     -10.767   5.660  70.219  1.00  0.00    -0.290 OA 
BRANCH  20  21
HETATM   21  C   UNL     1     -11.228   6.129  71.487  1.00  0.00    -0.288 C  
BRANCH  21  22
HETATM   22  C   UNL     1     -12.049   7.361  71.284  1.00  0.00    -0.359 C  
HETATM   23  C   UNL     1     -12.384   8.231  72.470  1.00  0.00    -0.335 C  
HETATM   24  C   UNL     1     -11.438   8.733  71.417  1.00  0.00    -0.366 C  
ENDBRANCH  21  22
ENDBRANCH  20  21
ENDBRANCH  19  20
ENDBRANCH  18  19
ENDBRANCH  15  18
ENDBRANCH  11  12
ENDBRANCH  10  11
ENDBRANCH   7  10
ENDBRANCH   6   7
ENDBRANCH   4   6
ENDBRANCH   2   4
TORSDOF 11
ENDMDL
MODEL      280
REMARK 921   NORMALIZED FREE ENERGY PREDICTED BY IDOCK:   -2.95 KCAL/MOL
REMARK 922        TOTAL FREE ENERGY PREDICTED BY IDOCK:   -6.16 KCAL/MOL
REMARK 923 INTER-LIGAND FREE ENERGY PREDICTED BY IDOCK:   -5.35 KCAL/MOL
REMARK 924 INTRA-LIGAND FREE ENERGY PREDICTED BY IDOCK:   -0.81 KCAL/MOL
REMARK 927      BINDING AFFINITY PREDICTED BY RF-SCORE:    0.00 PKD
ROOT
HETATM    1  C   UNL     1     -11.025   5.958  70.950  1.00  0.00    -0.335 C  
HETATM    2  C   UNL     1      -9.779   6.778  71.294  1.00  0.00    -0.172 C  
HETATM    3  C   UNL     1      -9.378   6.512  72.747  1.00  0.00    -0.146 C  
ENDROOT
BRANCH   2   4
HETATM    4  N   UNL     1      -8.710   6.414  70.360  1.00  0.00    -0.145 NA 
HETATM    5  H   UNL     1      -9.005   5.651  69.752  1.00  0.00     0.000 HD 
BRANCH   4   6
HETATM    6  C   UNL     1      -8.216   7.552  69.569  1.00  0.00    -0.130 C  
BRANCH   6   7
HETATM    7  C   UNL     1      -8.769   7.480  68.134  1.00  0.00    -0.122 C  
HETATM    8  O   UNL     1      -9.049   6.112  67.793  1.00  0.00    -0.119 OA 
HETATM    9  H   UNL     1      -9.390   6.068  66.907  1.00  0.00     0.000 HD 
BRANCH   7  10
HETATM   10  C   UNL     1     -10.048   8.315  67.985  1.00  0.00    -0.198 C  
BRANCH  10  11
HETATM   11  O   UNL     1     -10.199   8.695  66.609  1.00  0.00    -0.282 OA 
BRANCH  11  12
HETATM   12  C   UNL     1     -10.621   9.982  66.408  1.00  0.00    -0.068 A  
HETATM   13  C   UNL     1     -10.647  10.624  65.175  1.00  0.00    -0.190 A  
HETATM   14  C   UNL     1     -11.096  11.942  65.078  1.00  0.00    -0.360 A  
HETATM   15  C   UNL     1     -11.552  12.632  66.210  1.00  0.00    -0.440 A  
HETATM   16  C   UNL     1     -11.541  11.973  67.445  1.00  0.00    -0.388 A  
HETATM   17  C   UNL     1     -11.085  10.654  67.541  1.00  0.00    -0.367 A  
BRANCH  15  18
HETATM   18  C   UNL     1     -12.035  14.058  66.092  1.00  0.00    -0.440 C  
BRANCH  18  19
HETATM   19  C   UNL     1     -10.983  15.069  66.547  1.00  0.00    -0.327 C  
BRANCH  19  20
HETATM   20  O   UNL     1      -9.739  14.803  65.895  1.00  0.00    -0.310 OA 
BRANCH  20  21
HETATM   21  C   UNL     1      -8.668  15.461  66.573  1.00  0.00    -0.300 C  
BRANCH  21  22
HETATM   22  C   UNL     1      -8.178  14.585  67.680  1.00  0.00    -0.187 C  
HETATM   23  C   UNL     1      -6.696  14.344  67.832  1.00  0.00    -0.177 C  
HETATM   24  C   UNL     1      -7.431  15.164  68.856  1.00  0.00    -0.143 C  
ENDBRANCH  21  22
ENDBRANCH  20  21
ENDBRANCH  19  20
ENDBRANCH  18  19
ENDBRANCH  15  18
ENDBRANCH  11  12
ENDBRANCH  10  11
ENDBRANCH   7  10
ENDBRANCH   6   7
ENDBRANCH   4   6
ENDBRANCH   2   4
TORSDOF 11
ENDMDL
MODEL      281
REMARK 921   NORMALIZED FREE ENERGY PREDICTED BY IDOCK:   -2.94 KCAL/MOL
REMARK 922        TOTAL FREE ENERGY PREDICTED BY IDOCK:   -6.16 KCAL/MOL
REMARK 923 INTER-LIGAND FREE ENERGY PREDICTED BY IDOCK:   -5.38 KCAL/MOL
REMARK 924 INTRA-LIGAND FREE ENERGY PREDICTED BY IDOCK:   -0.78 KCAL/MOL
REMARK 927      BINDING AFFINITY PREDICTED BY RF-SCORE:    0.00 PKD
ROOT
HETATM    1  C   UNL     1     -12.613  11.928  63.527  1.00  0.00    -0.579 C  
HETATM    2  C   UNL     1     -11.792  13.213  63.396  1.00  0.00    -0.427 C  
HETATM    3  C   UNL     1     -12.278  14.236  64.424  1.00  0.00    -0.471 C  
ENDROOT
BRANCH   2   4
HETATM    4  N   UNL     1     -10.378  12.882  63.585  1.00  0.00    -0.612 NA 
HETATM    5  H   UNL     1     -10.078  13.103  64.535  1.00  0.00     0.000 HD 
BRANCH   4   6
HETATM    6  C   UNL     1     -10.056  11.487  63.247  1.00  0.00    -0.406 C  
BRANCH   6   7
HETATM    7  C   UNL     1      -9.204  10.853  64.361  1.00  0.00    -0.198 C  
HETATM    8  O   UNL     1      -9.977  10.768  65.571  1.00  0.00    -0.235 OA 
HETATM    9  H   UNL     1      -9.450  10.376  66.258  1.00  0.00     0.000 HD 
BRANCH   7  10
HETATM   10  C   UNL     1      -8.719   9.452  63.966  1.00  0.00    -0.200 C  
BRANCH  10  11
HETATM   11  O   UNL     1      -7.436   9.216  64.565  1.00  0.00    -0.097 OA 
BRANCH  11  12
HETATM   12  C   UNL     1      -7.453   8.407  65.669  1.00  0.00    -0.081 A  
HETATM   13  C   UNL     1      -6.590   8.527  66.753  1.00  0.00    -0.057 A  
HETATM   14  C   UNL     1      -6.692   7.649  67.833  1.00  0.00    -0.067 A  
HETATM   15  C   UNL     1      -7.677   6.650  67.859  1.00  0.00    -0.108 A  
HETATM   16  C   UNL     1      -8.554   6.548  66.774  1.00  0.00    -0.117 A  
HETATM   17  C   UNL     1      -8.446   7.425  65.689  1.00  0.00    -0.137 A  
BRANCH  15  18
HETATM   18  C   UNL     1      -7.776   5.706  69.033  1.00  0.00    -0.089 C  
BRANCH  18  19
HETATM   19  C   UNL     1      -9.026   5.956  69.877  1.00  0.00    -0.139 C  
BRANCH  19  20
HETATM   20  O   UNL     1      -9.065   7.322  70.296  1.00  0.00    -0.151 OA 
BRANCH  20  21
HETATM   21  C   UNL     1      -9.965   7.484  71.393  1.00  0.00    -0.185 C  
BRANCH  21  22
HETATM   22  C   UNL     1     -11.200   6.684  71.134  1.00  0.00    -0.340 C  
HETATM   23  C   UNL     1     -11.938   6.064  72.296  1.00  0.00    -0.259 C  
HETATM   24  C   UNL     1     -12.559   7.202  71.535  1.00  0.00    -0.427 C  
ENDBRANCH  21  22
ENDBRANCH  20  21
ENDBRANCH  19  20
ENDBRANCH  18  19
ENDBRANCH  15  18
ENDBRANCH  11  12
ENDBRANCH  10  11
ENDBRANCH   7  10
ENDBRANCH   6   7
ENDBRANCH   4   6
ENDBRANCH   2   4
TORSDOF 11
ENDMDL
MODEL      282
REMARK 921   NORMALIZED FREE ENERGY PREDICTED BY IDOCK:   -2.92 KCAL/MOL
REMARK 922        TOTAL FREE ENERGY PREDICTED BY IDOCK:   -6.12 KCAL/MOL
REMARK 923 INTER-LIGAND FREE ENERGY PREDICTED BY IDOCK:   -5.07 KCAL/MOL
REMARK 924 INTRA-LIGAND FREE ENERGY PREDICTED BY IDOCK:   -1.05 KCAL/MOL
REMARK 927      BINDING AFFINITY PREDICTED BY RF-SCORE:    0.00 PKD
ROOT
HETATM    1  C   UNL     1     -10.538   1.915  63.394  1.00  0.00    -0.160 C  
HETATM    2  C   UNL     1      -9.549   2.862  64.078  1.00  0.00    -0.140 C  
HETATM    3  C   UNL     1      -9.573   4.220  63.374  1.00  0.00    -0.090 C  
ENDROOT
BRANCH   2   4
HETATM    4  N   UNL     1      -9.917   2.977  65.491  1.00  0.00    -0.351 NA 
HETATM    5  H   UNL     1     -10.829   2.553  65.663  1.00  0.00     0.000 HD 
BRANCH   4   6
HETATM    6  C   UNL     1      -8.904   2.425  66.403  1.00  0.00    -0.129 C  
BRANCH   6   7
HETATM    7  C   UNL     1      -8.388   3.522  67.351  1.00  0.00    -0.091 C  
HETATM    8  O   UNL     1      -7.161   4.067  66.836  1.00  0.00    -0.066 OA 
HETATM    9  H   UNL     1      -6.843   4.745  67.421  1.00  0.00     0.000 HD 
BRANCH   7  10
HETATM   10  C   UNL     1      -9.417   4.650  67.514  1.00  0.00    -0.153 C  
BRANCH  10  11
HETATM   11  O   UNL     1      -8.949   5.814  66.818  1.00  0.00    -0.115 OA 
BRANCH  11  12
HETATM   12  C   UNL     1      -9.536   6.990  67.198  1.00  0.00    -0.149 A  
HETATM   13  C   UNL     1      -9.764   8.072  66.354  1.00  0.00    -0.255 A  
HETATM   14  C   UNL     1     -10.372   9.229  66.843  1.00  0.00    -0.316 A  
HETATM   15  C   UNL     1     -10.786   9.315  68.181  1.00  0.00    -0.205 A  
HETATM   16  C   UNL     1     -10.570   8.216  69.019  1.00  0.00    -0.167 A  
HETATM   17  C   UNL     1      -9.955   7.058  68.529  1.00  0.00    -0.158 A  
BRANCH  15  18
HETATM   18  C   UNL     1     -11.442  10.573  68.698  1.00  0.00    -0.290 C  
BRANCH  18  19
HETATM   19  C   UNL     1     -11.008  11.817  67.922  1.00  0.00    -0.221 C  
BRANCH  19  20
HETATM   20  O   UNL     1     -12.123  12.360  67.212  1.00  0.00    -0.516 OA 
BRANCH  20  21
HETATM   21  C   UNL     1     -11.733  13.525  66.483  1.00  0.00    -0.371 C  
BRANCH  21  22
HETATM   22  C   UNL     1     -11.317  13.124  65.105  1.00  0.00    -0.322 C  
HETATM   23  C   UNL     1     -11.992  11.950  64.441  1.00  0.00    -0.311 C  
HETATM   24  C   UNL     1     -12.229  13.341  63.924  1.00  0.00    -0.491 C  
ENDBRANCH  21  22
ENDBRANCH  20  21
ENDBRANCH  19  20
ENDBRANCH  18  19
ENDBRANCH  15  18
ENDBRANCH  11  12
ENDBRANCH  10  11
ENDBRANCH   7  10
ENDBRANCH   6   7
ENDBRANCH   4   6
ENDBRANCH   2   4
TORSDOF 11
ENDMDL
MODEL      283
REMARK 921   NORMALIZED FREE ENERGY PREDICTED BY IDOCK:   -2.88 KCAL/MOL
REMARK 922        TOTAL FREE ENERGY PREDICTED BY IDOCK:   -6.05 KCAL/MOL
REMARK 923 INTER-LIGAND FREE ENERGY PREDICTED BY IDOCK:   -4.84 KCAL/MOL
REMARK 924 INTRA-LIGAND FREE ENERGY PREDICTED BY IDOCK:   -1.20 KCAL/MOL
REMARK 927      BINDING AFFINITY PREDICTED BY RF-SCORE:    0.00 PKD
ROOT
HETATM    1  C   UNL     1      -8.190   9.108  63.059  1.00  0.00    -0.182 C  
HETATM    2  C   UNL     1      -7.907   9.948  64.307  1.00  0.00    -0.139 C  
HETATM    3  C   UNL     1      -9.199  10.626  64.769  1.00  0.00    -0.255 C  
ENDROOT
BRANCH   2   4
HETATM    4  N   UNL     1      -7.355   9.071  65.342  1.00  0.00    -0.084 NA 
HETATM    5  H   UNL     1      -7.740   9.303  66.257  1.00  0.00     0.000 HD 
BRANCH   4   6
HETATM    6  C   UNL     1      -7.532   7.640  65.048  1.00  0.00    -0.090 C  
BRANCH   6   7
HETATM    7  C   UNL     1      -7.903   6.876  66.331  1.00  0.00    -0.103 C  
HETATM    8  O   UNL     1      -6.751   6.782  67.187  1.00  0.00    -0.055 OA 
HETATM    9  H   UNL     1      -6.981   6.310  67.979  1.00  0.00     0.000 HD 
BRANCH   7  10
HETATM   10  C   UNL     1      -9.043   7.572  67.087  1.00  0.00    -0.127 C  
BRANCH  10  11
HETATM   11  O   UNL     1      -8.486   8.557  67.969  1.00  0.00    -0.128 OA 
BRANCH  11  12
HETATM   12  C   UNL     1      -9.357   9.537  68.364  1.00  0.00    -0.133 A  
HETATM   13  C   UNL     1     -10.586   9.306  68.973  1.00  0.00    -0.225 A  
HETATM   14  C   UNL     1     -11.401  10.379  69.339  1.00  0.00    -0.310 A  
HETATM   15  C   UNL     1     -10.989  11.702  69.125  1.00  0.00    -0.270 A  
HETATM   16  C   UNL     1      -9.743  11.927  68.529  1.00  0.00    -0.173 A  
HETATM   17  C   UNL     1      -8.930  10.850  68.157  1.00  0.00    -0.144 A  
BRANCH  15  18
HETATM   18  C   UNL     1     -11.881  12.853  69.525  1.00  0.00    -0.383 C  
BRANCH  18  19
HETATM   19  C   UNL     1     -12.021  13.895  68.414  1.00  0.00    -0.356 C  
BRANCH  19  20
HETATM   20  O   UNL     1     -12.098  13.243  67.144  1.00  0.00    -0.361 OA 
BRANCH  20  21
HETATM   21  C   UNL     1     -12.637  14.128  66.160  1.00  0.00    -0.321 C  
BRANCH  21  22
HETATM   22  C   UNL     1     -11.517  14.708  65.358  1.00  0.00    -0.352 C  
HETATM   23  C   UNL     1     -10.102  14.259  65.630  1.00  0.00    -0.364 C  
HETATM   24  C   UNL     1     -10.776  13.875  64.343  1.00  0.00    -0.286 C  
ENDBRANCH  21  22
ENDBRANCH  20  21
ENDBRANCH  19  20
ENDBRANCH  18  19
ENDBRANCH  15  18
ENDBRANCH  11  12
ENDBRANCH  10  11
ENDBRANCH   7  10
ENDBRANCH   6   7
ENDBRANCH   4   6
ENDBRANCH   2   4
TORSDOF 11
ENDMDL
MODEL      284
REMARK 921   NORMALIZED FREE ENERGY PREDICTED BY IDOCK:   -2.85 KCAL/MOL
REMARK 922        TOTAL FREE ENERGY PREDICTED BY IDOCK:   -6.01 KCAL/MOL
REMARK 923 INTER-LIGAND FREE ENERGY PREDICTED BY IDOCK:   -4.60 KCAL/MOL
REMARK 924 INTRA-LIGAND FREE ENERGY PREDICTED BY IDOCK:   -1.40 KCAL/MOL
REMARK 927      BINDING AFFINITY PREDICTED BY RF-SCORE:    0.00 PKD
ROOT
HETATM    1  C   UNL     1     -12.495  10.779  71.335  1.00  0.00    -0.478 C  
HETATM    2  C   UNL     1     -11.759   9.789  70.429  1.00  0.00    -0.231 C  
HETATM    3  C   UNL     1     -10.254   9.874  70.695  1.00  0.00    -0.203 C  
ENDROOT
BRANCH   2   4
HETATM    4  N   UNL     1     -12.281   8.445  70.688  1.00  0.00    -0.490 NA 
HETATM    5  H   UNL     1     -11.963   7.789  69.974  1.00  0.00     0.000 HD 
BRANCH   4   6
HETATM    6  C   UNL     1     -11.961   7.946  72.034  1.00  0.00    -0.319 C  
BRANCH   6   7
HETATM    7  C   UNL     1     -11.607   6.449  71.976  1.00  0.00    -0.321 C  
HETATM    8  O   UNL     1     -12.644   5.683  72.614  1.00  0.00    -0.445 OA 
HETATM    9  H   UNL     1     -12.425   4.759  72.578  1.00  0.00     0.000 HD 
BRANCH   7  10
HETATM   10  C   UNL     1     -11.438   5.970  70.528  1.00  0.00    -0.157 C  
BRANCH  10  11
HETATM   11  O   UNL     1     -10.108   5.459  70.358  1.00  0.00    -0.207 OA 
BRANCH  11  12
HETATM   12  C   UNL     1      -9.397   6.026  69.335  1.00  0.00    -0.131 A  
HETATM   13  C   UNL     1      -8.019   6.216  69.336  1.00  0.00    -0.104 A  
HETATM   14  C   UNL     1      -7.390   6.806  68.238  1.00  0.00    -0.093 A  
HETATM   15  C   UNL     1      -8.126   7.194  67.109  1.00  0.00    -0.114 A  
HETATM   16  C   UNL     1      -9.509   6.982  67.107  1.00  0.00    -0.176 A  
HETATM   17  C   UNL     1     -10.140   6.396  68.211  1.00  0.00    -0.169 A  
BRANCH  15  18
HETATM   18  C   UNL     1      -7.434   7.831  65.928  1.00  0.00    -0.081 C  
BRANCH  18  19
HETATM   19  C   UNL     1      -6.517   8.982  66.342  1.00  0.00    -0.066 C  
BRANCH  19  20
HETATM   20  O   UNL     1      -7.219  10.224  66.238  1.00  0.00    -0.105 OA 
BRANCH  20  21
HETATM   21  C   UNL     1      -7.905  10.515  67.456  1.00  0.00    -0.106 C  
BRANCH  21  22
HETATM   22  C   UNL     1      -9.030  11.456  67.172  1.00  0.00    -0.162 C  
HETATM   23  C   UNL     1      -9.294  11.884  65.750  1.00  0.00    -0.165 C  
HETATM   24  C   UNL     1     -10.272  10.988  66.457  1.00  0.00    -0.280 C  
ENDBRANCH  21  22
ENDBRANCH  20  21
ENDBRANCH  19  20
ENDBRANCH  18  19
ENDBRANCH  15  18
ENDBRANCH  11  12
ENDBRANCH  10  11
ENDBRANCH   7  10
ENDBRANCH   6   7
ENDBRANCH   4   6
ENDBRANCH   2   4
TORSDOF 11
ENDMDL
MODEL      285
REMARK 921   NORMALIZED FREE ENERGY PREDICTED BY IDOCK:   -2.85 KCAL/MOL
REMARK 922        TOTAL FREE ENERGY PREDICTED BY IDOCK:   -6.00 KCAL/MOL
REMARK 923 INTER-LIGAND FREE ENERGY PREDICTED BY IDOCK:   -4.87 KCAL/MOL
REMARK 924 INTRA-LIGAND FREE ENERGY PREDICTED BY IDOCK:   -1.14 KCAL/MOL
REMARK 927      BINDING AFFINITY PREDICTED BY RF-SCORE:    0.00 PKD
ROOT
HETATM    1  C   UNL     1     -10.267  11.206  69.078  1.00  0.00    -0.194 C  
HETATM    2  C   UNL     1     -11.587  11.799  68.578  1.00  0.00    -0.321 C  
HETATM    3  C   UNL     1     -11.780  13.194  69.178  1.00  0.00    -0.376 C  
ENDROOT
BRANCH   2   4
HETATM    4  N   UNL     1     -11.554  11.838  67.114  1.00  0.00    -0.544 NA 
HETATM    5  H   UNL     1     -12.367  12.331  66.747  1.00  0.00     0.000 HD 
BRANCH   4   6
HETATM    6  C   UNL     1     -10.310  12.409  66.575  1.00  0.00    -0.228 C  
BRANCH   6   7
HETATM    7  C   UNL     1      -9.729  11.486  65.489  1.00  0.00    -0.230 C  
HETATM    8  O   UNL     1      -8.293  11.500  65.561  1.00  0.00    -0.374 OA 
HETATM    9  H   UNL     1      -7.935  10.931  64.890  1.00  0.00     0.000 HD 
BRANCH   7  10
HETATM   10  C   UNL     1     -10.233  10.046  65.650  1.00  0.00    -0.188 C  
BRANCH  10  11
HETATM   11  O   UNL     1      -9.107   9.174  65.826  1.00  0.00    -0.183 OA 
BRANCH  11  12
HETATM   12  C   UNL     1      -9.358   8.046  66.560  1.00  0.00    -0.205 A  
HETATM   13  C   UNL     1     -10.558   7.773  67.208  1.00  0.00    -0.376 A  
HETATM   14  C   UNL     1     -10.713   6.589  67.932  1.00  0.00    -0.357 A  
HETATM   15  C   UNL     1      -9.677   5.646  67.999  1.00  0.00    -0.149 A  
HETATM   16  C   UNL     1      -8.479   5.918  67.328  1.00  0.00    -0.103 A  
HETATM   17  C   UNL     1      -8.324   7.108  66.608  1.00  0.00    -0.114 A  
BRANCH  15  18
HETATM   18  C   UNL     1      -9.856   4.370  68.785  1.00  0.00    -0.149 C  
BRANCH  18  19
HETATM   19  C   UNL     1      -9.851   4.610  70.295  1.00  0.00    -0.243 C  
BRANCH  19  20
HETATM   20  O   UNL     1      -8.578   4.253  70.840  1.00  0.00    -0.081 OA 
BRANCH  20  21
HETATM   21  C   UNL     1      -7.720   5.393  70.897  1.00  0.00    -0.090 C  
BRANCH  21  22
HETATM   22  C   UNL     1      -8.503   6.571  71.377  1.00  0.00    -0.125 C  
HETATM   23  C   UNL     1      -8.552   6.875  72.854  1.00  0.00    -0.129 C  
HETATM   24  C   UNL     1      -7.810   7.793  71.924  1.00  0.00    -0.106 C  
ENDBRANCH  21  22
ENDBRANCH  20  21
ENDBRANCH  19  20
ENDBRANCH  18  19
ENDBRANCH  15  18
ENDBRANCH  11  12
ENDBRANCH  10  11
ENDBRANCH   7  10
ENDBRANCH   6   7
ENDBRANCH   4   6
ENDBRANCH   2   4
TORSDOF 11
ENDMDL
MODEL      286
REMARK 921   NORMALIZED FREE ENERGY PREDICTED BY IDOCK:   -2.82 KCAL/MOL
REMARK 922        TOTAL FREE ENERGY PREDICTED BY IDOCK:   -5.95 KCAL/MOL
REMARK 923 INTER-LIGAND FREE ENERGY PREDICTED BY IDOCK:   -5.18 KCAL/MOL
REMARK 924 INTRA-LIGAND FREE ENERGY PREDICTED BY IDOCK:   -0.77 KCAL/MOL
REMARK 927      BINDING AFFINITY PREDICTED BY RF-SCORE:    0.00 PKD
ROOT
HETATM    1  C   UNL     1      -5.882   3.543  64.277  1.00  0.00    -0.014 C  
HETATM    2  C   UNL     1      -6.984   4.604  64.236  1.00  0.00    -0.049 C  
HETATM    3  C   UNL     1      -8.114   4.132  63.319  1.00  0.00    -0.085 C  
ENDROOT
BRANCH   2   4
HETATM    4  N   UNL     1      -7.457   4.837  65.603  1.00  0.00    -0.080 NA 
HETATM    5  H   UNL     1      -6.686   5.114  66.210  1.00  0.00     0.000 HD 
BRANCH   4   6
HETATM    6  C   UNL     1      -8.558   5.809  65.681  1.00  0.00    -0.151 C  
BRANCH   6   7
HETATM    7  C   UNL     1      -9.472   5.482  66.875  1.00  0.00    -0.135 C  
HETATM    8  O   UNL     1      -8.694   4.891  67.930  1.00  0.00    -0.103 OA 
HETATM    9  H   UNL     1      -9.258   4.689  68.668  1.00  0.00     0.000 HD 
BRANCH   7  10
HETATM   10  C   UNL     1     -10.174   6.740  67.404  1.00  0.00    -0.197 C  
BRANCH  10  11
HETATM   11  O   UNL     1      -9.180   7.696  67.802  1.00  0.00    -0.136 OA 
BRANCH  11  12
HETATM   12  C   UNL     1      -9.577   9.005  67.732  1.00  0.00    -0.150 A  
HETATM   13  C   UNL     1     -10.839   9.471  68.085  1.00  0.00    -0.208 A  
HETATM   14  C   UNL     1     -11.143  10.829  67.976  1.00  0.00    -0.359 A  
HETATM   15  C   UNL     1     -10.179  11.749  67.536  1.00  0.00    -0.214 A  
HETATM   16  C   UNL     1      -8.906  11.276  67.202  1.00  0.00    -0.153 A  
HETATM   17  C   UNL     1      -8.605   9.913  67.306  1.00  0.00    -0.125 A  
BRANCH  15  18
HETATM   18  C   UNL     1     -10.521  13.215  67.423  1.00  0.00    -0.243 C  
BRANCH  18  19
HETATM   19  C   UNL     1     -11.921  13.445  66.853  1.00  0.00    -0.385 C  
BRANCH  19  20
HETATM   20  O   UNL     1     -12.237  12.418  65.911  1.00  0.00    -0.629 OA 
BRANCH  20  21
HETATM   21  C   UNL     1     -12.225  12.938  64.581  1.00  0.00    -0.435 C  
BRANCH  21  22
HETATM   22  C   UNL     1     -11.549  11.958  63.678  1.00  0.00    -0.559 C  
HETATM   23  C   UNL     1     -10.068  12.089  63.420  1.00  0.00    -0.437 C  
HETATM   24  C   UNL     1     -10.590  10.932  64.225  1.00  0.00    -0.336 C  
ENDBRANCH  21  22
ENDBRANCH  20  21
ENDBRANCH  19  20
ENDBRANCH  18  19
ENDBRANCH  15  18
ENDBRANCH  11  12
ENDBRANCH  10  11
ENDBRANCH   7  10
ENDBRANCH   6   7
ENDBRANCH   4   6
ENDBRANCH   2   4
TORSDOF 11
ENDMDL
MODEL      287
REMARK 921   NORMALIZED FREE ENERGY PREDICTED BY IDOCK:   -2.82 KCAL/MOL
REMARK 922        TOTAL FREE ENERGY PREDICTED BY IDOCK:   -5.95 KCAL/MOL
REMARK 923 INTER-LIGAND FREE ENERGY PREDICTED BY IDOCK:   -5.19 KCAL/MOL
REMARK 924 INTRA-LIGAND FREE ENERGY PREDICTED BY IDOCK:   -0.76 KCAL/MOL
REMARK 927      BINDING AFFINITY PREDICTED BY RF-SCORE:    0.00 PKD
ROOT
HETATM    1  C   UNL     1     -14.220   7.024  71.469  1.00  0.00    -0.413 C  
HETATM    2  C   UNL     1     -13.707   8.455  71.295  1.00  0.00    -0.136 C  
HETATM    3  C   UNL     1     -13.578   9.122  72.667  1.00  0.00    -0.402 C  
ENDROOT
BRANCH   2   4
HETATM    4  N   UNL     1     -12.423   8.407  70.592  1.00  0.00    -0.449 NA 
HETATM    5  H   UNL     1     -12.120   9.344  70.326  1.00  0.00     0.000 HD 
BRANCH   4   6
HETATM    6  C   UNL     1     -11.370   7.713  71.350  1.00  0.00    -0.258 C  
BRANCH   6   7
HETATM    7  C   UNL     1     -10.379   7.037  70.386  1.00  0.00    -0.202 C  
HETATM    8  O   UNL     1     -10.669   5.631  70.303  1.00  0.00    -0.290 OA 
HETATM    9  H   UNL     1     -10.057   5.215  69.708  1.00  0.00     0.000 HD 
BRANCH   7  10
HETATM   10  C   UNL     1     -10.452   7.656  68.983  1.00  0.00    -0.205 C  
BRANCH  10  11
HETATM   11  O   UNL     1      -9.233   8.366  68.722  1.00  0.00    -0.143 OA 
BRANCH  11  12
HETATM   12  C   UNL     1      -9.382   9.707  68.494  1.00  0.00    -0.137 A  
HETATM   13  C   UNL     1     -10.590  10.395  68.568  1.00  0.00    -0.237 A  
HETATM   14  C   UNL     1     -10.634  11.767  68.316  1.00  0.00    -0.236 A  
HETATM   15  C   UNL     1      -9.466  12.481  68.010  1.00  0.00    -0.209 A  
HETATM   16  C   UNL     1      -8.252  11.786  67.956  1.00  0.00    -0.152 A  
HETATM   17  C   UNL     1      -8.210  10.409  68.203  1.00  0.00    -0.116 A  
BRANCH  15  18
HETATM   18  C   UNL     1      -9.527  13.965  67.739  1.00  0.00    -0.214 C  
BRANCH  18  19
HETATM   19  C   UNL     1      -8.801  14.782  68.808  1.00  0.00    -0.179 C  
BRANCH  19  20
HETATM   20  O   UNL     1      -9.581  15.929  69.157  1.00  0.00    -0.222 OA 
BRANCH  20  21
HETATM   21  C   UNL     1      -8.883  17.129  68.823  1.00  0.00    -0.235 C  
BRANCH  21  22
HETATM   22  C   UNL     1      -9.825  18.070  68.144  1.00  0.00    -0.341 C  
HETATM   23  C   UNL     1      -9.648  18.362  66.675  1.00  0.00    -0.320 C  
HETATM   24  C   UNL     1     -10.836  17.570  67.144  1.00  0.00    -0.092 C  
ENDBRANCH  21  22
ENDBRANCH  20  21
ENDBRANCH  19  20
ENDBRANCH  18  19
ENDBRANCH  15  18
ENDBRANCH  11  12
ENDBRANCH  10  11
ENDBRANCH   7  10
ENDBRANCH   6   7
ENDBRANCH   4   6
ENDBRANCH   2   4
TORSDOF 11
ENDMDL
MODEL      288
REMARK 921   NORMALIZED FREE ENERGY PREDICTED BY IDOCK:   -2.80 KCAL/MOL
REMARK 922        TOTAL FREE ENERGY PREDICTED BY IDOCK:   -5.92 KCAL/MOL
REMARK 923 INTER-LIGAND FREE ENERGY PREDICTED BY IDOCK:   -5.20 KCAL/MOL
REMARK 924 INTRA-LIGAND FREE ENERGY PREDICTED BY IDOCK:   -0.72 KCAL/MOL
REMARK 927      BINDING AFFINITY PREDICTED BY RF-SCORE:    0.00 PKD
ROOT
HETATM    1  C   UNL     1      -8.228   8.294  66.312  1.00  0.00    -0.112 C  
HETATM    2  C   UNL     1      -8.636   9.744  66.581  1.00  0.00    -0.128 C  
HETATM    3  C   UNL     1     -10.044   9.776  67.180  1.00  0.00    -0.267 C  
ENDROOT
BRANCH   2   4
HETATM    4  N   UNL     1      -7.649  10.344  67.483  1.00  0.00    -0.093 NA 
HETATM    5  H   UNL     1      -6.897  10.785  66.954  1.00  0.00     0.000 HD 
BRANCH   4   6
HETATM    6  C   UNL     1      -8.238  11.292  68.442  1.00  0.00    -0.149 C  
BRANCH   6   7
HETATM    7  C   UNL     1      -7.303  12.498  68.639  1.00  0.00    -0.099 C  
HETATM    8  O   UNL     1      -5.936  12.081  68.477  1.00  0.00    -0.049 OA 
HETATM    9  H   UNL     1      -5.359  12.826  68.599  1.00  0.00     0.000 HD 
BRANCH   7  10
HETATM   10  C   UNL     1      -7.615  13.618  67.636  1.00  0.00    -0.179 C  
BRANCH  10  11
HETATM   11  O   UNL     1      -9.038  13.762  67.526  1.00  0.00    -0.190 OA 
BRANCH  11  12
HETATM   12  C   UNL     1      -9.479  15.050  67.381  1.00  0.00    -0.201 A  
HETATM   13  C   UNL     1     -10.150  15.774  68.362  1.00  0.00    -0.222 A  
HETATM   14  C   UNL     1     -10.557  17.085  68.112  1.00  0.00    -0.369 A  
HETATM   15  C   UNL     1     -10.278  17.705  66.885  1.00  0.00    -0.334 A  
HETATM   16  C   UNL     1      -9.586  16.978  65.911  1.00  0.00    -0.143 A  
HETATM   17  C   UNL     1      -9.183  15.661  66.160  1.00  0.00    -0.378 A  
BRANCH  15  18
HETATM   18  C   UNL     1     -10.724  19.124  66.627  1.00  0.00    -0.467 C  
BRANCH  18  19
HETATM   19  C   UNL     1      -9.717  20.154  67.140  1.00  0.00    -0.439 C  
BRANCH  19  20
HETATM   20  O   UNL     1      -8.437  19.540  67.306  1.00  0.00    -0.283 OA 
BRANCH  20  21
HETATM   21  C   UNL     1      -7.436  20.529  67.551  1.00  0.00    -0.314 C  
BRANCH  21  22
HETATM   22  C   UNL     1      -6.329  19.919  68.348  1.00  0.00    -0.308 C  
HETATM   23  C   UNL     1      -6.627  18.750  69.254  1.00  0.00    -0.298 C  
HETATM   24  C   UNL     1      -5.799  18.547  68.017  1.00  0.00    -0.176 C  
ENDBRANCH  21  22
ENDBRANCH  20  21
ENDBRANCH  19  20
ENDBRANCH  18  19
ENDBRANCH  15  18
ENDBRANCH  11  12
ENDBRANCH  10  11
ENDBRANCH   7  10
ENDBRANCH   6   7
ENDBRANCH   4   6
ENDBRANCH   2   4
TORSDOF 11
ENDMDL
MODEL      289
REMARK 921   NORMALIZED FREE ENERGY PREDICTED BY IDOCK:   -2.80 KCAL/MOL
REMARK 922        TOTAL FREE ENERGY PREDICTED BY IDOCK:   -5.92 KCAL/MOL
REMARK 923 INTER-LIGAND FREE ENERGY PREDICTED BY IDOCK:   -4.36 KCAL/MOL
REMARK 924 INTRA-LIGAND FREE ENERGY PREDICTED BY IDOCK:   -1.56 KCAL/MOL
REMARK 927      BINDING AFFINITY PREDICTED BY RF-SCORE:    0.00 PKD
ROOT
HETATM    1  C   UNL     1      -5.375  13.298  68.136  1.00  0.00    -0.102 C  
HETATM    2  C   UNL     1      -5.860  13.337  69.587  1.00  0.00    -0.114 C  
HETATM    3  C   UNL     1      -6.496  14.698  69.876  1.00  0.00    -0.164 C  
ENDROOT
BRANCH   2   4
HETATM    4  N   UNL     1      -6.810  12.240  69.789  1.00  0.00    -0.350 NA 
HETATM    5  H   UNL     1      -7.516  12.495  70.479  1.00  0.00     0.000 HD 
BRANCH   4   6
HETATM    6  C   UNL     1      -7.440  11.779  68.543  1.00  0.00    -0.110 C  
BRANCH   6   7
HETATM    7  C   UNL     1      -7.588  10.247  68.557  1.00  0.00    -0.089 C  
HETATM    8  O   UNL     1      -6.330   9.644  68.905  1.00  0.00    -0.042 OA 
HETATM    9  H   UNL     1      -6.422   8.698  68.914  1.00  0.00     0.000 HD 
BRANCH   7  10
HETATM   10  C   UNL     1      -8.662   9.798  69.557  1.00  0.00    -0.185 C  
BRANCH  10  11
HETATM   11  O   UNL     1      -8.088   9.757  70.872  1.00  0.00    -0.252 OA 
BRANCH  11  12
HETATM   12  C   UNL     1      -8.631   8.821  71.710  1.00  0.00    -0.128 A  
HETATM   13  C   UNL     1      -9.992   8.663  71.947  1.00  0.00    -0.392 A  
HETATM   14  C   UNL     1     -10.443   7.674  72.824  1.00  0.00    -0.368 A  
HETATM   15  C   UNL     1      -9.540   6.809  73.459  1.00  0.00    -0.205 A  
HETATM   16  C   UNL     1      -8.174   6.961  73.201  1.00  0.00    -0.118 A  
HETATM   17  C   UNL     1      -7.723   7.957  72.327  1.00  0.00    -0.125 A  
BRANCH  15  18
HETATM   18  C   UNL     1     -10.041   5.744  74.405  1.00  0.00    -0.293 C  
BRANCH  18  19
HETATM   19  C   UNL     1     -10.581   4.518  73.668  1.00  0.00    -0.247 C  
BRANCH  19  20
HETATM   20  O   UNL     1      -9.497   3.755  73.135  1.00  0.00    -0.107 OA 
BRANCH  20  21
HETATM   21  C   UNL     1      -9.808   3.295  71.819  1.00  0.00    -0.159 C  
BRANCH  21  22
HETATM   22  C   UNL     1      -9.355   4.315  70.825  1.00  0.00    -0.222 C  
HETATM   23  C   UNL     1      -9.676   4.118  69.364  1.00  0.00    -0.233 C  
HETATM   24  C   UNL     1     -10.344   5.221  70.136  1.00  0.00    -0.354 C  
ENDBRANCH  21  22
ENDBRANCH  20  21
ENDBRANCH  19  20
ENDBRANCH  18  19
ENDBRANCH  15  18
ENDBRANCH  11  12
ENDBRANCH  10  11
ENDBRANCH   7  10
ENDBRANCH   6   7
ENDBRANCH   4   6
ENDBRANCH   2   4
TORSDOF 11
ENDMDL
MODEL      290
REMARK 921   NORMALIZED FREE ENERGY PREDICTED BY IDOCK:   -2.78 KCAL/MOL
REMARK 922        TOTAL FREE ENERGY PREDICTED BY IDOCK:   -5.89 KCAL/MOL
REMARK 923 INTER-LIGAND FREE ENERGY PREDICTED BY IDOCK:   -5.06 KCAL/MOL
REMARK 924 INTRA-LIGAND FREE ENERGY PREDICTED BY IDOCK:   -0.84 KCAL/MOL
REMARK 927      BINDING AFFINITY PREDICTED BY RF-SCORE:    0.00 PKD
ROOT
HETATM    1  C   UNL     1     -10.140   7.408  67.085  1.00  0.00    -0.314 C  
HETATM    2  C   UNL     1      -8.657   7.728  66.884  1.00  0.00    -0.130 C  
HETATM    3  C   UNL     1      -8.328   7.708  65.389  1.00  0.00    -0.134 C  
ENDROOT
BRANCH   2   4
HETATM    4  N   UNL     1      -8.377   9.035  67.483  1.00  0.00    -0.116 NA 
HETATM    5  H   UNL     1      -9.131   9.693  67.285  1.00  0.00     0.000 HD 
BRANCH   4   6
HETATM    6  C   UNL     1      -8.108   8.967  68.927  1.00  0.00    -0.104 C  
BRANCH   6   7
HETATM    7  C   UNL     1      -8.820  10.122  69.655  1.00  0.00    -0.164 C  
HETATM    8  O   UNL     1      -8.316  11.380  69.173  1.00  0.00    -0.366 OA 
HETATM    9  H   UNL     1      -8.755  12.092  69.622  1.00  0.00     0.000 HD 
BRANCH   7  10
HETATM   10  C   UNL     1     -10.339  10.067  69.441  1.00  0.00    -0.227 C  
BRANCH  10  11
HETATM   11  O   UNL     1     -10.987   9.983  70.719  1.00  0.00    -0.313 OA 
BRANCH  11  12
HETATM   12  C   UNL     1     -11.050   8.724  71.253  1.00  0.00    -0.278 A  
HETATM   13  C   UNL     1     -11.533   7.603  70.586  1.00  0.00    -0.276 A  
HETATM   14  C   UNL     1     -11.554   6.361  71.223  1.00  0.00    -0.370 A  
HETATM   15  C   UNL     1     -11.070   6.214  72.532  1.00  0.00    -0.313 A  
HETATM   16  C   UNL     1     -10.568   7.343  73.189  1.00  0.00    -0.424 A  
HETATM   17  C   UNL     1     -10.553   8.589  72.551  1.00  0.00    -0.308 A  
BRANCH  15  18
HETATM   18  C   UNL     1     -11.099   4.866  73.210  1.00  0.00    -0.410 C  
BRANCH  18  19
HETATM   19  C   UNL     1      -9.962   3.955  72.744  1.00  0.00    -0.151 C  
BRANCH  19  20
HETATM   20  O   UNL     1      -9.651   4.227  71.375  1.00  0.00    -0.147 OA 
BRANCH  20  21
HETATM   21  C   UNL     1      -8.278   3.939  71.107  1.00  0.00    -0.071 C  
BRANCH  21  22
HETATM   22  C   UNL     1      -8.121   3.609  69.659  1.00  0.00    -0.063 C  
HETATM   23  C   UNL     1      -9.132   2.710  68.991  1.00  0.00    -0.194 C  
HETATM   24  C   UNL     1      -9.069   4.167  68.628  1.00  0.00    -0.185 C  
ENDBRANCH  21  22
ENDBRANCH  20  21
ENDBRANCH  19  20
ENDBRANCH  18  19
ENDBRANCH  15  18
ENDBRANCH  11  12
ENDBRANCH  10  11
ENDBRANCH   7  10
ENDBRANCH   6   7
ENDBRANCH   4   6
ENDBRANCH   2   4
TORSDOF 11
ENDMDL
MODEL      291
REMARK 921   NORMALIZED FREE ENERGY PREDICTED BY IDOCK:   -2.77 KCAL/MOL
REMARK 922        TOTAL FREE ENERGY PREDICTED BY IDOCK:   -5.87 KCAL/MOL
REMARK 923 INTER-LIGAND FREE ENERGY PREDICTED BY IDOCK:   -4.80 KCAL/MOL
REMARK 924 INTRA-LIGAND FREE ENERGY PREDICTED BY IDOCK:   -1.07 KCAL/MOL
REMARK 927      BINDING AFFINITY PREDICTED BY RF-SCORE:    0.00 PKD
ROOT
HETATM    1  C   UNL     1     -11.734  13.277  66.803  1.00  0.00    -0.434 C  
HETATM    2  C   UNL     1     -10.406  13.891  66.355  1.00  0.00    -0.289 C  
HETATM    3  C   UNL     1      -9.451  13.968  67.548  1.00  0.00    -0.221 C  
ENDROOT
BRANCH   2   4
HETATM    4  N   UNL     1      -9.856  13.071  65.272  1.00  0.00    -0.493 NA 
HETATM    5  H   UNL     1      -9.400  12.239  65.644  1.00  0.00     0.000 HD 
BRANCH   4   6
HETATM    6  C   UNL     1     -10.853  12.709  64.253  1.00  0.00    -0.379 C  
BRANCH   6   7
HETATM    7  C   UNL     1     -10.542  11.317  63.676  1.00  0.00    -0.388 C  
HETATM    8  O   UNL     1      -9.772  11.456  62.469  1.00  0.00    -0.568 OA 
HETATM    9  H   UNL     1      -9.580  10.596  62.113  1.00  0.00     0.000 HD 
BRANCH   7  10
HETATM   10  C   UNL     1      -9.763  10.457  64.680  1.00  0.00    -0.329 C  
BRANCH  10  11
HETATM   11  O   UNL     1     -10.548  10.304  65.872  1.00  0.00    -0.141 OA 
BRANCH  11  12
HETATM   12  C   UNL     1     -10.059   9.398  66.774  1.00  0.00    -0.256 A  
HETATM   13  C   UNL     1      -8.972   9.622  67.612  1.00  0.00    -0.131 A  
HETATM   14  C   UNL     1      -8.552   8.629  68.499  1.00  0.00    -0.135 A  
HETATM   15  C   UNL     1      -9.229   7.403  68.580  1.00  0.00    -0.143 A  
HETATM   16  C   UNL     1     -10.333   7.192  67.747  1.00  0.00    -0.257 A  
HETATM   17  C   UNL     1     -10.749   8.186  66.854  1.00  0.00    -0.186 A  
BRANCH  15  18
HETATM   18  C   UNL     1      -8.765   6.337  69.543  1.00  0.00    -0.132 C  
BRANCH  18  19
HETATM   19  C   UNL     1      -7.260   6.081  69.448  1.00  0.00    -0.074 C  
BRANCH  19  20
HETATM   20  O   UNL     1      -6.765   5.619  70.707  1.00  0.00    -0.044 OA 
BRANCH  20  21
HETATM   21  C   UNL     1      -7.372   6.341  71.779  1.00  0.00    -0.093 C  
BRANCH  21  22
HETATM   22  C   UNL     1      -6.459   7.445  72.204  1.00  0.00    -0.050 C  
HETATM   23  C   UNL     1      -5.616   8.148  71.170  1.00  0.00    -0.033 C  
HETATM   24  C   UNL     1      -6.749   8.878  71.835  1.00  0.00    -0.025 C  
ENDBRANCH  21  22
ENDBRANCH  20  21
ENDBRANCH  19  20
ENDBRANCH  18  19
ENDBRANCH  15  18
ENDBRANCH  11  12
ENDBRANCH  10  11
ENDBRANCH   7  10
ENDBRANCH   6   7
ENDBRANCH   4   6
ENDBRANCH   2   4
TORSDOF 11
ENDMDL
MODEL      292
REMARK 921   NORMALIZED FREE ENERGY PREDICTED BY IDOCK:   -2.75 KCAL/MOL
REMARK 922        TOTAL FREE ENERGY PREDICTED BY IDOCK:   -5.84 KCAL/MOL
REMARK 923 INTER-LIGAND FREE ENERGY PREDICTED BY IDOCK:   -5.70 KCAL/MOL
REMARK 924 INTRA-LIGAND FREE ENERGY PREDICTED BY IDOCK:   -0.14 KCAL/MOL
REMARK 927      BINDING AFFINITY PREDICTED BY RF-SCORE:    0.00 PKD
ROOT
HETATM    1  C   UNL     1     -11.187  11.810  64.581  1.00  0.00    -0.349 C  
HETATM    2  C   UNL     1     -11.552  12.825  65.667  1.00  0.00    -0.370 C  
HETATM    3  C   UNL     1     -12.693  13.715  65.171  1.00  0.00    -0.443 C  
ENDROOT
BRANCH   2   4
HETATM    4  N   UNL     1     -11.922  12.094  66.881  1.00  0.00    -0.609 NA 
HETATM    5  H   UNL     1     -12.163  11.128  66.662  1.00  0.00     0.000 HD 
BRANCH   4   6
HETATM    6  C   UNL     1     -10.894  12.151  67.931  1.00  0.00    -0.217 C  
BRANCH   6   7
HETATM    7  C   UNL     1     -11.534  12.518  69.282  1.00  0.00    -0.293 C  
HETATM    8  O   UNL     1     -12.370  13.676  69.121  1.00  0.00    -0.298 OA 
HETATM    9  H   UNL     1     -12.765  13.902  69.955  1.00  0.00     0.000 HD 
BRANCH   7  10
HETATM   10  C   UNL     1     -12.371  11.358  69.838  1.00  0.00    -0.214 C  
BRANCH  10  11
HETATM   11  O   UNL     1     -11.849  10.977  71.119  1.00  0.00    -0.239 OA 
BRANCH  11  12
HETATM   12  C   UNL     1     -11.598   9.639  71.266  1.00  0.00    -0.393 A  
HETATM   13  C   UNL     1     -11.847   8.908  72.423  1.00  0.00    -0.292 A  
HETATM   14  C   UNL     1     -11.555   7.544  72.470  1.00  0.00    -0.352 A  
HETATM   15  C   UNL     1     -11.031   6.882  71.350  1.00  0.00    -0.270 A  
HETATM   16  C   UNL     1     -10.801   7.619  70.183  1.00  0.00    -0.255 A  
HETATM   17  C   UNL     1     -11.089   8.988  70.140  1.00  0.00    -0.228 A  
BRANCH  15  18
HETATM   18  C   UNL     1     -10.719   5.406  71.413  1.00  0.00    -0.258 C  
BRANCH  18  19
HETATM   19  C   UNL     1      -9.416   5.055  70.693  1.00  0.00    -0.169 C  
BRANCH  19  20
HETATM   20  O   UNL     1      -9.702   4.301  69.512  1.00  0.00    -0.196 OA 
BRANCH  20  21
HETATM   21  C   UNL     1      -8.527   4.158  68.713  1.00  0.00    -0.083 C  
BRANCH  21  22
HETATM   22  C   UNL     1      -7.824   2.897  69.099  1.00  0.00    -0.052 C  
HETATM   23  C   UNL     1      -7.317   2.735  70.510  1.00  0.00    -0.037 C  
HETATM   24  C   UNL     1      -8.470   1.900  70.027  1.00  0.00    -0.083 C  
ENDBRANCH  21  22
ENDBRANCH  20  21
ENDBRANCH  19  20
ENDBRANCH  18  19
ENDBRANCH  15  18
ENDBRANCH  11  12
ENDBRANCH  10  11
ENDBRANCH   7  10
ENDBRANCH   6   7
ENDBRANCH   4   6
ENDBRANCH   2   4
TORSDOF 11
ENDMDL
MODEL      293
REMARK 921   NORMALIZED FREE ENERGY PREDICTED BY IDOCK:   -2.74 KCAL/MOL
REMARK 922        TOTAL FREE ENERGY PREDICTED BY IDOCK:   -5.83 KCAL/MOL
REMARK 923 INTER-LIGAND FREE ENERGY PREDICTED BY IDOCK:   -4.63 KCAL/MOL
REMARK 924 INTRA-LIGAND FREE ENERGY PREDICTED BY IDOCK:   -1.20 KCAL/MOL
REMARK 927      BINDING AFFINITY PREDICTED BY RF-SCORE:    0.00 PKD
ROOT
HETATM    1  C   UNL     1      -6.269   3.337  64.255  1.00  0.00    -0.023 C  
HETATM    2  C   UNL     1      -7.016   4.326  65.153  1.00  0.00    -0.058 C  
HETATM    3  C   UNL     1      -8.360   4.682  64.513  1.00  0.00    -0.123 C  
ENDROOT
BRANCH   2   4
HETATM    4  N   UNL     1      -7.189   3.715  66.474  1.00  0.00    -0.066 NA 
HETATM    5  H   UNL     1      -6.352   3.840  67.043  1.00  0.00     0.000 HD 
BRANCH   4   6
HETATM    6  C   UNL     1      -8.382   4.198  67.186  1.00  0.00    -0.100 C  
BRANCH   6   7
HETATM    7  C   UNL     1      -8.959   3.081  68.074  1.00  0.00    -0.151 C  
HETATM    8  O   UNL     1      -7.907   2.183  68.464  1.00  0.00    -0.053 OA 
HETATM    9  H   UNL     1      -8.263   1.493  69.012  1.00  0.00     0.000 HD 
BRANCH   7  10
HETATM   10  C   UNL     1      -9.631   3.654  69.329  1.00  0.00    -0.115 C  
BRANCH  10  11
HETATM   11  O   UNL     1      -8.951   4.858  69.714  1.00  0.00    -0.094 OA 
BRANCH  11  12
HETATM   12  C   UNL     1      -9.756   5.834  70.238  1.00  0.00    -0.175 A  
HETATM   13  C   UNL     1     -11.124   5.942  70.008  1.00  0.00    -0.411 A  
HETATM   14  C   UNL     1     -11.854   6.978  70.593  1.00  0.00    -0.377 A  
HETATM   15  C   UNL     1     -11.234   7.910  71.438  1.00  0.00    -0.280 A  
HETATM   16  C   UNL     1      -9.861   7.783  71.680  1.00  0.00    -0.201 A  
HETATM   17  C   UNL     1      -9.129   6.747  71.088  1.00  0.00    -0.151 A  
BRANCH  15  18
HETATM   18  C   UNL     1     -12.035   9.025  72.064  1.00  0.00    -0.433 C  
BRANCH  18  19
HETATM   19  C   UNL     1     -12.360  10.139  71.067  1.00  0.00    -0.373 C  
BRANCH  19  20
HETATM   20  O   UNL     1     -11.180  10.507  70.349  1.00  0.00    -0.304 OA 
BRANCH  20  21
HETATM   21  C   UNL     1     -11.520  11.235  69.168  1.00  0.00    -0.297 C  
BRANCH  21  22
HETATM   22  C   UNL     1     -11.284  10.367  67.974  1.00  0.00    -0.340 C  
HETATM   23  C   UNL     1      -9.917  10.340  67.337  1.00  0.00    -0.230 C  
HETATM   24  C   UNL     1     -10.427   9.131  68.069  1.00  0.00    -0.276 C  
ENDBRANCH  21  22
ENDBRANCH  20  21
ENDBRANCH  19  20
ENDBRANCH  18  19
ENDBRANCH  15  18
ENDBRANCH  11  12
ENDBRANCH  10  11
ENDBRANCH   7  10
ENDBRANCH   6   7
ENDBRANCH   4   6
ENDBRANCH   2   4
TORSDOF 11
ENDMDL
MODEL      294
REMARK 921   NORMALIZED FREE ENERGY PREDICTED BY IDOCK:   -2.74 KCAL/MOL
REMARK 922        TOTAL FREE ENERGY PREDICTED BY IDOCK:   -5.82 KCAL/MOL
REMARK 923 INTER-LIGAND FREE ENERGY PREDICTED BY IDOCK:   -4.90 KCAL/MOL
REMARK 924 INTRA-LIGAND FREE ENERGY PREDICTED BY IDOCK:   -0.92 KCAL/MOL
REMARK 927      BINDING AFFINITY PREDICTED BY RF-SCORE:    0.00 PKD
ROOT
HETATM    1  C   UNL     1     -12.597  14.107  70.254  1.00  0.00    -0.367 C  
HETATM    2  C   UNL     1     -11.420  15.066  70.054  1.00  0.00    -0.276 C  
HETATM    3  C   UNL     1     -11.036  15.690  71.397  1.00  0.00    -0.293 C  
ENDROOT
BRANCH   2   4
HETATM    4  N   UNL     1     -10.307  14.318  69.464  1.00  0.00    -0.436 NA 
HETATM    5  H   UNL     1     -10.651  13.570  68.862  1.00  0.00     0.000 HD 
BRANCH   4   6
HETATM    6  C   UNL     1      -9.350  15.171  68.743  1.00  0.00    -0.200 C  
BRANCH   6   7
HETATM    7  C   UNL     1      -9.851  15.440  67.313  1.00  0.00    -0.217 C  
HETATM    8  O   UNL     1      -9.333  16.699  66.850  1.00  0.00    -0.218 OA 
HETATM    9  H   UNL     1      -9.643  16.865  65.967  1.00  0.00     0.000 HD 
BRANCH   7  10
HETATM   10  C   UNL     1      -9.420  14.326  66.350  1.00  0.00    -0.275 C  
BRANCH  10  11
HETATM   11  O   UNL     1     -10.398  13.277  66.382  1.00  0.00    -0.275 OA 
BRANCH  11  12
HETATM   12  C   UNL     1      -9.884  12.009  66.437  1.00  0.00    -0.220 A  
HETATM   13  C   UNL     1     -10.572  10.858  66.068  1.00  0.00    -0.254 A  
HETATM   14  C   UNL     1      -9.954   9.610  66.163  1.00  0.00    -0.346 A  
HETATM   15  C   UNL     1      -8.628   9.494  66.605  1.00  0.00    -0.141 A  
HETATM   16  C   UNL     1      -7.936  10.658  66.957  1.00  0.00    -0.121 A  
HETATM   17  C   UNL     1      -8.559  11.908  66.867  1.00  0.00    -0.185 A  
BRANCH  15  18
HETATM   18  C   UNL     1      -7.972   8.138  66.704  1.00  0.00    -0.102 C  
BRANCH  18  19
HETATM   19  C   UNL     1      -8.970   7.031  67.047  1.00  0.00    -0.125 C  
BRANCH  19  20
HETATM   20  O   UNL     1      -8.603   6.412  68.282  1.00  0.00    -0.115 OA 
BRANCH  20  21
HETATM   21  C   UNL     1      -8.948   7.252  69.385  1.00  0.00    -0.139 C  
BRANCH  21  22
HETATM   22  C   UNL     1      -8.969   6.435  70.635  1.00  0.00    -0.144 C  
HETATM   23  C   UNL     1      -9.873   6.844  71.772  1.00  0.00    -0.170 C  
HETATM   24  C   UNL     1     -10.168   5.594  70.993  1.00  0.00    -0.281 C  
ENDBRANCH  21  22
ENDBRANCH  20  21
ENDBRANCH  19  20
ENDBRANCH  18  19
ENDBRANCH  15  18
ENDBRANCH  11  12
ENDBRANCH  10  11
ENDBRANCH   7  10
ENDBRANCH   6   7
ENDBRANCH   4   6
ENDBRANCH   2   4
TORSDOF 11
ENDMDL
MODEL      295
REMARK 921   NORMALIZED FREE ENERGY PREDICTED BY IDOCK:   -2.72 KCAL/MOL
REMARK 922        TOTAL FREE ENERGY PREDICTED BY IDOCK:   -5.79 KCAL/MOL
REMARK 923 INTER-LIGAND FREE ENERGY PREDICTED BY IDOCK:   -4.63 KCAL/MOL
REMARK 924 INTRA-LIGAND FREE ENERGY PREDICTED BY IDOCK:   -1.16 KCAL/MOL
REMARK 927      BINDING AFFINITY PREDICTED BY RF-SCORE:    0.00 PKD
ROOT
HETATM    1  C   UNL     1      -6.602  13.745  67.678  1.00  0.00    -0.181 C  
HETATM    2  C   UNL     1      -7.663  13.907  68.769  1.00  0.00    -0.096 C  
HETATM    3  C   UNL     1      -8.477  15.176  68.505  1.00  0.00    -0.160 C  
ENDROOT
BRANCH   2   4
HETATM    4  N   UNL     1      -8.510  12.712  68.776  1.00  0.00    -0.357 NA 
HETATM    5  H   UNL     1      -9.463  12.942  68.495  1.00  0.00     0.000 HD 
BRANCH   4   6
HETATM    6  C   UNL     1      -7.974  11.615  67.955  1.00  0.00    -0.132 C  
BRANCH   6   7
HETATM    7  C   UNL     1      -7.915  10.316  68.778  1.00  0.00    -0.113 C  
HETATM    8  O   UNL     1      -7.617  10.627  70.150  1.00  0.00    -0.411 OA 
HETATM    9  H   UNL     1      -7.581   9.824  70.658  1.00  0.00     0.000 HD 
BRANCH   7  10
HETATM   10  C   UNL     1      -9.242   9.547  68.707  1.00  0.00    -0.140 C  
BRANCH  10  11
HETATM   11  O   UNL     1     -10.007   9.827  69.888  1.00  0.00    -0.217 OA 
BRANCH  11  12
HETATM   12  C   UNL     1     -10.409   8.723  70.591  1.00  0.00    -0.209 A  
HETATM   13  C   UNL     1     -10.839   7.531  70.018  1.00  0.00    -0.260 A  
HETATM   14  C   UNL     1     -11.228   6.462  70.827  1.00  0.00    -0.386 A  
HETATM   15  C   UNL     1     -11.169   6.559  72.225  1.00  0.00    -0.308 A  
HETATM   16  C   UNL     1     -10.717   7.754  72.795  1.00  0.00    -0.417 A  
HETATM   17  C   UNL     1     -10.333   8.827  71.982  1.00  0.00    -0.411 A  
BRANCH  15  18
HETATM   18  C   UNL     1     -11.593   5.395  73.089  1.00  0.00    -0.204 C  
BRANCH  18  19
HETATM   19  C   UNL     1     -10.491   4.346  73.236  1.00  0.00    -0.187 C  
BRANCH  19  20
HETATM   20  O   UNL     1      -9.240   4.892  72.807  1.00  0.00    -0.131 OA 
BRANCH  20  21
HETATM   21  C   UNL     1      -8.510   3.931  72.043  1.00  0.00    -0.099 C  
BRANCH  21  22
HETATM   22  C   UNL     1      -7.398   4.622  71.323  1.00  0.00    -0.063 C  
HETATM   23  C   UNL     1      -7.493   4.817  69.830  1.00  0.00    -0.055 C  
HETATM   24  C   UNL     1      -7.585   6.003  70.748  1.00  0.00    -0.093 C  
ENDBRANCH  21  22
ENDBRANCH  20  21
ENDBRANCH  19  20
ENDBRANCH  18  19
ENDBRANCH  15  18
ENDBRANCH  11  12
ENDBRANCH  10  11
ENDBRANCH   7  10
ENDBRANCH   6   7
ENDBRANCH   4   6
ENDBRANCH   2   4
TORSDOF 11
ENDMDL
MODEL      296
REMARK 921   NORMALIZED FREE ENERGY PREDICTED BY IDOCK:   -2.71 KCAL/MOL
REMARK 922        TOTAL FREE ENERGY PREDICTED BY IDOCK:   -5.77 KCAL/MOL
REMARK 923 INTER-LIGAND FREE ENERGY PREDICTED BY IDOCK:   -4.50 KCAL/MOL
REMARK 924 INTRA-LIGAND FREE ENERGY PREDICTED BY IDOCK:   -1.27 KCAL/MOL
REMARK 927      BINDING AFFINITY PREDICTED BY RF-SCORE:    0.00 PKD
ROOT
HETATM    1  C   UNL     1      -8.978  15.623  66.636  1.00  0.00    -0.317 C  
HETATM    2  C   UNL     1      -7.578  15.598  67.254  1.00  0.00    -0.214 C  
HETATM    3  C   UNL     1      -7.669  15.954  68.740  1.00  0.00    -0.181 C  
ENDROOT
BRANCH   2   4
HETATM    4  N   UNL     1      -7.002  14.267  67.049  1.00  0.00    -0.323 NA 
HETATM    5  H   UNL     1      -6.644  14.170  66.099  1.00  0.00     0.000 HD 
BRANCH   4   6
HETATM    6  C   UNL     1      -5.968  13.922  68.035  1.00  0.00    -0.139 C  
BRANCH   6   7
HETATM    7  C   UNL     1      -6.127  12.457  68.482  1.00  0.00    -0.056 C  
HETATM    8  O   UNL     1      -6.766  12.412  69.769  1.00  0.00    -0.339 OA 
HETATM    9  H   UNL     1      -6.864  11.508  70.044  1.00  0.00     0.000 HD 
BRANCH   7  10
HETATM   10  C   UNL     1      -6.956  11.652  67.472  1.00  0.00    -0.104 C  
BRANCH  10  11
HETATM   11  O   UNL     1      -8.313  11.580  67.934  1.00  0.00    -0.125 OA 
BRANCH  11  12
HETATM   12  C   UNL     1      -8.956  10.404  67.656  1.00  0.00    -0.138 A  
HETATM   13  C   UNL     1      -8.858   9.711  66.454  1.00  0.00    -0.168 A  
HETATM   14  C   UNL     1      -9.557   8.518  66.272  1.00  0.00    -0.306 A  
HETATM   15  C   UNL     1     -10.349   7.982  67.299  1.00  0.00    -0.371 A  
HETATM   16  C   UNL     1     -10.428   8.675  68.512  1.00  0.00    -0.209 A  
HETATM   17  C   UNL     1      -9.731   9.876  68.691  1.00  0.00    -0.163 A  
BRANCH  15  18
HETATM   18  C   UNL     1     -11.101   6.691  67.089  1.00  0.00    -0.427 C  
BRANCH  18  19
HETATM   19  C   UNL     1     -10.203   5.462  67.240  1.00  0.00    -0.214 C  
BRANCH  19  20
HETATM   20  O   UNL     1     -10.419   4.565  66.149  1.00  0.00    -0.272 OA 
BRANCH  20  21
HETATM   21  C   UNL     1      -9.180   4.012  65.703  1.00  0.00    -0.150 C  
BRANCH  21  22
HETATM   22  C   UNL     1      -8.204   5.120  65.473  1.00  0.00    -0.121 C  
HETATM   23  C   UNL     1      -7.050   4.906  64.525  1.00  0.00    -0.054 C  
HETATM   24  C   UNL     1      -8.157   5.853  64.156  1.00  0.00    -0.110 C  
ENDBRANCH  21  22
ENDBRANCH  20  21
ENDBRANCH  19  20
ENDBRANCH  18  19
ENDBRANCH  15  18
ENDBRANCH  11  12
ENDBRANCH  10  11
ENDBRANCH   7  10
ENDBRANCH   6   7
ENDBRANCH   4   6
ENDBRANCH   2   4
TORSDOF 11
ENDMDL
MODEL      297
REMARK 921   NORMALIZED FREE ENERGY PREDICTED BY IDOCK:   -2.70 KCAL/MOL
REMARK 922        TOTAL FREE ENERGY PREDICTED BY IDOCK:   -5.76 KCAL/MOL
REMARK 923 INTER-LIGAND FREE ENERGY PREDICTED BY IDOCK:   -4.43 KCAL/MOL
REMARK 924 INTRA-LIGAND FREE ENERGY PREDICTED BY IDOCK:   -1.33 KCAL/MOL
REMARK 927      BINDING AFFINITY PREDICTED BY RF-SCORE:    0.00 PKD
ROOT
HETATM    1  C   UNL     1     -10.217   9.789  70.341  1.00  0.00    -0.343 C  
HETATM    2  C   UNL     1     -11.744   9.676  70.342  1.00  0.00    -0.202 C  
HETATM    3  C   UNL     1     -12.255   9.683  71.785  1.00  0.00    -0.464 C  
ENDROOT
BRANCH   2   4
HETATM    4  N   UNL     1     -12.293  10.790  69.566  1.00  0.00    -0.559 NA 
HETATM    5  H   UNL     1     -13.273  10.625  69.340  1.00  0.00     0.000 HD 
BRANCH   4   6
HETATM    6  C   UNL     1     -12.121  12.096  70.221  1.00  0.00    -0.302 C  
BRANCH   6   7
HETATM    7  C   UNL     1     -11.834  13.183  69.171  1.00  0.00    -0.314 C  
HETATM    8  O   UNL     1     -10.909  14.143  69.710  1.00  0.00    -0.448 OA 
HETATM    9  H   UNL     1     -10.733  14.815  69.061  1.00  0.00     0.000 HD 
BRANCH   7  10
HETATM   10  C   UNL     1     -11.250  12.580  67.886  1.00  0.00    -0.264 C  
BRANCH  10  11
HETATM   11  O   UNL     1      -9.992  13.211  67.604  1.00  0.00    -0.211 OA 
BRANCH  11  12
HETATM   12  C   UNL     1      -8.948  12.350  67.395  1.00  0.00    -0.185 A  
HETATM   13  C   UNL     1      -9.082  10.996  67.107  1.00  0.00    -0.151 A  
HETATM   14  C   UNL     1      -7.950  10.204  66.911  1.00  0.00    -0.114 A  
HETATM   15  C   UNL     1      -6.663  10.758  66.975  1.00  0.00    -0.090 A  
HETATM   16  C   UNL     1      -6.537  12.124  67.247  1.00  0.00    -0.146 A  
HETATM   17  C   UNL     1      -7.673  12.917  67.449  1.00  0.00    -0.160 A  
BRANCH  15  18
HETATM   18  C   UNL     1      -5.447   9.890  66.761  1.00  0.00    -0.045 C  
BRANCH  18  19
HETATM   19  C   UNL     1      -5.771   8.615  65.982  1.00  0.00    -0.046 C  
BRANCH  19  20
HETATM   20  O   UNL     1      -5.229   7.479  66.661  1.00  0.00    -0.022 OA 
BRANCH  20  21
HETATM   21  C   UNL     1      -6.273   6.702  67.247  1.00  0.00    -0.036 C  
BRANCH  21  22
HETATM   22  C   UNL     1      -7.362   6.506  66.242  1.00  0.00    -0.073 C  
HETATM   23  C   UNL     1      -8.324   5.356  66.408  1.00  0.00    -0.110 C  
HETATM   24  C   UNL     1      -8.803   6.768  66.598  1.00  0.00    -0.142 C  
ENDBRANCH  21  22
ENDBRANCH  20  21
ENDBRANCH  19  20
ENDBRANCH  18  19
ENDBRANCH  15  18
ENDBRANCH  11  12
ENDBRANCH  10  11
ENDBRANCH   7  10
ENDBRANCH   6   7
ENDBRANCH   4   6
ENDBRANCH   2   4
TORSDOF 11
ENDMDL
MODEL      298
REMARK 921   NORMALIZED FREE ENERGY PREDICTED BY IDOCK:   -2.69 KCAL/MOL
REMARK 922        TOTAL FREE ENERGY PREDICTED BY IDOCK:   -5.74 KCAL/MOL
REMARK 923 INTER-LIGAND FREE ENERGY PREDICTED BY IDOCK:   -5.12 KCAL/MOL
REMARK 924 INTRA-LIGAND FREE ENERGY PREDICTED BY IDOCK:   -0.61 KCAL/MOL
REMARK 927      BINDING AFFINITY PREDICTED BY RF-SCORE:    0.00 PKD
ROOT
HETATM    1  C   UNL     1      -8.568  15.700  67.081  1.00  0.00    -0.235 C  
HETATM    2  C   UNL     1      -8.506  15.637  68.610  1.00  0.00    -0.179 C  
HETATM    3  C   UNL     1      -9.195  16.870  69.199  1.00  0.00    -0.105 C  
ENDROOT
BRANCH   2   4
HETATM    4  N   UNL     1      -9.145  14.395  69.050  1.00  0.00    -0.379 NA 
HETATM    5  H   UNL     1      -9.202  14.359  70.068  1.00  0.00     0.000 HD 
BRANCH   4   6
HETATM    6  C   UNL     1     -10.466  14.173  68.444  1.00  0.00    -0.254 C  
BRANCH   6   7
HETATM    7  C   UNL     1     -11.573  14.371  69.495  1.00  0.00    -0.304 C  
HETATM    8  O   UNL     1     -12.795  14.758  68.843  1.00  0.00    -0.240 OA 
HETATM    9  H   UNL     1     -13.478  14.880  69.492  1.00  0.00     0.000 HD 
BRANCH   7  10
HETATM   10  C   UNL     1     -11.812  13.089  70.304  1.00  0.00    -0.217 C  
BRANCH  10  11
HETATM   11  O   UNL     1     -12.215  12.041  69.410  1.00  0.00    -0.216 OA 
BRANCH  11  12
HETATM   12  C   UNL     1     -11.713  10.803  69.707  1.00  0.00    -0.324 A  
HETATM   13  C   UNL     1     -10.941  10.032  68.845  1.00  0.00    -0.244 A  
HETATM   14  C   UNL     1     -10.477   8.778  69.247  1.00  0.00    -0.228 A  
HETATM   15  C   UNL     1     -10.758   8.284  70.530  1.00  0.00    -0.238 A  
HETATM   16  C   UNL     1     -11.519   9.073  71.398  1.00  0.00    -0.400 A  
HETATM   17  C   UNL     1     -11.989  10.327  70.992  1.00  0.00    -0.483 A  
BRANCH  15  18
HETATM   18  C   UNL     1     -10.251   6.926  70.952  1.00  0.00    -0.214 C  
BRANCH  18  19
HETATM   19  C   UNL     1     -10.957   6.404  72.204  1.00  0.00    -0.251 C  
BRANCH  19  20
HETATM   20  O   UNL     1     -10.057   6.426  73.314  1.00  0.00    -0.176 OA 
BRANCH  20  21
HETATM   21  C   UNL     1      -9.977   5.135  73.919  1.00  0.00    -0.176 C  
BRANCH  21  22
HETATM   22  C   UNL     1      -8.639   4.538  73.626  1.00  0.00    -0.103 C  
HETATM   23  C   UNL     1      -8.330   3.141  74.105  1.00  0.00    -0.070 C  
HETATM   24  C   UNL     1      -8.491   3.412  72.635  1.00  0.00    -0.086 C  
ENDBRANCH  21  22
ENDBRANCH  20  21
ENDBRANCH  19  20
ENDBRANCH  18  19
ENDBRANCH  15  18
ENDBRANCH  11  12
ENDBRANCH  10  11
ENDBRANCH   7  10
ENDBRANCH   6   7
ENDBRANCH   4   6
ENDBRANCH   2   4
TORSDOF 11
ENDMDL
MODEL      299
REMARK 921   NORMALIZED FREE ENERGY PREDICTED BY IDOCK:   -2.68 KCAL/MOL
REMARK 922        TOTAL FREE ENERGY PREDICTED BY IDOCK:   -5.73 KCAL/MOL
REMARK 923 INTER-LIGAND FREE ENERGY PREDICTED BY IDOCK:   -4.54 KCAL/MOL
REMARK 924 INTRA-LIGAND FREE ENERGY PREDICTED BY IDOCK:   -1.18 KCAL/MOL
REMARK 927      BINDING AFFINITY PREDICTED BY RF-SCORE:    0.00 PKD
ROOT
HETATM    1  C   UNL     1     -14.244   6.987  71.599  1.00  0.00    -0.433 C  
HETATM    2  C   UNL     1     -13.393   8.232  71.340  1.00  0.00    -0.210 C  
HETATM    3  C   UNL     1     -13.719   9.301  72.386  1.00  0.00    -0.517 C  
ENDROOT
BRANCH   2   4
HETATM    4  N   UNL     1     -11.980   7.847  71.381  1.00  0.00    -0.297 NA 
HETATM    5  H   UNL     1     -11.424   8.444  70.769  1.00  0.00     0.000 HD 
BRANCH   4   6
HETATM    6  C   UNL     1     -11.421   7.827  72.741  1.00  0.00    -0.359 C  
BRANCH   6   7
HETATM    7  C   UNL     1     -10.611   6.538  72.964  1.00  0.00    -0.250 C  
HETATM    8  O   UNL     1     -11.286   5.703  73.921  1.00  0.00    -0.359 OA 
HETATM    9  H   UNL     1     -10.785   4.908  74.058  1.00  0.00     0.000 HD 
BRANCH   7  10
HETATM   10  C   UNL     1     -10.424   5.761  71.654  1.00  0.00    -0.231 C  
BRANCH  10  11
HETATM   11  O   UNL     1      -9.036   5.785  71.291  1.00  0.00    -0.138 OA 
BRANCH  11  12
HETATM   12  C   UNL     1      -8.780   6.189  70.008  1.00  0.00    -0.137 A  
HETATM   13  C   UNL     1      -9.749   6.596  69.097  1.00  0.00    -0.148 A  
HETATM   14  C   UNL     1      -9.382   6.990  67.810  1.00  0.00    -0.127 A  
HETATM   15  C   UNL     1      -8.035   7.008  67.418  1.00  0.00    -0.112 A  
HETATM   16  C   UNL     1      -7.064   6.616  68.346  1.00  0.00    -0.083 A  
HETATM   17  C   UNL     1      -7.434   6.215  69.635  1.00  0.00    -0.081 A  
BRANCH  15  18
HETATM   18  C   UNL     1      -7.651   7.436  66.023  1.00  0.00    -0.088 C  
BRANCH  18  19
HETATM   19  C   UNL     1      -6.980   8.810  65.998  1.00  0.00    -0.080 C  
BRANCH  19  20
HETATM   20  O   UNL     1      -7.533   9.603  64.945  1.00  0.00    -0.107 OA 
BRANCH  20  21
HETATM   21  C   UNL     1      -8.869   9.190  64.657  1.00  0.00    -0.142 C  
BRANCH  21  22
HETATM   22  C   UNL     1      -9.815  10.273  65.063  1.00  0.00    -0.397 C  
HETATM   23  C   UNL     1     -10.727  10.055  66.244  1.00  0.00    -0.018 C  
HETATM   24  C   UNL     1      -9.605  11.050  66.338  1.00  0.00    -0.227 C  
ENDBRANCH  21  22
ENDBRANCH  20  21
ENDBRANCH  19  20
ENDBRANCH  18  19
ENDBRANCH  15  18
ENDBRANCH  11  12
ENDBRANCH  10  11
ENDBRANCH   7  10
ENDBRANCH   6   7
ENDBRANCH   4   6
ENDBRANCH   2   4
TORSDOF 11
ENDMDL
MODEL      300
REMARK 921   NORMALIZED FREE ENERGY PREDICTED BY IDOCK:   -2.68 KCAL/MOL
REMARK 922        TOTAL FREE ENERGY PREDICTED BY IDOCK:   -5.72 KCAL/MOL
REMARK 923 INTER-LIGAND FREE ENERGY PREDICTED BY IDOCK:   -4.59 KCAL/MOL
REMARK 924 INTRA-LIGAND FREE ENERGY PREDICTED BY IDOCK:   -1.14 KCAL/MOL
REMARK 927      BINDING AFFINITY PREDICTED BY RF-SCORE:    0.00 PKD
ROOT
HETATM    1  C   UNL     1      -9.856  16.505  65.846  1.00  0.00    -0.324 C  
HETATM    2  C   UNL     1      -8.636  16.585  66.767  1.00  0.00    -0.230 C  
HETATM    3  C   UNL     1      -9.099  16.816  68.207  1.00  0.00    -0.228 C  
ENDROOT
BRANCH   2   4
HETATM    4  N   UNL     1      -7.872  15.343  66.635  1.00  0.00    -0.289 NA 
HETATM    5  H   UNL     1      -7.356  15.327  65.755  1.00  0.00     0.000 HD 
BRANCH   4   6
HETATM    6  C   UNL     1      -6.974  15.088  67.771  1.00  0.00    -0.174 C  
BRANCH   6   7
HETATM    7  C   UNL     1      -7.180  13.658  68.302  1.00  0.00    -0.111 C  
HETATM    8  O   UNL     1      -8.319  13.628  69.179  1.00  0.00    -0.335 OA 
HETATM    9  H   UNL     1      -8.446  12.745  69.506  1.00  0.00     0.000 HD 
BRANCH   7  10
HETATM   10  C   UNL     1      -7.395  12.662  67.155  1.00  0.00    -0.037 C  
BRANCH  10  11
HETATM   11  O   UNL     1      -8.803  12.504  66.930  1.00  0.00    -0.205 OA 
BRANCH  11  12
HETATM   12  C   UNL     1      -9.246  11.209  66.920  1.00  0.00    -0.169 A  
HETATM   13  C   UNL     1      -8.734  10.202  66.108  1.00  0.00    -0.154 A  
HETATM   14  C   UNL     1      -9.257   8.910  66.175  1.00  0.00    -0.273 A  
HETATM   15  C   UNL     1     -10.287   8.596  67.076  1.00  0.00    -0.368 A  
HETATM   16  C   UNL     1     -10.783   9.609  67.903  1.00  0.00    -0.302 A  
HETATM   17  C   UNL     1     -10.261  10.906  67.830  1.00  0.00    -0.209 A  
BRANCH  15  18
HETATM   18  C   UNL     1     -10.844   7.195  67.138  1.00  0.00    -0.403 C  
BRANCH  18  19
HETATM   19  C   UNL     1     -10.411   6.452  68.402  1.00  0.00    -0.222 C  
BRANCH  19  20
HETATM   20  O   UNL     1      -9.380   5.513  68.085  1.00  0.00    -0.108 OA 
BRANCH  20  21
HETATM   21  C   UNL     1      -8.312   5.605  69.029  1.00  0.00    -0.100 C  
BRANCH  21  22
HETATM   22  C   UNL     1      -8.587   6.731  69.971  1.00  0.00    -0.141 C  
HETATM   23  C   UNL     1      -8.655   6.457  71.453  1.00  0.00    -0.130 C  
HETATM   24  C   UNL     1      -7.513   7.255  70.890  1.00  0.00    -0.075 C  
ENDBRANCH  21  22
ENDBRANCH  20  21
ENDBRANCH  19  20
ENDBRANCH  18  19
ENDBRANCH  15  18
ENDBRANCH  11  12
ENDBRANCH  10  11
ENDBRANCH   7  10
ENDBRANCH   6   7
ENDBRANCH   4   6
ENDBRANCH   2   4
TORSDOF 11
ENDMDL
MODEL      301
REMARK 921   NORMALIZED FREE ENERGY PREDICTED BY IDOCK:   -2.67 KCAL/MOL
REMARK 922        TOTAL FREE ENERGY PREDICTED BY IDOCK:   -5.71 KCAL/MOL
REMARK 923 INTER-LIGAND FREE ENERGY PREDICTED BY IDOCK:   -4.36 KCAL/MOL
REMARK 924 INTRA-LIGAND FREE ENERGY PREDICTED BY IDOCK:   -1.34 KCAL/MOL
REMARK 927      BINDING AFFINITY PREDICTED BY RF-SCORE:    0.00 PKD
ROOT
HETATM    1  C   UNL     1     -11.768  11.707  68.245  1.00  0.00    -0.374 C  
HETATM    2  C   UNL     1     -10.915  12.940  67.936  1.00  0.00    -0.241 C  
HETATM    3  C   UNL     1     -11.793  14.023  67.304  1.00  0.00    -0.445 C  
ENDROOT
BRANCH   2   4
HETATM    4  N   UNL     1     -10.295  13.401  69.181  1.00  0.00    -0.431 NA 
HETATM    5  H   UNL     1     -10.403  12.705  69.918  1.00  0.00     0.000 HD 
BRANCH   4   6
HETATM    6  C   UNL     1      -8.883  13.781  69.022  1.00  0.00     0.280 C  
BRANCH   6   7
HETATM    7  C   UNL     1      -8.281  13.086  67.788  1.00  0.00    -0.168 C  
HETATM    8  O   UNL     1      -7.298  13.943  67.182  1.00  0.00    -0.333 OA 
HETATM    9  H   UNL     1      -6.927  13.513  66.420  1.00  0.00     0.000 HD 
BRANCH   7  10
HETATM   10  C   UNL     1      -7.630  11.747  68.161  1.00  0.00    -0.117 C  
BRANCH  10  11
HETATM   11  O   UNL     1      -8.242  11.248  69.359  1.00  0.00     0.061 OA 
BRANCH  11  12
HETATM   12  C   UNL     1      -8.912  10.063  69.215  1.00  0.00    -0.178 A  
HETATM   13  C   UNL     1      -9.557   9.386  70.245  1.00  0.00    -0.294 A  
HETATM   14  C   UNL     1     -10.212   8.180  69.992  1.00  0.00    -0.202 A  
HETATM   15  C   UNL     1     -10.255   7.642  68.697  1.00  0.00    -0.214 A  
HETATM   16  C   UNL     1      -9.621   8.338  67.662  1.00  0.00    -0.187 A  
HETATM   17  C   UNL     1      -8.958   9.544  67.919  1.00  0.00    -0.125 A  
BRANCH  15  18
HETATM   18  C   UNL     1     -10.968   6.337  68.436  1.00  0.00    -0.409 C  
BRANCH  18  19
HETATM   19  C   UNL     1     -10.853   5.892  66.977  1.00  0.00    -0.295 C  
BRANCH  19  20
HETATM   20  O   UNL     1      -9.778   4.961  66.836  1.00  0.00    -0.150 OA 
BRANCH  20  21
HETATM   21  C   UNL     1      -9.812   4.349  65.546  1.00  0.00    -0.216 C  
BRANCH  21  22
HETATM   22  C   UNL     1      -8.494   4.554  64.872  1.00  0.00    -0.130 C  
HETATM   23  C   UNL     1      -8.123   5.930  64.376  1.00  0.00    -0.128 C  
HETATM   24  C   UNL     1      -7.391   5.332  65.545  1.00  0.00    -0.069 C  
ENDBRANCH  21  22
ENDBRANCH  20  21
ENDBRANCH  19  20
ENDBRANCH  18  19
ENDBRANCH  15  18
ENDBRANCH  11  12
ENDBRANCH  10  11
ENDBRANCH   7  10
ENDBRANCH   6   7
ENDBRANCH   4   6
ENDBRANCH   2   4
TORSDOF 11
ENDMDL
MODEL      302
REMARK 921   NORMALIZED FREE ENERGY PREDICTED BY IDOCK:   -2.66 KCAL/MOL
REMARK 922        TOTAL FREE ENERGY PREDICTED BY IDOCK:   -5.69 KCAL/MOL
REMARK 923 INTER-LIGAND FREE ENERGY PREDICTED BY IDOCK:   -4.84 KCAL/MOL
REMARK 924 INTRA-LIGAND FREE ENERGY PREDICTED BY IDOCK:   -0.85 KCAL/MOL
REMARK 927      BINDING AFFINITY PREDICTED BY RF-SCORE:    0.00 PKD
ROOT
HETATM    1  C   UNL     1     -11.353  12.244  67.230  1.00  0.00    -0.392 C  
HETATM    2  C   UNL     1     -10.175  13.171  66.920  1.00  0.00    -0.245 C  
HETATM    3  C   UNL     1      -9.151  13.092  68.055  1.00  0.00    -0.210 C  
ENDROOT
BRANCH   2   4
HETATM    4  N   UNL     1      -9.594  12.771  65.636  1.00  0.00    -0.457 NA 
HETATM    5  H   UNL     1      -8.962  11.979  65.756  1.00  0.00     0.000 HD 
BRANCH   4   6
HETATM    6  C   UNL     1     -10.603  12.484  64.605  1.00  0.00    -0.316 C  
BRANCH   6   7
HETATM    7  C   UNL     1     -10.139  11.314  63.719  1.00  0.00    -0.361 C  
HETATM    8  O   UNL     1      -9.225  11.798  62.720  1.00  0.00    -0.572 OA 
HETATM    9  H   UNL     1      -8.939  11.075  62.173  1.00  0.00     0.000 HD 
BRANCH   7  10
HETATM   10  C   UNL     1      -9.453  10.221  64.550  1.00  0.00    -0.298 C  
BRANCH  10  11
HETATM   11  O   UNL     1     -10.364   9.758  65.557  1.00  0.00    -0.178 OA 
BRANCH  11  12
HETATM   12  C   UNL     1      -9.824   8.899  66.475  1.00  0.00    -0.274 A  
HETATM   13  C   UNL     1      -8.461   8.694  66.663  1.00  0.00    -0.115 A  
HETATM   14  C   UNL     1      -8.012   7.792  67.629  1.00  0.00    -0.124 A  
HETATM   15  C   UNL     1      -8.920   7.098  68.443  1.00  0.00    -0.125 A  
HETATM   16  C   UNL     1     -10.288   7.324  68.262  1.00  0.00    -0.227 A  
HETATM   17  C   UNL     1     -10.737   8.224  67.288  1.00  0.00    -0.241 A  
BRANCH  15  18
HETATM   18  C   UNL     1      -8.421   6.126  69.485  1.00  0.00    -0.120 C  
BRANCH  18  19
HETATM   19  C   UNL     1      -9.557   5.334  70.133  1.00  0.00    -0.178 C  
BRANCH  19  20
HETATM   20  O   UNL     1      -9.106   4.018  70.464  1.00  0.00    -0.093 OA 
BRANCH  20  21
HETATM   21  C   UNL     1      -9.329   3.745  71.848  1.00  0.00    -0.132 C  
BRANCH  21  22
HETATM   22  C   UNL     1      -8.277   2.803  72.336  1.00  0.00    -0.055 C  
HETATM   23  C   UNL     1      -7.710   2.982  73.723  1.00  0.00    -0.060 C  
HETATM   24  C   UNL     1      -8.578   1.795  73.415  1.00  0.00    -0.061 C  
ENDBRANCH  21  22
ENDBRANCH  20  21
ENDBRANCH  19  20
ENDBRANCH  18  19
ENDBRANCH  15  18
ENDBRANCH  11  12
ENDBRANCH  10  11
ENDBRANCH   7  10
ENDBRANCH   6   7
ENDBRANCH   4   6
ENDBRANCH   2   4
TORSDOF 11
ENDMDL
MODEL      303
REMARK 921   NORMALIZED FREE ENERGY PREDICTED BY IDOCK:   -2.66 KCAL/MOL
REMARK 922        TOTAL FREE ENERGY PREDICTED BY IDOCK:   -5.69 KCAL/MOL
REMARK 923 INTER-LIGAND FREE ENERGY PREDICTED BY IDOCK:   -3.95 KCAL/MOL
REMARK 924 INTRA-LIGAND FREE ENERGY PREDICTED BY IDOCK:   -1.74 KCAL/MOL
REMARK 927      BINDING AFFINITY PREDICTED BY RF-SCORE:    0.00 PKD
ROOT
HETATM    1  C   UNL     1     -11.154  10.826  67.597  1.00  0.00    -0.384 C  
HETATM    2  C   UNL     1     -10.595  12.241  67.425  1.00  0.00    -0.222 C  
HETATM    3  C   UNL     1     -11.716  13.181  66.976  1.00  0.00    -0.431 C  
ENDROOT
BRANCH   2   4
HETATM    4  N   UNL     1     -10.008  12.667  68.698  1.00  0.00    -0.393 NA 
HETATM    5  H   UNL     1     -10.008  11.900  69.371  1.00  0.00     0.000 HD 
BRANCH   4   6
HETATM    6  C   UNL     1      -8.659  13.236  68.554  1.00  0.00    -0.065 C  
BRANCH   6   7
HETATM    7  C   UNL     1      -7.863  12.457  67.493  1.00  0.00    -0.169 C  
HETATM    8  O   UNL     1      -6.919  13.335  66.856  1.00  0.00    -0.385 OA 
HETATM    9  H   UNL     1      -6.428  12.853  66.201  1.00  0.00     0.000 HD 
BRANCH   7  10
HETATM   10  C   UNL     1      -7.115  11.269  68.115  1.00  0.00    -0.071 C  
BRANCH  10  11
HETATM   11  O   UNL     1      -7.770  10.892  69.335  1.00  0.00    -0.134 OA 
BRANCH  11  12
HETATM   12  C   UNL     1      -8.342   9.648  69.323  1.00  0.00    -0.137 A  
HETATM   13  C   UNL     1      -9.126   9.126  70.347  1.00  0.00    -0.270 A  
HETATM   14  C   UNL     1      -9.662   7.842  70.236  1.00  0.00    -0.183 A  
HETATM   15  C   UNL     1      -9.445   7.068  69.087  1.00  0.00    -0.143 A  
HETATM   16  C   UNL     1      -8.672   7.607  68.053  1.00  0.00    -0.125 A  
HETATM   17  C   UNL     1      -8.129   8.892  68.168  1.00  0.00    -0.106 A  
BRANCH  15  18
HETATM   18  C   UNL     1     -10.032   5.681  68.979  1.00  0.00    -0.233 C  
BRANCH  18  19
HETATM   19  C   UNL     1      -9.269   4.801  67.988  1.00  0.00    -0.123 C  
BRANCH  19  20
HETATM   20  O   UNL     1      -8.739   3.657  68.661  1.00  0.00    -0.090 OA 
BRANCH  20  21
HETATM   21  C   UNL     1      -7.407   3.911  69.108  1.00  0.00    -0.054 C  
BRANCH  21  22
HETATM   22  C   UNL     1      -7.306   3.579  70.561  1.00  0.00    -0.041 C  
HETATM   23  C   UNL     1      -7.639   4.636  71.586  1.00  0.00    -0.082 C  
HETATM   24  C   UNL     1      -8.542   3.447  71.415  1.00  0.00    -0.106 C  
ENDBRANCH  21  22
ENDBRANCH  20  21
ENDBRANCH  19  20
ENDBRANCH  18  19
ENDBRANCH  15  18
ENDBRANCH  11  12
ENDBRANCH  10  11
ENDBRANCH   7  10
ENDBRANCH   6   7
ENDBRANCH   4   6
ENDBRANCH   2   4
TORSDOF 11
ENDMDL
MODEL      304
REMARK 921   NORMALIZED FREE ENERGY PREDICTED BY IDOCK:   -2.63 KCAL/MOL
REMARK 922        TOTAL FREE ENERGY PREDICTED BY IDOCK:   -5.64 KCAL/MOL
REMARK 923 INTER-LIGAND FREE ENERGY PREDICTED BY IDOCK:   -4.16 KCAL/MOL
REMARK 924 INTRA-LIGAND FREE ENERGY PREDICTED BY IDOCK:   -1.48 KCAL/MOL
REMARK 927      BINDING AFFINITY PREDICTED BY RF-SCORE:    0.00 PKD
ROOT
HETATM    1  C   UNL     1      -7.364   9.324  70.712  1.00  0.00    -0.134 C  
HETATM    2  C   UNL     1      -8.085   8.044  71.139  1.00  0.00    -0.095 C  
HETATM    3  C   UNL     1      -7.458   6.843  70.427  1.00  0.00    -0.086 C  
ENDROOT
BRANCH   2   4
HETATM    4  N   UNL     1      -7.991   7.921  72.596  1.00  0.00    -0.112 NA 
HETATM    5  H   UNL     1      -7.143   8.369  72.942  1.00  0.00     0.000 HD 
BRANCH   4   6
HETATM    6  C   UNL     1      -9.177   8.430  73.301  1.00  0.00    -0.100 C  
BRANCH   6   7
HETATM    7  C   UNL     1     -10.325   7.409  73.216  1.00  0.00    -0.355 C  
HETATM    8  O   UNL     1     -10.519   6.794  74.502  1.00  0.00    -0.436 OA 
HETATM    9  H   UNL     1     -11.228   6.164  74.449  1.00  0.00     0.000 HD 
BRANCH   7  10
HETATM   10  C   UNL     1     -11.633   8.073  72.766  1.00  0.00    -0.327 C  
BRANCH  10  11
HETATM   11  O   UNL     1     -12.194   7.314  71.685  1.00  0.00    -0.308 OA 
BRANCH  11  12
HETATM   12  C   UNL     1     -11.622   7.540  70.462  1.00  0.00    -0.200 A  
HETATM   13  C   UNL     1     -11.263   8.792  69.973  1.00  0.00    -0.113 A  
HETATM   14  C   UNL     1     -10.684   8.914  68.709  1.00  0.00    -0.123 A  
HETATM   15  C   UNL     1     -10.430   7.781  67.921  1.00  0.00    -0.263 A  
HETATM   16  C   UNL     1     -10.776   6.524  68.427  1.00  0.00    -0.339 A  
HETATM   17  C   UNL     1     -11.362   6.404  69.692  1.00  0.00    -0.479 A  
BRANCH  15  18
HETATM   18  C   UNL     1      -9.803   7.927  66.556  1.00  0.00    -0.272 C  
BRANCH  18  19
HETATM   19  C   UNL     1      -8.421   8.577  66.615  1.00  0.00    -0.113 C  
BRANCH  19  20
HETATM   20  O   UNL     1      -7.474   7.773  65.908  1.00  0.00    -0.077 OA 
BRANCH  20  21
HETATM   21  C   UNL     1      -7.943   6.428  65.798  1.00  0.00    -0.117 C  
BRANCH  21  22
HETATM   22  C   UNL     1      -6.779   5.521  65.565  1.00  0.00    -0.041 C  
HETATM   23  C   UNL     1      -5.754   5.337  66.657  1.00  0.00    -0.018 C  
HETATM   24  C   UNL     1      -6.666   4.202  66.285  1.00  0.00    -0.053 C  
ENDBRANCH  21  22
ENDBRANCH  20  21
ENDBRANCH  19  20
ENDBRANCH  18  19
ENDBRANCH  15  18
ENDBRANCH  11  12
ENDBRANCH  10  11
ENDBRANCH   7  10
ENDBRANCH   6   7
ENDBRANCH   4   6
ENDBRANCH   2   4
TORSDOF 11
ENDMDL
MODEL      305
REMARK 921   NORMALIZED FREE ENERGY PREDICTED BY IDOCK:   -2.62 KCAL/MOL
REMARK 922        TOTAL FREE ENERGY PREDICTED BY IDOCK:   -5.63 KCAL/MOL
REMARK 923 INTER-LIGAND FREE ENERGY PREDICTED BY IDOCK:   -4.46 KCAL/MOL
REMARK 924 INTRA-LIGAND FREE ENERGY PREDICTED BY IDOCK:   -1.17 KCAL/MOL
REMARK 927      BINDING AFFINITY PREDICTED BY RF-SCORE:    0.00 PKD
ROOT
HETATM    1  C   UNL     1     -10.999  10.428  67.540  1.00  0.00    -0.358 C  
HETATM    2  C   UNL     1     -10.043  10.172  66.372  1.00  0.00    -0.236 C  
HETATM    3  C   UNL     1      -8.639  10.651  66.746  1.00  0.00    -0.129 C  
ENDROOT
BRANCH   2   4
HETATM    4  N   UNL     1     -10.064   8.741  66.060  1.00  0.00    -0.422 NA 
HETATM    5  H   UNL     1      -9.691   8.569  65.126  1.00  0.00     0.000 HD 
BRANCH   4   6
HETATM    6  C   UNL     1      -9.367   7.918  67.060  1.00  0.00    -0.160 C  
BRANCH   6   7
HETATM    7  C   UNL     1     -10.069   6.556  67.209  1.00  0.00    -0.164 C  
HETATM    8  O   UNL     1     -11.494   6.737  67.143  1.00  0.00    -0.756 OA 
HETATM    9  H   UNL     1     -11.926   5.896  67.234  1.00  0.00     0.000 HD 
BRANCH   7  10
HETATM   10  C   UNL     1      -9.629   5.577  66.111  1.00  0.00    -0.139 C  
BRANCH  10  11
HETATM   11  O   UNL     1      -8.379   4.982  66.490  1.00  0.00    -0.108 OA 
BRANCH  11  12
HETATM   12  C   UNL     1      -8.427   4.203  67.614  1.00  0.00    -0.098 A  
HETATM   13  C   UNL     1      -7.741   4.471  68.795  1.00  0.00    -0.071 A  
HETATM   14  C   UNL     1      -7.859   3.610  69.887  1.00  0.00    -0.051 A  
HETATM   15  C   UNL     1      -8.685   2.478  69.826  1.00  0.00    -0.126 A  
HETATM   16  C   UNL     1      -9.387   2.225  68.642  1.00  0.00    -0.238 A  
HETATM   17  C   UNL     1      -9.263   3.086  67.545  1.00  0.00    -0.233 A  
BRANCH  15  18
HETATM   18  C   UNL     1      -8.803   1.554  71.014  1.00  0.00    -0.105 C  
BRANCH  18  19
HETATM   19  C   UNL     1     -10.193   1.599  71.651  1.00  0.00    -0.035 C  
BRANCH  19  20
HETATM   20  O   UNL     1     -10.092   2.041  73.007  1.00  0.00    -0.095 OA 
BRANCH  20  21
HETATM   21  C   UNL     1     -10.953   3.158  73.234  1.00  0.00    -0.158 C  
BRANCH  21  22
HETATM   22  C   UNL     1     -10.221   4.417  72.898  1.00  0.00    -0.229 C  
HETATM   23  C   UNL     1     -10.752   5.313  71.807  1.00  0.00    -0.240 C  
HETATM   24  C   UNL     1     -10.800   5.766  73.239  1.00  0.00    -0.306 C  
ENDBRANCH  21  22
ENDBRANCH  20  21
ENDBRANCH  19  20
ENDBRANCH  18  19
ENDBRANCH  15  18
ENDBRANCH  11  12
ENDBRANCH  10  11
ENDBRANCH   7  10
ENDBRANCH   6   7
ENDBRANCH   4   6
ENDBRANCH   2   4
TORSDOF 11
ENDMDL
MODEL      306
REMARK 921   NORMALIZED FREE ENERGY PREDICTED BY IDOCK:   -2.60 KCAL/MOL
REMARK 922        TOTAL FREE ENERGY PREDICTED BY IDOCK:   -5.60 KCAL/MOL
REMARK 923 INTER-LIGAND FREE ENERGY PREDICTED BY IDOCK:   -4.17 KCAL/MOL
REMARK 924 INTRA-LIGAND FREE ENERGY PREDICTED BY IDOCK:   -1.43 KCAL/MOL
REMARK 927      BINDING AFFINITY PREDICTED BY RF-SCORE:    0.00 PKD
ROOT
HETATM    1  C   UNL     1      -8.244  10.070  64.689  1.00  0.00    -0.163 C  
HETATM    2  C   UNL     1      -7.271   9.162  63.931  1.00  0.00    -0.096 C  
HETATM    3  C   UNL     1      -5.872   9.782  63.954  1.00  0.00    -0.109 C  
ENDROOT
BRANCH   2   4
HETATM    4  N   UNL     1      -7.288   7.838  64.557  1.00  0.00    -0.083 NA 
HETATM    5  H   UNL     1      -7.547   7.906  65.541  1.00  0.00     0.000 HD 
BRANCH   4   6
HETATM    6  C   UNL     1      -8.148   6.874  63.855  1.00  0.00     0.001 C  
BRANCH   6   7
HETATM    7  C   UNL     1      -8.336   5.608  64.710  1.00  0.00    -0.128 C  
HETATM    8  O   UNL     1      -7.116   4.847  64.719  1.00  0.00    -0.059 OA 
HETATM    9  H   UNL     1      -7.232   4.065  65.248  1.00  0.00     0.000 HD 
BRANCH   7  10
HETATM   10  C   UNL     1      -8.728   5.959  66.152  1.00  0.00    -0.141 C  
BRANCH  10  11
HETATM   11  O   UNL     1      -9.665   7.046  66.129  1.00  0.00    -0.046 OA 
BRANCH  11  12
HETATM   12  C   UNL     1     -10.057   7.497  67.360  1.00  0.00    -0.216 A  
HETATM   13  C   UNL     1     -10.286   6.684  68.466  1.00  0.00    -0.216 A  
HETATM   14  C   UNL     1     -10.685   7.246  69.680  1.00  0.00    -0.249 A  
HETATM   15  C   UNL     1     -10.837   8.634  69.816  1.00  0.00    -0.185 A  
HETATM   16  C   UNL     1     -10.586   9.446  68.705  1.00  0.00    -0.234 A  
HETATM   17  C   UNL     1     -10.193   8.881  67.487  1.00  0.00    -0.309 A  
BRANCH  15  18
HETATM   18  C   UNL     1     -11.269   9.228  71.135  1.00  0.00    -0.413 C  
BRANCH  18  19
HETATM   19  C   UNL     1     -11.890   8.188  72.068  1.00  0.00    -0.338 C  
BRANCH  19  20
HETATM   20  O   UNL     1     -11.023   7.954  73.181  1.00  0.00    -0.383 OA 
BRANCH  20  21
HETATM   21  C   UNL     1     -10.520   6.618  73.151  1.00  0.00    -0.253 C  
BRANCH  21  22
HETATM   22  C   UNL     1      -9.064   6.636  73.488  1.00  0.00    -0.146 C  
HETATM   23  C   UNL     1      -8.086   7.241  72.511  1.00  0.00    -0.112 C  
HETATM   24  C   UNL     1      -8.360   7.926  73.821  1.00  0.00    -0.292 C  
ENDBRANCH  21  22
ENDBRANCH  20  21
ENDBRANCH  19  20
ENDBRANCH  18  19
ENDBRANCH  15  18
ENDBRANCH  11  12
ENDBRANCH  10  11
ENDBRANCH   7  10
ENDBRANCH   6   7
ENDBRANCH   4   6
ENDBRANCH   2   4
TORSDOF 11
ENDMDL
MODEL      307
REMARK 921   NORMALIZED FREE ENERGY PREDICTED BY IDOCK:   -2.60 KCAL/MOL
REMARK 922        TOTAL FREE ENERGY PREDICTED BY IDOCK:   -5.60 KCAL/MOL
REMARK 923 INTER-LIGAND FREE ENERGY PREDICTED BY IDOCK:   -4.27 KCAL/MOL
REMARK 924 INTRA-LIGAND FREE ENERGY PREDICTED BY IDOCK:   -1.33 KCAL/MOL
REMARK 927      BINDING AFFINITY PREDICTED BY RF-SCORE:    0.00 PKD
ROOT
HETATM    1  C   UNL     1     -13.031   7.274  71.210  1.00  0.00    -0.377 C  
HETATM    2  C   UNL     1     -11.861   8.167  70.791  1.00  0.00    -0.159 C  
HETATM    3  C   UNL     1     -11.904   9.473  71.587  1.00  0.00    -0.468 C  
ENDROOT
BRANCH   2   4
HETATM    4  N   UNL     1     -10.613   7.434  71.016  1.00  0.00    -0.223 NA 
HETATM    5  H   UNL     1     -10.021   7.462  70.186  1.00  0.00     0.000 HD 
BRANCH   4   6
HETATM    6  C   UNL     1      -9.873   7.896  72.200  1.00  0.00    -0.205 C  
BRANCH   6   7
HETATM    7  C   UNL     1      -9.834   6.789  73.269  1.00  0.00    -0.190 C  
HETATM    8  O   UNL     1     -10.732   7.123  74.342  1.00  0.00    -0.463 OA 
HETATM    9  H   UNL     1     -10.708   6.439  75.001  1.00  0.00     0.000 HD 
BRANCH   7  10
HETATM   10  C   UNL     1     -10.230   5.429  72.679  1.00  0.00    -0.185 C  
BRANCH  10  11
HETATM   11  O   UNL     1      -9.042   4.654  72.455  1.00  0.00    -0.123 OA 
BRANCH  11  12
HETATM   12  C   UNL     1      -8.786   4.356  71.143  1.00  0.00    -0.106 A  
HETATM   13  C   UNL     1      -9.372   3.310  70.439  1.00  0.00    -0.237 A  
HETATM   14  C   UNL     1      -9.041   3.091  69.101  1.00  0.00    -0.202 A  
HETATM   15  C   UNL     1      -8.135   3.931  68.436  1.00  0.00    -0.078 A  
HETATM   16  C   UNL     1      -7.564   4.993  69.146  1.00  0.00    -0.072 A  
HETATM   17  C   UNL     1      -7.893   5.208  70.489  1.00  0.00    -0.082 A  
BRANCH  15  18
HETATM   18  C   UNL     1      -7.785   3.683  66.989  1.00  0.00    -0.080 C  
BRANCH  18  19
HETATM   19  C   UNL     1      -7.562   4.982  66.213  1.00  0.00    -0.087 C  
BRANCH  19  20
HETATM   20  O   UNL     1      -8.755   5.339  65.510  1.00  0.00    -0.140 OA 
BRANCH  20  21
HETATM   21  C   UNL     1      -9.622   6.102  66.351  1.00  0.00    -0.127 C  
BRANCH  21  22
HETATM   22  C   UNL     1      -8.982   7.419  66.646  1.00  0.00    -0.168 C  
HETATM   23  C   UNL     1      -9.812   8.677  66.573  1.00  0.00    -0.348 C  
HETATM   24  C   UNL     1      -9.317   8.182  67.903  1.00  0.00    -0.145 C  
ENDBRANCH  21  22
ENDBRANCH  20  21
ENDBRANCH  19  20
ENDBRANCH  18  19
ENDBRANCH  15  18
ENDBRANCH  11  12
ENDBRANCH  10  11
ENDBRANCH   7  10
ENDBRANCH   6   7
ENDBRANCH   4   6
ENDBRANCH   2   4
TORSDOF 11
ENDMDL
MODEL      308
REMARK 921   NORMALIZED FREE ENERGY PREDICTED BY IDOCK:   -2.58 KCAL/MOL
REMARK 922        TOTAL FREE ENERGY PREDICTED BY IDOCK:   -5.57 KCAL/MOL
REMARK 923 INTER-LIGAND FREE ENERGY PREDICTED BY IDOCK:   -4.82 KCAL/MOL
REMARK 924 INTRA-LIGAND FREE ENERGY PREDICTED BY IDOCK:   -0.74 KCAL/MOL
REMARK 927      BINDING AFFINITY PREDICTED BY RF-SCORE:    0.00 PKD
ROOT
HETATM    1  C   UNL     1     -10.521  12.577  63.908  1.00  0.00    -0.464 C  
HETATM    2  C   UNL     1     -11.011  13.339  65.142  1.00  0.00    -0.299 C  
HETATM    3  C   UNL     1     -12.504  13.075  65.345  1.00  0.00    -0.531 C  
ENDROOT
BRANCH   2   4
HETATM    4  N   UNL     1     -10.221  12.907  66.298  1.00  0.00    -0.272 NA 
HETATM    5  H   UNL     1     -10.241  13.613  67.033  1.00  0.00     0.000 HD 
BRANCH   4   6
HETATM    6  C   UNL     1     -10.629  11.595  66.823  1.00  0.00    -0.244 C  
BRANCH   6   7
HETATM    7  C   UNL     1     -10.234  11.470  68.305  1.00  0.00    -0.196 C  
HETATM    8  O   UNL     1      -9.984  12.777  68.850  1.00  0.00    -0.415 OA 
HETATM    9  H   UNL     1      -9.741  12.699  69.765  1.00  0.00     0.000 HD 
BRANCH   7  10
HETATM   10  C   UNL     1     -11.335  10.780  69.121  1.00  0.00    -0.282 C  
BRANCH  10  11
HETATM   11  O   UNL     1     -10.838  10.507  70.440  1.00  0.00    -0.263 OA 
BRANCH  11  12
HETATM   12  C   UNL     1     -10.356   9.239  70.625  1.00  0.00    -0.263 A  
HETATM   13  C   UNL     1      -9.237   8.920  71.387  1.00  0.00    -0.328 A  
HETATM   14  C   UNL     1      -8.827   7.592  71.512  1.00  0.00    -0.133 A  
HETATM   15  C   UNL     1      -9.545   6.556  70.896  1.00  0.00    -0.186 A  
HETATM   16  C   UNL     1     -10.680   6.882  70.147  1.00  0.00    -0.270 A  
HETATM   17  C   UNL     1     -11.087   8.216  70.017  1.00  0.00    -0.146 A  
BRANCH  15  18
HETATM   18  C   UNL     1      -9.091   5.123  71.039  1.00  0.00    -0.178 C  
BRANCH  18  19
HETATM   19  C   UNL     1      -8.212   4.672  69.872  1.00  0.00    -0.067 C  
BRANCH  19  20
HETATM   20  O   UNL     1      -8.155   5.699  68.880  1.00  0.00    -0.098 OA 
BRANCH  20  21
HETATM   21  C   UNL     1      -6.871   5.722  68.255  1.00  0.00    -0.063 C  
BRANCH  21  22
HETATM   22  C   UNL     1      -6.631   7.079  67.678  1.00  0.00    -0.055 C  
HETATM   23  C   UNL     1      -6.149   8.191  68.577  1.00  0.00    -0.041 C  
HETATM   24  C   UNL     1      -5.234   7.624  67.528  1.00  0.00    -0.030 C  
ENDBRANCH  21  22
ENDBRANCH  20  21
ENDBRANCH  19  20
ENDBRANCH  18  19
ENDBRANCH  15  18
ENDBRANCH  11  12
ENDBRANCH  10  11
ENDBRANCH   7  10
ENDBRANCH   6   7
ENDBRANCH   4   6
ENDBRANCH   2   4
TORSDOF 11
ENDMDL
MODEL      309
REMARK 921   NORMALIZED FREE ENERGY PREDICTED BY IDOCK:   -2.57 KCAL/MOL
REMARK 922        TOTAL FREE ENERGY PREDICTED BY IDOCK:   -5.55 KCAL/MOL
REMARK 923 INTER-LIGAND FREE ENERGY PREDICTED BY IDOCK:   -4.11 KCAL/MOL
REMARK 924 INTRA-LIGAND FREE ENERGY PREDICTED BY IDOCK:   -1.45 KCAL/MOL
REMARK 927      BINDING AFFINITY PREDICTED BY RF-SCORE:    0.00 PKD
ROOT
HETATM    1  C   UNL     1     -10.688  10.213  70.164  1.00  0.00    -0.355 C  
HETATM    2  C   UNL     1      -9.994  10.368  68.809  1.00  0.00    -0.188 C  
HETATM    3  C   UNL     1     -10.954   9.950  67.693  1.00  0.00    -0.263 C  
ENDROOT
BRANCH   2   4
HETATM    4  N   UNL     1      -9.566  11.762  68.663  1.00  0.00    -0.341 NA 
HETATM    5  H   UNL     1      -9.967  12.343  69.399  1.00  0.00     0.000 HD 
BRANCH   4   6
HETATM    6  C   UNL     1      -8.104  11.919  68.612  1.00  0.00    -0.086 C  
BRANCH   6   7
HETATM    7  C   UNL     1      -7.427  10.545  68.463  1.00  0.00    -0.091 C  
HETATM    8  O   UNL     1      -6.746  10.477  67.198  1.00  0.00    -0.074 OA 
HETATM    9  H   UNL     1      -6.328   9.629  67.107  1.00  0.00     0.000 HD 
BRANCH   7  10
HETATM   10  C   UNL     1      -6.423  10.291  69.596  1.00  0.00    -0.069 C  
BRANCH  10  11
HETATM   11  O   UNL     1      -7.143   9.993  70.801  1.00  0.00    -0.324 OA 
BRANCH  11  12
HETATM   12  C   UNL     1      -7.378   8.662  71.019  1.00  0.00    -0.083 A  
HETATM   13  C   UNL     1      -7.359   7.681  70.033  1.00  0.00    -0.080 A  
HETATM   14  C   UNL     1      -7.613   6.349  70.362  1.00  0.00    -0.096 A  
HETATM   15  C   UNL     1      -7.866   5.970  71.689  1.00  0.00    -0.102 A  
HETATM   16  C   UNL     1      -7.864   6.959  72.678  1.00  0.00    -0.098 A  
HETATM   17  C   UNL     1      -7.616   8.296  72.346  1.00  0.00    -0.160 A  
BRANCH  15  18
HETATM   18  C   UNL     1      -8.139   4.526  72.032  1.00  0.00    -0.100 C  
BRANCH  18  19
HETATM   19  C   UNL     1      -9.094   4.378  73.217  1.00  0.00    -0.114 C  
BRANCH  19  20
HETATM   20  O   UNL     1     -10.448   4.446  72.762  1.00  0.00    -0.178 OA 
BRANCH  20  21
HETATM   21  C   UNL     1     -11.063   5.658  73.200  1.00  0.00    -0.270 C  
BRANCH  21  22
HETATM   22  C   UNL     1     -12.022   6.126  72.155  1.00  0.00    -0.314 C  
HETATM   23  C   UNL     1     -12.192   7.605  71.914  1.00  0.00    -0.336 C  
HETATM   24  C   UNL     1     -11.531   6.747  70.872  1.00  0.00    -0.384 C  
ENDBRANCH  21  22
ENDBRANCH  20  21
ENDBRANCH  19  20
ENDBRANCH  18  19
ENDBRANCH  15  18
ENDBRANCH  11  12
ENDBRANCH  10  11
ENDBRANCH   7  10
ENDBRANCH   6   7
ENDBRANCH   4   6
ENDBRANCH   2   4
TORSDOF 11
ENDMDL
MODEL      310
REMARK 921   NORMALIZED FREE ENERGY PREDICTED BY IDOCK:   -2.56 KCAL/MOL
REMARK 922        TOTAL FREE ENERGY PREDICTED BY IDOCK:   -5.53 KCAL/MOL
REMARK 923 INTER-LIGAND FREE ENERGY PREDICTED BY IDOCK:   -4.83 KCAL/MOL
REMARK 924 INTRA-LIGAND FREE ENERGY PREDICTED BY IDOCK:   -0.70 KCAL/MOL
REMARK 927      BINDING AFFINITY PREDICTED BY RF-SCORE:    0.00 PKD
ROOT
HETATM    1  C   UNL     1     -11.329  12.221  65.638  1.00  0.00    -0.394 C  
HETATM    2  C   UNL     1     -11.627  11.834  64.188  1.00  0.00    -0.307 C  
HETATM    3  C   UNL     1     -11.981  13.089  63.387  1.00  0.00    -0.592 C  
ENDROOT
BRANCH   2   4
HETATM    4  N   UNL     1     -10.453  11.152  63.638  1.00  0.00    -0.447 NA 
HETATM    5  H   UNL     1      -9.782  11.826  63.270  1.00  0.00     0.000 HD 
BRANCH   4   6
HETATM    6  C   UNL     1      -9.808  10.241  64.595  1.00  0.00    -0.327 C  
BRANCH   6   7
HETATM    7  C   UNL     1      -8.286  10.221  64.366  1.00  0.00    -0.166 C  
HETATM    8  O   UNL     1      -7.649  11.133  65.277  1.00  0.00    -0.341 OA 
HETATM    9  H   UNL     1      -6.710  11.121  65.135  1.00  0.00     0.000 HD 
BRANCH   7  10
HETATM   10  C   UNL     1      -7.708   8.814  64.568  1.00  0.00    -0.121 C  
BRANCH  10  11
HETATM   11  O   UNL     1      -8.780   7.908  64.869  1.00  0.00    -0.016 OA 
BRANCH  11  12
HETATM   12  C   UNL     1      -8.738   7.359  66.123  1.00  0.00    -0.156 A  
HETATM   13  C   UNL     1      -7.827   7.713  67.113  1.00  0.00    -0.117 A  
HETATM   14  C   UNL     1      -7.869   7.091  68.362  1.00  0.00    -0.122 A  
HETATM   15  C   UNL     1      -8.841   6.121  68.650  1.00  0.00    -0.114 A  
HETATM   16  C   UNL     1      -9.765   5.784  67.656  1.00  0.00    -0.127 A  
HETATM   17  C   UNL     1      -9.718   6.404  66.402  1.00  0.00    -0.140 A  
BRANCH  15  18
HETATM   18  C   UNL     1      -8.875   5.455  70.005  1.00  0.00    -0.141 C  
BRANCH  18  19
HETATM   19  C   UNL     1     -10.197   4.731  70.264  1.00  0.00    -0.192 C  
BRANCH  19  20
HETATM   20  O   UNL     1     -10.488   4.739  71.664  1.00  0.00    -0.178 OA 
BRANCH  20  21
HETATM   21  C   UNL     1     -10.920   6.035  72.078  1.00  0.00    -0.263 C  
BRANCH  21  22
HETATM   22  C   UNL     1     -10.689   6.182  73.547  1.00  0.00    -0.263 C  
HETATM   23  C   UNL     1     -10.739   4.959  74.430  1.00  0.00    -0.161 C  
HETATM   24  C   UNL     1      -9.430   5.660  74.192  1.00  0.00    -0.142 C  
ENDBRANCH  21  22
ENDBRANCH  20  21
ENDBRANCH  19  20
ENDBRANCH  18  19
ENDBRANCH  15  18
ENDBRANCH  11  12
ENDBRANCH  10  11
ENDBRANCH   7  10
ENDBRANCH   6   7
ENDBRANCH   4   6
ENDBRANCH   2   4
TORSDOF 11
ENDMDL
MODEL      311
REMARK 921   NORMALIZED FREE ENERGY PREDICTED BY IDOCK:   -2.55 KCAL/MOL
REMARK 922        TOTAL FREE ENERGY PREDICTED BY IDOCK:   -5.52 KCAL/MOL
REMARK 923 INTER-LIGAND FREE ENERGY PREDICTED BY IDOCK:   -4.69 KCAL/MOL
REMARK 924 INTRA-LIGAND FREE ENERGY PREDICTED BY IDOCK:   -0.83 KCAL/MOL
REMARK 927      BINDING AFFINITY PREDICTED BY RF-SCORE:    0.00 PKD
ROOT
HETATM    1  C   UNL     1      -5.444   8.769  74.215  1.00  0.00    -0.115 C  
HETATM    2  C   UNL     1      -5.924   7.418  73.680  1.00  0.00    -0.056 C  
HETATM    3  C   UNL     1      -7.062   6.896  74.560  1.00  0.00    -0.099 C  
ENDROOT
BRANCH   2   4
HETATM    4  N   UNL     1      -6.351   7.594  72.290  1.00  0.00    -0.043 NA 
HETATM    5  H   UNL     1      -5.675   7.179  71.649  1.00  0.00     0.000 HD 
BRANCH   4   6
HETATM    6  C   UNL     1      -7.704   7.082  72.027  1.00  0.00    -0.092 C  
BRANCH   6   7
HETATM    7  C   UNL     1      -8.706   8.247  71.944  1.00  0.00    -0.171 C  
HETATM    8  O   UNL     1      -8.070   9.389  71.344  1.00  0.00    -0.306 OA 
HETATM    9  H   UNL     1      -8.690  10.108  71.292  1.00  0.00     0.000 HD 
BRANCH   7  10
HETATM   10  C   UNL     1      -9.944   7.863  71.122  1.00  0.00    -0.173 C  
BRANCH  10  11
HETATM   11  O   UNL     1     -10.955   8.865  71.304  1.00  0.00    -0.247 OA 
BRANCH  11  12
HETATM   12  C   UNL     1     -11.147   9.694  70.232  1.00  0.00    -0.276 A  
HETATM   13  C   UNL     1     -10.838   9.370  68.914  1.00  0.00    -0.151 A  
HETATM   14  C   UNL     1     -11.074  10.290  67.891  1.00  0.00    -0.341 A  
HETATM   15  C   UNL     1     -11.647  11.540  68.165  1.00  0.00    -0.378 A  
HETATM   16  C   UNL     1     -11.973  11.851  69.489  1.00  0.00    -0.355 A  
HETATM   17  C   UNL     1     -11.730  10.931  70.515  1.00  0.00    -0.441 A  
BRANCH  15  18
HETATM   18  C   UNL     1     -11.897  12.526  67.049  1.00  0.00    -0.394 C  
BRANCH  18  19
HETATM   19  C   UNL     1     -10.642  13.317  66.679  1.00  0.00    -0.281 C  
BRANCH  19  20
HETATM   20  O   UNL     1     -10.004  12.717  65.549  1.00  0.00    -0.264 OA 
BRANCH  20  21
HETATM   21  C   UNL     1      -8.952  11.848  65.973  1.00  0.00    -0.066 C  
BRANCH  21  22
HETATM   22  C   UNL     1      -8.197  12.500  67.085  1.00  0.00    -0.168 C  
HETATM   23  C   UNL     1      -7.727  11.663  68.250  1.00  0.00    -0.128 C  
HETATM   24  C   UNL     1      -6.726  12.235  67.286  1.00  0.00    -0.143 C  
ENDBRANCH  21  22
ENDBRANCH  20  21
ENDBRANCH  19  20
ENDBRANCH  18  19
ENDBRANCH  15  18
ENDBRANCH  11  12
ENDBRANCH  10  11
ENDBRANCH   7  10
ENDBRANCH   6   7
ENDBRANCH   4   6
ENDBRANCH   2   4
TORSDOF 11
ENDMDL
MODEL      312
REMARK 921   NORMALIZED FREE ENERGY PREDICTED BY IDOCK:   -2.53 KCAL/MOL
REMARK 922        TOTAL FREE ENERGY PREDICTED BY IDOCK:   -5.47 KCAL/MOL
REMARK 923 INTER-LIGAND FREE ENERGY PREDICTED BY IDOCK:   -4.19 KCAL/MOL
REMARK 924 INTRA-LIGAND FREE ENERGY PREDICTED BY IDOCK:   -1.28 KCAL/MOL
REMARK 927      BINDING AFFINITY PREDICTED BY RF-SCORE:    0.00 PKD
ROOT
HETATM    1  C   UNL     1     -11.183   8.776  70.164  1.00  0.00    -0.162 C  
HETATM    2  C   UNL     1     -10.021   9.758  70.335  1.00  0.00    -0.233 C  
HETATM    3  C   UNL     1      -8.741   9.137  69.772  1.00  0.00    -0.155 C  
ENDROOT
BRANCH   2   4
HETATM    4  N   UNL     1     -10.365  11.007  69.650  1.00  0.00    -0.446 NA 
HETATM    5  H   UNL     1     -10.086  11.814  70.209  1.00  0.00     0.000 HD 
BRANCH   4   6
HETATM    6  C   UNL     1      -9.811  11.096  68.291  1.00  0.00    -0.189 C  
BRANCH   6   7
HETATM    7  C   UNL     1     -10.914  10.832  67.250  1.00  0.00    -0.297 C  
HETATM    8  O   UNL     1     -12.113  11.527  67.630  1.00  0.00    -0.623 OA 
HETATM    9  H   UNL     1     -12.794  11.363  66.987  1.00  0.00     0.000 HD 
BRANCH   7  10
HETATM   10  C   UNL     1     -10.483  11.289  65.850  1.00  0.00    -0.259 C  
BRANCH  10  11
HETATM   11  O   UNL     1      -9.050  11.354  65.800  1.00  0.00    -0.211 OA 
BRANCH  11  12
HETATM   12  C   UNL     1      -8.434  10.217  65.353  1.00  0.00    -0.156 A  
HETATM   13  C   UNL     1      -7.369   9.588  65.990  1.00  0.00    -0.097 A  
HETATM   14  C   UNL     1      -6.811   8.429  65.449  1.00  0.00    -0.066 A  
HETATM   15  C   UNL     1      -7.327   7.863  64.273  1.00  0.00    -0.088 A  
HETATM   16  C   UNL     1      -8.410   8.489  63.649  1.00  0.00    -0.084 A  
HETATM   17  C   UNL     1      -8.965   9.655  64.189  1.00  0.00    -0.269 A  
BRANCH  15  18
HETATM   18  C   UNL     1      -6.714   6.608  63.698  1.00  0.00    -0.048 C  
BRANCH  18  19
HETATM   19  C   UNL     1      -7.770   5.597  63.250  1.00  0.00    -0.086 C  
BRANCH  19  20
HETATM   20  O   UNL     1      -7.637   4.389  64.003  1.00  0.00    -0.068 OA 
BRANCH  20  21
HETATM   21  C   UNL     1      -7.922   4.625  65.382  1.00  0.00    -0.099 C  
BRANCH  21  22
HETATM   22  C   UNL     1      -9.326   5.118  65.514  1.00  0.00    -0.125 C  
HETATM   23  C   UNL     1     -10.150   4.695  66.706  1.00  0.00    -0.246 C  
HETATM   24  C   UNL     1      -9.700   6.123  66.574  1.00  0.00    -0.184 C  
ENDBRANCH  21  22
ENDBRANCH  20  21
ENDBRANCH  19  20
ENDBRANCH  18  19
ENDBRANCH  15  18
ENDBRANCH  11  12
ENDBRANCH  10  11
ENDBRANCH   7  10
ENDBRANCH   6   7
ENDBRANCH   4   6
ENDBRANCH   2   4
TORSDOF 11
ENDMDL
MODEL      313
REMARK 921   NORMALIZED FREE ENERGY PREDICTED BY IDOCK:   -2.52 KCAL/MOL
REMARK 922        TOTAL FREE ENERGY PREDICTED BY IDOCK:   -5.46 KCAL/MOL
REMARK 923 INTER-LIGAND FREE ENERGY PREDICTED BY IDOCK:   -5.30 KCAL/MOL
REMARK 924 INTRA-LIGAND FREE ENERGY PREDICTED BY IDOCK:   -0.16 KCAL/MOL
REMARK 927      BINDING AFFINITY PREDICTED BY RF-SCORE:    0.00 PKD
ROOT
HETATM    1  C   UNL     1     -10.885   8.551  71.284  1.00  0.00    -0.312 C  
HETATM    2  C   UNL     1     -10.532   7.441  70.290  1.00  0.00    -0.221 C  
HETATM    3  C   UNL     1     -11.733   6.509  70.119  1.00  0.00    -0.419 C  
ENDROOT
BRANCH   2   4
HETATM    4  N   UNL     1     -10.141   8.061  69.021  1.00  0.00    -0.196 NA 
HETATM    5  H   UNL     1     -10.905   8.017  68.347  1.00  0.00     0.000 HD 
BRANCH   4   6
HETATM    6  C   UNL     1      -9.657   9.442  69.173  1.00  0.00    -0.163 C  
BRANCH   6   7
HETATM    7  C   UNL     1     -10.301  10.350  68.111  1.00  0.00    -0.172 C  
HETATM    8  O   UNL     1     -11.705  10.057  68.012  1.00  0.00    -0.645 OA 
HETATM    9  H   UNL     1     -12.102  10.618  67.356  1.00  0.00     0.000 HD 
BRANCH   7  10
HETATM   10  C   UNL     1     -10.114  11.834  68.457  1.00  0.00    -0.207 C  
BRANCH  10  11
HETATM   11  O   UNL     1     -10.111  12.599  67.243  1.00  0.00    -0.212 OA 
BRANCH  11  12
HETATM   12  C   UNL     1      -9.441  13.791  67.312  1.00  0.00    -0.236 A  
HETATM   13  C   UNL     1      -9.680  14.885  66.486  1.00  0.00    -0.294 A  
HETATM   14  C   UNL     1      -8.939  16.057  66.640  1.00  0.00    -0.293 A  
HETATM   15  C   UNL     1      -7.962  16.165  67.642  1.00  0.00    -0.162 A  
HETATM   16  C   UNL     1      -7.741  15.068  68.482  1.00  0.00    -0.121 A  
HETATM   17  C   UNL     1      -8.481  13.891  68.322  1.00  0.00    -0.169 A  
BRANCH  15  18
HETATM   18  C   UNL     1      -7.167  17.439  67.798  1.00  0.00    -0.177 C  
BRANCH  18  19
HETATM   19  C   UNL     1      -5.705  17.267  67.387  1.00  0.00    -0.136 C  
BRANCH  19  20
HETATM   20  O   UNL     1      -5.548  17.589  66.003  1.00  0.00    -0.193 OA 
BRANCH  20  21
HETATM   21  C   UNL     1      -6.725  18.220  65.499  1.00  0.00    -0.186 C  
BRANCH  21  22
HETATM   22  C   UNL     1      -6.426  19.656  65.211  1.00  0.00    -0.310 C  
HETATM   23  C   UNL     1      -6.613  20.683  66.300  1.00  0.00    -0.287 C  
HETATM   24  C   UNL     1      -5.230  20.338  65.825  1.00  0.00    -0.187 C  
ENDBRANCH  21  22
ENDBRANCH  20  21
ENDBRANCH  19  20
ENDBRANCH  18  19
ENDBRANCH  15  18
ENDBRANCH  11  12
ENDBRANCH  10  11
ENDBRANCH   7  10
ENDBRANCH   6   7
ENDBRANCH   4   6
ENDBRANCH   2   4
TORSDOF 11
ENDMDL
MODEL      314
REMARK 921   NORMALIZED FREE ENERGY PREDICTED BY IDOCK:   -2.51 KCAL/MOL
REMARK 922        TOTAL FREE ENERGY PREDICTED BY IDOCK:   -5.45 KCAL/MOL
REMARK 923 INTER-LIGAND FREE ENERGY PREDICTED BY IDOCK:   -4.84 KCAL/MOL
REMARK 924 INTRA-LIGAND FREE ENERGY PREDICTED BY IDOCK:   -0.61 KCAL/MOL
REMARK 927      BINDING AFFINITY PREDICTED BY RF-SCORE:    0.00 PKD
ROOT
HETATM    1  C   UNL     1      -7.706  17.612  66.317  1.00  0.00    -0.324 C  
HETATM    2  C   UNL     1      -8.872  18.333  66.999  1.00  0.00    -0.266 C  
HETATM    3  C   UNL     1      -9.252  19.572  66.185  1.00  0.00    -0.363 C  
ENDROOT
BRANCH   2   4
HETATM    4  N   UNL     1      -9.992  17.396  67.116  1.00  0.00    -0.281 NA 
HETATM    5  H   UNL     1     -10.829  17.776  66.674  1.00  0.00     0.000 HD 
BRANCH   4   6
HETATM    6  C   UNL     1      -9.688  16.056  66.593  1.00  0.00    -0.244 C  
BRANCH   6   7
HETATM    7  C   UNL     1     -10.978  15.367  66.114  1.00  0.00    -0.279 C  
HETATM    8  O   UNL     1     -10.896  15.120  64.699  1.00  0.00    -0.588 OA 
HETATM    9  H   UNL     1     -11.693  14.695  64.404  1.00  0.00     0.000 HD 
BRANCH   7  10
HETATM   10  C   UNL     1     -11.209  14.039  66.849  1.00  0.00    -0.313 C  
BRANCH  10  11
HETATM   11  O   UNL     1     -11.082  12.959  65.913  1.00  0.00    -0.276 OA 
BRANCH  11  12
HETATM   12  C   UNL     1      -9.944  12.210  66.046  1.00  0.00    -0.236 A  
HETATM   13  C   UNL     1      -9.638  11.089  65.281  1.00  0.00    -0.270 A  
HETATM   14  C   UNL     1      -8.447  10.394  65.497  1.00  0.00    -0.171 A  
HETATM   15  C   UNL     1      -7.529  10.823  66.467  1.00  0.00    -0.139 A  
HETATM   16  C   UNL     1      -7.834  11.962  67.220  1.00  0.00    -0.168 A  
HETATM   17  C   UNL     1      -9.032  12.655  67.006  1.00  0.00    -0.216 A  
BRANCH  15  18
HETATM   18  C   UNL     1      -6.244  10.062  66.691  1.00  0.00    -0.069 C  
BRANCH  18  19
HETATM   19  C   UNL     1      -5.916   9.898  68.176  1.00  0.00    -0.043 C  
BRANCH  19  20
HETATM   20  O   UNL     1      -7.119   9.689  68.919  1.00  0.00    -0.065 OA 
BRANCH  20  21
HETATM   21  C   UNL     1      -7.447   8.300  68.960  1.00  0.00    -0.091 C  
BRANCH  21  22
HETATM   22  C   UNL     1      -8.922   8.140  68.788  1.00  0.00    -0.144 C  
HETATM   23  C   UNL     1      -9.464   7.648  67.469  1.00  0.00    -0.168 C  
HETATM   24  C   UNL     1      -9.549   6.773  68.687  1.00  0.00    -0.131 C  
ENDBRANCH  21  22
ENDBRANCH  20  21
ENDBRANCH  19  20
ENDBRANCH  18  19
ENDBRANCH  15  18
ENDBRANCH  11  12
ENDBRANCH  10  11
ENDBRANCH   7  10
ENDBRANCH   6   7
ENDBRANCH   4   6
ENDBRANCH   2   4
TORSDOF 11
ENDMDL
MODEL      315
REMARK 921   NORMALIZED FREE ENERGY PREDICTED BY IDOCK:   -2.51 KCAL/MOL
REMARK 922        TOTAL FREE ENERGY PREDICTED BY IDOCK:   -5.45 KCAL/MOL
REMARK 923 INTER-LIGAND FREE ENERGY PREDICTED BY IDOCK:   -4.14 KCAL/MOL
REMARK 924 INTRA-LIGAND FREE ENERGY PREDICTED BY IDOCK:   -1.31 KCAL/MOL
REMARK 927      BINDING AFFINITY PREDICTED BY RF-SCORE:    0.00 PKD
ROOT
HETATM    1  C   UNL     1      -7.229   9.599  70.578  1.00  0.00    -0.143 C  
HETATM    2  C   UNL     1      -7.620   8.210  71.090  1.00  0.00    -0.082 C  
HETATM    3  C   UNL     1      -7.059   7.143  70.148  1.00  0.00    -0.066 C  
ENDROOT
BRANCH   2   4
HETATM    4  N   UNL     1      -7.106   8.055  72.453  1.00  0.00    -0.083 NA 
HETATM    5  H   UNL     1      -6.356   8.721  72.635  1.00  0.00     0.000 HD 
BRANCH   4   6
HETATM    6  C   UNL     1      -8.152   8.153  73.483  1.00  0.00    -0.202 C  
BRANCH   6   7
HETATM    7  C   UNL     1      -9.140   6.981  73.350  1.00  0.00    -0.147 C  
HETATM    8  O   UNL     1      -9.015   6.112  74.489  1.00  0.00    -0.127 OA 
HETATM    9  H   UNL     1      -9.626   5.389  74.406  1.00  0.00     0.000 HD 
BRANCH   7  10
HETATM   10  C   UNL     1     -10.588   7.479  73.245  1.00  0.00    -0.384 C  
BRANCH  10  11
HETATM   11  O   UNL     1     -11.335   6.572  72.421  1.00  0.00    -0.261 OA 
BRANCH  11  12
HETATM   12  C   UNL     1     -11.062   6.650  71.081  1.00  0.00    -0.279 A  
HETATM   13  C   UNL     1     -11.143   7.813  70.322  1.00  0.00    -0.242 A  
HETATM   14  C   UNL     1     -10.842   7.785  68.960  1.00  0.00    -0.042 A  
HETATM   15  C   UNL     1     -10.431   6.597  68.337  1.00  0.00    -0.248 A  
HETATM   16  C   UNL     1     -10.334   5.435  69.111  1.00  0.00    -0.300 A  
HETATM   17  C   UNL     1     -10.642   5.464  70.476  1.00  0.00    -0.312 A  
BRANCH  15  18
HETATM   18  C   UNL     1     -10.110   6.579  66.862  1.00  0.00    -0.253 C  
BRANCH  18  19
HETATM   19  C   UNL     1      -8.669   6.148  66.585  1.00  0.00    -0.124 C  
BRANCH  19  20
HETATM   20  O   UNL     1      -8.637   4.765  66.224  1.00  0.00    -0.113 OA 
BRANCH  20  21
HETATM   21  C   UNL     1      -9.855   4.387  65.582  1.00  0.00    -0.221 C  
BRANCH  21  22
HETATM   22  C   UNL     1      -9.537   3.748  64.269  1.00  0.00    -0.166 C  
HETATM   23  C   UNL     1      -9.989   2.332  64.007  1.00  0.00    -0.099 C  
HETATM   24  C   UNL     1     -10.621   3.472  63.257  1.00  0.00    -0.246 C  
ENDBRANCH  21  22
ENDBRANCH  20  21
ENDBRANCH  19  20
ENDBRANCH  18  19
ENDBRANCH  15  18
ENDBRANCH  11  12
ENDBRANCH  10  11
ENDBRANCH   7  10
ENDBRANCH   6   7
ENDBRANCH   4   6
ENDBRANCH   2   4
TORSDOF 11
ENDMDL
MODEL      316
REMARK 921   NORMALIZED FREE ENERGY PREDICTED BY IDOCK:   -2.50 KCAL/MOL
REMARK 922        TOTAL FREE ENERGY PREDICTED BY IDOCK:   -5.43 KCAL/MOL
REMARK 923 INTER-LIGAND FREE ENERGY PREDICTED BY IDOCK:   -4.34 KCAL/MOL
REMARK 924 INTRA-LIGAND FREE ENERGY PREDICTED BY IDOCK:   -1.09 KCAL/MOL
REMARK 927      BINDING AFFINITY PREDICTED BY RF-SCORE:    0.00 PKD
ROOT
HETATM    1  C   UNL     1      -8.181   9.006  63.218  1.00  0.00    -0.181 C  
HETATM    2  C   UNL     1      -7.749   7.610  62.763  1.00  0.00    -0.123 C  
HETATM    3  C   UNL     1      -6.221   7.540  62.712  1.00  0.00    -0.059 C  
ENDROOT
BRANCH   2   4
HETATM    4  N   UNL     1      -8.307   6.625  63.693  1.00  0.00    -0.333 NA 
HETATM    5  H   UNL     1      -9.264   6.868  63.946  1.00  0.00     0.000 HD 
BRANCH   4   6
HETATM    6  C   UNL     1      -8.234   5.244  63.190  1.00  0.00    -0.110 C  
BRANCH   6   7
HETATM    7  C   UNL     1      -8.566   4.250  64.317  1.00  0.00    -0.121 C  
HETATM    8  O   UNL     1      -7.364   3.585  64.743  1.00  0.00    -0.068 OA 
HETATM    9  H   UNL     1      -7.569   2.972  65.439  1.00  0.00     0.000 HD 
BRANCH   7  10
HETATM   10  C   UNL     1      -9.208   4.959  65.517  1.00  0.00    -0.157 C  
BRANCH  10  11
HETATM   11  O   UNL     1      -9.024   4.152  66.690  1.00  0.00    -0.115 OA 
BRANCH  11  12
HETATM   12  C   UNL     1      -9.613   4.640  67.825  1.00  0.00    -0.159 A  
HETATM   13  C   UNL     1      -9.366   4.170  69.111  1.00  0.00    -0.235 A  
HETATM   14  C   UNL     1     -10.022   4.738  70.205  1.00  0.00    -0.321 A  
HETATM   15  C   UNL     1     -10.918   5.803  70.034  1.00  0.00    -0.382 A  
HETATM   16  C   UNL     1     -11.147   6.283  68.739  1.00  0.00    -0.424 A  
HETATM   17  C   UNL     1     -10.494   5.709  67.643  1.00  0.00    -0.284 A  
BRANCH  15  18
HETATM   18  C   UNL     1     -11.621   6.408  71.225  1.00  0.00    -0.370 C  
BRANCH  18  19
HETATM   19  C   UNL     1     -10.736   7.400  71.981  1.00  0.00    -0.219 C  
BRANCH  19  20
HETATM   20  O   UNL     1     -10.566   8.589  71.206  1.00  0.00    -0.211 OA 
BRANCH  20  21
HETATM   21  C   UNL     1      -9.203   9.017  71.240  1.00  0.00    -0.244 C  
BRANCH  21  22
HETATM   22  C   UNL     1      -8.335   7.930  70.696  1.00  0.00    -0.123 C  
HETATM   23  C   UNL     1      -7.010   8.285  70.068  1.00  0.00    -0.043 C  
HETATM   24  C   UNL     1      -7.046   7.551  71.379  1.00  0.00    -0.058 C  
ENDBRANCH  21  22
ENDBRANCH  20  21
ENDBRANCH  19  20
ENDBRANCH  18  19
ENDBRANCH  15  18
ENDBRANCH  11  12
ENDBRANCH  10  11
ENDBRANCH   7  10
ENDBRANCH   6   7
ENDBRANCH   4   6
ENDBRANCH   2   4
TORSDOF 11
ENDMDL
MODEL      317
REMARK 921   NORMALIZED FREE ENERGY PREDICTED BY IDOCK:   -2.50 KCAL/MOL
REMARK 922        TOTAL FREE ENERGY PREDICTED BY IDOCK:   -5.43 KCAL/MOL
REMARK 923 INTER-LIGAND FREE ENERGY PREDICTED BY IDOCK:   -5.16 KCAL/MOL
REMARK 924 INTRA-LIGAND FREE ENERGY PREDICTED BY IDOCK:   -0.27 KCAL/MOL
REMARK 927      BINDING AFFINITY PREDICTED BY RF-SCORE:    0.00 PKD
ROOT
HETATM    1  C   UNL     1      -6.377   3.970  64.358  1.00  0.00    -0.027 C  
HETATM    2  C   UNL     1      -7.117   5.300  64.517  1.00  0.00    -0.054 C  
HETATM    3  C   UNL     1      -8.299   5.345  63.545  1.00  0.00    -0.097 C  
ENDROOT
BRANCH   2   4
HETATM    4  N   UNL     1      -7.555   5.426  65.909  1.00  0.00    -0.082 NA 
HETATM    5  H   UNL     1      -6.781   5.252  66.549  1.00  0.00     0.000 HD 
BRANCH   4   6
HETATM    6  C   UNL     1      -8.197   6.716  66.203  1.00  0.00    -0.124 C  
BRANCH   6   7
HETATM    7  C   UNL     1      -8.751   6.719  67.639  1.00  0.00    -0.119 C  
HETATM    8  O   UNL     1      -7.708   6.357  68.560  1.00  0.00    -0.100 OA 
HETATM    9  H   UNL     1      -8.051   6.359  69.446  1.00  0.00     0.000 HD 
BRANCH   7  10
HETATM   10  C   UNL     1      -9.312   8.096  68.019  1.00  0.00    -0.135 C  
BRANCH  10  11
HETATM   11  O   UNL     1      -8.714   9.092  67.177  1.00  0.00    -0.122 OA 
BRANCH  11  12
HETATM   12  C   UNL     1      -9.588  10.010  66.658  1.00  0.00    -0.186 A  
HETATM   13  C   UNL     1      -9.585  10.449  65.338  1.00  0.00    -0.303 A  
HETATM   14  C   UNL     1     -10.522  11.391  64.909  1.00  0.00    -0.363 A  
HETATM   15  C   UNL     1     -11.496  11.890  65.787  1.00  0.00    -0.326 A  
HETATM   16  C   UNL     1     -11.505  11.428  67.107  1.00  0.00    -0.268 A  
HETATM   17  C   UNL     1     -10.561  10.489  67.538  1.00  0.00    -0.306 A  
BRANCH  15  18
HETATM   18  C   UNL     1     -12.503  12.908  65.310  1.00  0.00    -0.552 C  
BRANCH  18  19
HETATM   19  C   UNL     1     -11.896  13.916  64.333  1.00  0.00    -0.429 C  
BRANCH  19  20
HETATM   20  O   UNL     1     -11.460  15.078  65.043  1.00  0.00    -0.366 OA 
BRANCH  20  21
HETATM   21  C   UNL     1     -11.381  14.809  66.443  1.00  0.00    -0.339 C  
BRANCH  21  22
HETATM   22  C   UNL     1     -10.082  15.326  66.969  1.00  0.00    -0.248 C  
HETATM   23  C   UNL     1      -9.072  15.904  66.008  1.00  0.00    -0.363 C  
HETATM   24  C   UNL     1      -9.781  16.804  66.981  1.00  0.00    -0.254 C  
ENDBRANCH  21  22
ENDBRANCH  20  21
ENDBRANCH  19  20
ENDBRANCH  18  19
ENDBRANCH  15  18
ENDBRANCH  11  12
ENDBRANCH  10  11
ENDBRANCH   7  10
ENDBRANCH   6   7
ENDBRANCH   4   6
ENDBRANCH   2   4
TORSDOF 11
ENDMDL
MODEL      318
REMARK 921   NORMALIZED FREE ENERGY PREDICTED BY IDOCK:   -2.50 KCAL/MOL
REMARK 922        TOTAL FREE ENERGY PREDICTED BY IDOCK:   -5.43 KCAL/MOL
REMARK 923 INTER-LIGAND FREE ENERGY PREDICTED BY IDOCK:   -4.06 KCAL/MOL
REMARK 924 INTRA-LIGAND FREE ENERGY PREDICTED BY IDOCK:   -1.37 KCAL/MOL
REMARK 927      BINDING AFFINITY PREDICTED BY RF-SCORE:    0.00 PKD
ROOT
HETATM    1  C   UNL     1      -7.466   9.048  63.800  1.00  0.00    -0.107 C  
HETATM    2  C   UNL     1      -6.830   7.978  62.909  1.00  0.00    -0.085 C  
HETATM    3  C   UNL     1      -5.409   8.405  62.533  1.00  0.00    -0.070 C  
ENDROOT
BRANCH   2   4
HETATM    4  N   UNL     1      -6.840   6.705  63.632  1.00  0.00    -0.051 NA 
HETATM    5  H   UNL     1      -6.926   6.860  64.637  1.00  0.00     0.000 HD 
BRANCH   4   6
HETATM    6  C   UNL     1      -7.876   5.774  63.158  1.00  0.00    -0.101 C  
BRANCH   6   7
HETATM    7  C   UNL     1      -7.922   4.526  64.058  1.00  0.00    -0.093 C  
HETATM    8  O   UNL     1      -6.704   3.777  63.907  1.00  0.00    -0.041 OA 
HETATM    9  H   UNL     1      -6.733   3.007  64.462  1.00  0.00     0.000 HD 
BRANCH   7  10
HETATM   10  C   UNL     1      -8.106   4.907  65.533  1.00  0.00    -0.113 C  
BRANCH  10  11
HETATM   11  O   UNL     1      -9.447   5.378  65.730  1.00  0.00    -0.154 OA 
BRANCH  11  12
HETATM   12  C   UNL     1      -9.560   6.489  66.522  1.00  0.00    -0.140 A  
HETATM   13  C   UNL     1     -10.761   7.014  66.986  1.00  0.00    -0.423 A  
HETATM   14  C   UNL     1     -10.766   8.154  67.791  1.00  0.00    -0.166 A  
HETATM   15  C   UNL     1      -9.566   8.776  68.166  1.00  0.00    -0.162 A  
HETATM   16  C   UNL     1      -8.360   8.231  67.712  1.00  0.00    -0.128 A  
HETATM   17  C   UNL     1      -8.357   7.091  66.900  1.00  0.00    -0.118 A  
BRANCH  15  18
HETATM   18  C   UNL     1      -9.584  10.009  69.037  1.00  0.00    -0.200 C  
BRANCH  18  19
HETATM   19  C   UNL     1     -10.983  10.324  69.569  1.00  0.00    -0.258 C  
BRANCH  19  20
HETATM   20  O   UNL     1     -11.002  10.193  70.993  1.00  0.00    -0.291 OA 
BRANCH  20  21
HETATM   21  C   UNL     1     -12.002   9.257  71.396  1.00  0.00    -0.351 C  
BRANCH  21  22
HETATM   22  C   UNL     1     -11.338   8.049  71.972  1.00  0.00    -0.359 C  
HETATM   23  C   UNL     1     -12.047   6.718  71.919  1.00  0.00    -0.375 C  
HETATM   24  C   UNL     1     -10.820   6.948  71.082  1.00  0.00    -0.270 C  
ENDBRANCH  21  22
ENDBRANCH  20  21
ENDBRANCH  19  20
ENDBRANCH  18  19
ENDBRANCH  15  18
ENDBRANCH  11  12
ENDBRANCH  10  11
ENDBRANCH   7  10
ENDBRANCH   6   7
ENDBRANCH   4   6
ENDBRANCH   2   4
TORSDOF 11
ENDMDL
MODEL      319
REMARK 921   NORMALIZED FREE ENERGY PREDICTED BY IDOCK:   -2.46 KCAL/MOL
REMARK 922        TOTAL FREE ENERGY PREDICTED BY IDOCK:   -5.37 KCAL/MOL
REMARK 923 INTER-LIGAND FREE ENERGY PREDICTED BY IDOCK:   -4.14 KCAL/MOL
REMARK 924 INTRA-LIGAND FREE ENERGY PREDICTED BY IDOCK:   -1.23 KCAL/MOL
REMARK 927      BINDING AFFINITY PREDICTED BY RF-SCORE:    0.00 PKD
ROOT
HETATM    1  C   UNL     1     -11.187  10.678  67.662  1.00  0.00    -0.361 C  
HETATM    2  C   UNL     1     -10.557  12.057  67.450  1.00  0.00    -0.223 C  
HETATM    3  C   UNL     1     -11.630  13.042  66.981  1.00  0.00    -0.413 C  
ENDROOT
BRANCH   2   4
HETATM    4  N   UNL     1      -9.940  12.485  68.708  1.00  0.00    -0.420 NA 
HETATM    5  H   UNL     1     -10.013  11.752  69.414  1.00  0.00     0.000 HD 
BRANCH   4   6
HETATM    6  C   UNL     1      -8.545  12.924  68.553  1.00  0.00    -0.042 C  
BRANCH   6   7
HETATM    7  C   UNL     1      -7.772  11.935  67.662  1.00  0.00    -0.141 C  
HETATM    8  O   UNL     1      -6.667  12.610  67.037  1.00  0.00    -0.347 OA 
HETATM    9  H   UNL     1      -6.190  11.998  66.488  1.00  0.00     0.000 HD 
BRANCH   7  10
HETATM   10  C   UNL     1      -7.248  10.743  68.475  1.00  0.00    -0.088 C  
BRANCH  10  11
HETATM   11  O   UNL     1      -7.908  10.720  69.749  1.00  0.00    -0.057 OA 
BRANCH  11  12
HETATM   12  C   UNL     1      -8.401   9.498  70.122  1.00  0.00    -0.192 A  
HETATM   13  C   UNL     1      -9.357   9.297  71.112  1.00  0.00    -0.259 A  
HETATM   14  C   UNL     1      -9.793   8.007  71.417  1.00  0.00    -0.213 A  
HETATM   15  C   UNL     1      -9.297   6.895  70.719  1.00  0.00    -0.161 A  
HETATM   16  C   UNL     1      -8.349   7.107  69.712  1.00  0.00    -0.132 A  
HETATM   17  C   UNL     1      -7.909   8.401  69.411  1.00  0.00    -0.103 A  
BRANCH  15  18
HETATM   18  C   UNL     1      -9.776   5.505  71.059  1.00  0.00    -0.229 C  
BRANCH  18  19
HETATM   19  C   UNL     1      -8.744   4.432  70.713  1.00  0.00    -0.092 C  
BRANCH  19  20
HETATM   20  O   UNL     1      -8.289   3.792  71.908  1.00  0.00    -0.082 OA 
BRANCH  20  21
HETATM   21  C   UNL     1      -8.361   4.690  73.016  1.00  0.00    -0.100 C  
BRANCH  21  22
HETATM   22  C   UNL     1      -8.865   3.952  74.213  1.00  0.00    -0.096 C  
HETATM   23  C   UNL     1     -10.350   3.883  74.469  1.00  0.00    -0.266 C  
HETATM   24  C   UNL     1      -9.601   2.644  74.066  1.00  0.00    -0.119 C  
ENDBRANCH  21  22
ENDBRANCH  20  21
ENDBRANCH  19  20
ENDBRANCH  18  19
ENDBRANCH  15  18
ENDBRANCH  11  12
ENDBRANCH  10  11
ENDBRANCH   7  10
ENDBRANCH   6   7
ENDBRANCH   4   6
ENDBRANCH   2   4
TORSDOF 11
ENDMDL
MODEL      320
REMARK 921   NORMALIZED FREE ENERGY PREDICTED BY IDOCK:   -2.46 KCAL/MOL
REMARK 922        TOTAL FREE ENERGY PREDICTED BY IDOCK:   -5.37 KCAL/MOL
REMARK 923 INTER-LIGAND FREE ENERGY PREDICTED BY IDOCK:   -4.27 KCAL/MOL
REMARK 924 INTRA-LIGAND FREE ENERGY PREDICTED BY IDOCK:   -1.10 KCAL/MOL
REMARK 927      BINDING AFFINITY PREDICTED BY RF-SCORE:    0.00 PKD
ROOT
HETATM    1  C   UNL     1      -6.932  11.243  66.955  1.00  0.00    -0.126 C  
HETATM    2  C   UNL     1      -8.389  10.914  66.624  1.00  0.00    -0.143 C  
HETATM    3  C   UNL     1      -8.460   9.547  65.938  1.00  0.00    -0.133 C  
ENDROOT
BRANCH   2   4
HETATM    4  N   UNL     1      -9.165  10.938  67.866  1.00  0.00    -0.149 NA 
HETATM    5  H   UNL     1     -10.018  10.387  67.771  1.00  0.00     0.000 HD 
BRANCH   4   6
HETATM    6  C   UNL     1      -8.394  10.509  69.043  1.00  0.00    -0.154 C  
BRANCH   6   7
HETATM    7  C   UNL     1      -9.086   9.316  69.726  1.00  0.00    -0.177 C  
HETATM    8  O   UNL     1      -9.212   9.573  71.135  1.00  0.00    -0.285 OA 
HETATM    9  H   UNL     1      -9.639   8.836  71.556  1.00  0.00     0.000 HD 
BRANCH   7  10
HETATM   10  C   UNL     1     -10.476   9.058  69.128  1.00  0.00    -0.225 C  
BRANCH  10  11
HETATM   11  O   UNL     1     -10.992   7.829  69.660  1.00  0.00    -0.220 OA 
BRANCH  11  12
HETATM   12  C   UNL     1     -10.559   6.697  69.022  1.00  0.00    -0.239 A  
HETATM   13  C   UNL     1      -9.856   5.664  69.632  1.00  0.00    -0.243 A  
HETATM   14  C   UNL     1      -9.460   4.550  68.889  1.00  0.00    -0.225 A  
HETATM   15  C   UNL     1      -9.783   4.439  67.529  1.00  0.00    -0.211 A  
HETATM   16  C   UNL     1     -10.508   5.474  66.927  1.00  0.00    -0.348 A  
HETATM   17  C   UNL     1     -10.899   6.593  67.671  1.00  0.00    -0.393 A  
BRANCH  15  18
HETATM   18  C   UNL     1      -9.349   3.229  66.737  1.00  0.00    -0.171 C  
BRANCH  18  19
HETATM   19  C   UNL     1      -7.973   3.415  66.097  1.00  0.00    -0.092 C  
BRANCH  19  20
HETATM   20  O   UNL     1      -8.044   3.124  64.699  1.00  0.00    -0.085 OA 
BRANCH  20  21
HETATM   21  C   UNL     1      -9.074   2.169  64.438  1.00  0.00    -0.123 C  
BRANCH  21  22
HETATM   22  C   UNL     1      -9.698   2.471  63.114  1.00  0.00    -0.097 C  
HETATM   23  C   UNL     1     -11.170   2.210  62.913  1.00  0.00    -0.223 C  
HETATM   24  C   UNL     1     -10.657   3.622  62.952  1.00  0.00    -0.210 C  
ENDBRANCH  21  22
ENDBRANCH  20  21
ENDBRANCH  19  20
ENDBRANCH  18  19
ENDBRANCH  15  18
ENDBRANCH  11  12
ENDBRANCH  10  11
ENDBRANCH   7  10
ENDBRANCH   6   7
ENDBRANCH   4   6
ENDBRANCH   2   4
TORSDOF 11
ENDMDL
MODEL      321
REMARK 921   NORMALIZED FREE ENERGY PREDICTED BY IDOCK:   -2.42 KCAL/MOL
REMARK 922        TOTAL FREE ENERGY PREDICTED BY IDOCK:   -5.29 KCAL/MOL
REMARK 923 INTER-LIGAND FREE ENERGY PREDICTED BY IDOCK:   -4.60 KCAL/MOL
REMARK 924 INTRA-LIGAND FREE ENERGY PREDICTED BY IDOCK:   -0.70 KCAL/MOL
REMARK 927      BINDING AFFINITY PREDICTED BY RF-SCORE:    0.00 PKD
ROOT
HETATM    1  C   UNL     1     -12.124  15.419  70.049  1.00  0.00    -0.388 C  
HETATM    2  C   UNL     1     -11.667  16.063  68.737  1.00  0.00    -0.299 C  
HETATM    3  C   UNL     1     -10.327  16.771  68.956  1.00  0.00    -0.326 C  
ENDROOT
BRANCH   2   4
HETATM    4  N   UNL     1     -11.567  15.017  67.716  1.00  0.00    -0.336 NA 
HETATM    5  H   UNL     1     -10.683  15.085  67.213  1.00  0.00     0.000 HD 
BRANCH   4   6
HETATM    6  C   UNL     1     -11.761  13.661  68.251  1.00  0.00    -0.363 C  
BRANCH   6   7
HETATM    7  C   UNL     1     -10.401  13.020  68.579  1.00  0.00    -0.239 C  
HETATM    8  O   UNL     1     -10.601  11.859  69.404  1.00  0.00    -0.440 OA 
HETATM    9  H   UNL     1      -9.761  11.463  69.606  1.00  0.00     0.000 HD 
BRANCH   7  10
HETATM   10  C   UNL     1      -9.652  12.614  67.303  1.00  0.00    -0.203 C  
BRANCH  10  11
HETATM   11  O   UNL     1     -10.373  11.557  66.653  1.00  0.00    -0.213 OA 
BRANCH  11  12
HETATM   12  C   UNL     1      -9.865  10.302  66.855  1.00  0.00    -0.197 A  
HETATM   13  C   UNL     1      -8.537  10.024  67.159  1.00  0.00    -0.128 A  
HETATM   14  C   UNL     1      -8.120   8.705  67.347  1.00  0.00    -0.102 A  
HETATM   15  C   UNL     1      -9.032   7.642  67.258  1.00  0.00    -0.134 A  
HETATM   16  C   UNL     1     -10.370   7.931  66.970  1.00  0.00    -0.411 A  
HETATM   17  C   UNL     1     -10.785   9.254  66.777  1.00  0.00    -0.120 A  
BRANCH  15  18
HETATM   18  C   UNL     1      -8.568   6.220  67.462  1.00  0.00    -0.107 C  
BRANCH  18  19
HETATM   19  C   UNL     1      -7.904   5.639  66.214  1.00  0.00    -0.100 C  
BRANCH  19  20
HETATM   20  O   UNL     1      -8.855   5.560  65.149  1.00  0.00    -0.149 OA 
BRANCH  20  21
HETATM   21  C   UNL     1      -8.232   5.861  63.899  1.00  0.00    -0.056 C  
BRANCH  21  22
HETATM   22  C   UNL     1      -7.639   7.231  63.965  1.00  0.00    -0.110 C  
HETATM   23  C   UNL     1      -6.357   7.518  63.225  1.00  0.00    -0.054 C  
HETATM   24  C   UNL     1      -7.645   8.138  62.761  1.00  0.00    -0.122 C  
ENDBRANCH  21  22
ENDBRANCH  20  21
ENDBRANCH  19  20
ENDBRANCH  18  19
ENDBRANCH  15  18
ENDBRANCH  11  12
ENDBRANCH  10  11
ENDBRANCH   7  10
ENDBRANCH   6   7
ENDBRANCH   4   6
ENDBRANCH   2   4
TORSDOF 11
ENDMDL
MODEL      322
REMARK 921   NORMALIZED FREE ENERGY PREDICTED BY IDOCK:   -2.42 KCAL/MOL
REMARK 922        TOTAL FREE ENERGY PREDICTED BY IDOCK:   -5.29 KCAL/MOL
REMARK 923 INTER-LIGAND FREE ENERGY PREDICTED BY IDOCK:   -4.89 KCAL/MOL
REMARK 924 INTRA-LIGAND FREE ENERGY PREDICTED BY IDOCK:   -0.40 KCAL/MOL
REMARK 927      BINDING AFFINITY PREDICTED BY RF-SCORE:    0.00 PKD
ROOT
HETATM    1  C   UNL     1      -6.293  15.177  70.081  1.00  0.00    -0.130 C  
HETATM    2  C   UNL     1      -7.249  14.374  69.196  1.00  0.00    -0.118 C  
HETATM    3  C   UNL     1      -6.909  14.617  67.724  1.00  0.00    -0.193 C  
ENDROOT
BRANCH   2   4
HETATM    4  N   UNL     1      -7.133  12.957  69.552  1.00  0.00    -0.322 NA 
HETATM    5  H   UNL     1      -7.862  12.409  69.096  1.00  0.00     0.000 HD 
BRANCH   4   6
HETATM    6  C   UNL     1      -5.803  12.395  69.274  1.00  0.00    -0.085 C  
BRANCH   6   7
HETATM    7  C   UNL     1      -5.745  10.923  69.721  1.00  0.00    -0.059 C  
HETATM    8  O   UNL     1      -6.046  10.833  71.124  1.00  0.00    -0.351 OA 
HETATM    9  H   UNL     1      -6.010   9.924  71.399  1.00  0.00     0.000 HD 
BRANCH   7  10
HETATM   10  C   UNL     1      -6.736  10.058  68.930  1.00  0.00    -0.053 C  
BRANCH  10  11
HETATM   11  O   UNL     1      -6.687  10.438  67.547  1.00  0.00    -0.069 OA 
BRANCH  11  12
HETATM   12  C   UNL     1      -7.892  10.792  67.002  1.00  0.00    -0.121 A  
HETATM   13  C   UNL     1      -8.988  11.248  67.728  1.00  0.00    -0.141 A  
HETATM   14  C   UNL     1     -10.174  11.584  67.073  1.00  0.00    -0.244 A  
HETATM   15  C   UNL     1     -10.276  11.494  65.677  1.00  0.00    -0.292 A  
HETATM   16  C   UNL     1      -9.164  11.054  64.952  1.00  0.00    -0.210 A  
HETATM   17  C   UNL     1      -7.977  10.711  65.610  1.00  0.00    -0.136 A  
BRANCH  15  18
HETATM   18  C   UNL     1     -11.565  11.861  64.982  1.00  0.00    -0.277 C  
BRANCH  18  19
HETATM   19  C   UNL     1     -12.198  13.128  65.558  1.00  0.00    -0.461 C  
BRANCH  19  20
HETATM   20  O   UNL     1     -11.831  14.258  64.763  1.00  0.00    -0.384 OA 
BRANCH  20  21
HETATM   21  C   UNL     1     -10.418  14.460  64.802  1.00  0.00    -0.367 C  
BRANCH  21  22
HETATM   22  C   UNL     1     -10.049  15.087  66.107  1.00  0.00    -0.312 C  
HETATM   23  C   UNL     1     -10.462  16.510  66.388  1.00  0.00    -0.275 C  
HETATM   24  C   UNL     1     -11.096  15.382  67.151  1.00  0.00    -0.291 C  
ENDBRANCH  21  22
ENDBRANCH  20  21
ENDBRANCH  19  20
ENDBRANCH  18  19
ENDBRANCH  15  18
ENDBRANCH  11  12
ENDBRANCH  10  11
ENDBRANCH   7  10
ENDBRANCH   6   7
ENDBRANCH   4   6
ENDBRANCH   2   4
TORSDOF 11
ENDMDL
MODEL      323
REMARK 921   NORMALIZED FREE ENERGY PREDICTED BY IDOCK:   -2.40 KCAL/MOL
REMARK 922        TOTAL FREE ENERGY PREDICTED BY IDOCK:   -5.27 KCAL/MOL
REMARK 923 INTER-LIGAND FREE ENERGY PREDICTED BY IDOCK:   -4.40 KCAL/MOL
REMARK 924 INTRA-LIGAND FREE ENERGY PREDICTED BY IDOCK:   -0.86 KCAL/MOL
REMARK 927      BINDING AFFINITY PREDICTED BY RF-SCORE:    0.00 PKD
ROOT
HETATM    1  C   UNL     1      -8.097  16.151  68.795  1.00  0.00    -0.218 C  
HETATM    2  C   UNL     1      -6.611  15.797  68.701  1.00  0.00    -0.116 C  
HETATM    3  C   UNL     1      -5.796  16.793  69.528  1.00  0.00    -0.194 C  
ENDROOT
BRANCH   2   4
HETATM    4  N   UNL     1      -6.430  14.422  69.173  1.00  0.00    -0.101 NA 
HETATM    5  H   UNL     1      -6.506  13.761  68.401  1.00  0.00     0.000 HD 
BRANCH   4   6
HETATM    6  C   UNL     1      -5.174  14.222  69.912  1.00  0.00    -0.093 C  
BRANCH   6   7
HETATM    7  C   UNL     1      -5.238  12.915  70.723  1.00  0.00    -0.147 C  
HETATM    8  O   UNL     1      -5.429  13.221  72.115  1.00  0.00    -0.391 OA 
HETATM    9  H   UNL     1      -5.468  12.414  72.616  1.00  0.00     0.000 HD 
BRANCH   7  10
HETATM   10  C   UNL     1      -6.379  12.011  70.239  1.00  0.00     0.111 C  
BRANCH  10  11
HETATM   11  O   UNL     1      -6.117  11.612  68.885  1.00  0.00    -0.048 OA 
BRANCH  11  12
HETATM   12  C   UNL     1      -7.231  11.393  68.121  1.00  0.00    -0.082 A  
HETATM   13  C   UNL     1      -8.538  11.432  68.596  1.00  0.00    -0.126 A  
HETATM   14  C   UNL     1      -9.607  11.192  67.731  1.00  0.00    -0.180 A  
HETATM   15  C   UNL     1      -9.388  10.935  66.369  1.00  0.00    -0.199 A  
HETATM   16  C   UNL     1      -8.072  10.917  65.895  1.00  0.00    -0.120 A  
HETATM   17  C   UNL     1      -7.001  11.151  66.765  1.00  0.00    -0.137 A  
BRANCH  15  18
HETATM   18  C   UNL     1     -10.553  10.678  65.444  1.00  0.00    -0.185 C  
BRANCH  18  19
HETATM   19  C   UNL     1     -11.287  11.963  65.060  1.00  0.00    -0.273 C  
BRANCH  19  20
HETATM   20  O   UNL     1     -12.363  12.199  65.972  1.00  0.00    -0.550 OA 
BRANCH  20  21
HETATM   21  C   UNL     1     -12.367  13.562  66.400  1.00  0.00    -0.357 C  
BRANCH  21  22
HETATM   22  C   UNL     1     -11.545  13.688  67.641  1.00  0.00    -0.381 C  
HETATM   23  C   UNL     1     -11.070  15.051  68.079  1.00  0.00    -0.304 C  
HETATM   24  C   UNL     1     -12.110  14.324  68.885  1.00  0.00    -0.314 C  
ENDBRANCH  21  22
ENDBRANCH  20  21
ENDBRANCH  19  20
ENDBRANCH  18  19
ENDBRANCH  15  18
ENDBRANCH  11  12
ENDBRANCH  10  11
ENDBRANCH   7  10
ENDBRANCH   6   7
ENDBRANCH   4   6
ENDBRANCH   2   4
TORSDOF 11
ENDMDL
MODEL      324
REMARK 921   NORMALIZED FREE ENERGY PREDICTED BY IDOCK:   -2.39 KCAL/MOL
REMARK 922        TOTAL FREE ENERGY PREDICTED BY IDOCK:   -5.25 KCAL/MOL
REMARK 923 INTER-LIGAND FREE ENERGY PREDICTED BY IDOCK:   -3.73 KCAL/MOL
REMARK 924 INTRA-LIGAND FREE ENERGY PREDICTED BY IDOCK:   -1.52 KCAL/MOL
REMARK 927      BINDING AFFINITY PREDICTED BY RF-SCORE:    0.00 PKD
ROOT
HETATM    1  C   UNL     1     -12.439   9.839  71.817  1.00  0.00    -0.485 C  
HETATM    2  C   UNL     1     -11.849   9.373  70.483  1.00  0.00    -0.151 C  
HETATM    3  C   UNL     1     -10.376   9.780  70.407  1.00  0.00    -0.354 C  
ENDROOT
BRANCH   2   4
HETATM    4  N   UNL     1     -12.018   7.922  70.382  1.00  0.00    -0.474 NA 
HETATM    5  H   UNL     1     -11.767   7.592  69.450  1.00  0.00     0.000 HD 
BRANCH   4   6
HETATM    6  C   UNL     1     -11.281   7.177  71.415  1.00  0.00    -0.251 C  
BRANCH   6   7
HETATM    7  C   UNL     1     -10.260   6.230  70.761  1.00  0.00    -0.193 C  
HETATM    8  O   UNL     1     -10.420   4.904  71.296  1.00  0.00    -0.185 OA 
HETATM    9  H   UNL     1      -9.789   4.320  70.891  1.00  0.00     0.000 HD 
BRANCH   7  10
HETATM   10  C   UNL     1     -10.433   6.187  69.236  1.00  0.00    -0.254 C  
BRANCH  10  11
HETATM   11  O   UNL     1     -10.405   4.820  68.801  1.00  0.00    -0.070 OA 
BRANCH  11  12
HETATM   12  C   UNL     1      -9.643   4.583  67.689  1.00  0.00    -0.165 A  
HETATM   13  C   UNL     1      -8.358   4.051  67.707  1.00  0.00    -0.097 A  
HETATM   14  C   UNL     1      -7.664   3.848  66.513  1.00  0.00    -0.089 A  
HETATM   15  C   UNL     1      -8.254   4.151  65.277  1.00  0.00    -0.102 A  
HETATM   16  C   UNL     1      -9.554   4.668  65.265  1.00  0.00    -0.161 A  
HETATM   17  C   UNL     1     -10.246   4.877  66.464  1.00  0.00    -0.305 A  
BRANCH  15  18
HETATM   18  C   UNL     1      -7.493   3.927  63.993  1.00  0.00    -0.063 C  
BRANCH  18  19
HETATM   19  C   UNL     1      -7.128   5.238  63.296  1.00  0.00    -0.043 C  
BRANCH  19  20
HETATM   20  O   UNL     1      -6.114   5.918  64.039  1.00  0.00    -0.024 OA 
BRANCH  20  21
HETATM   21  C   UNL     1      -6.529   7.248  64.352  1.00  0.00    -0.040 C  
BRANCH  21  22
HETATM   22  C   UNL     1      -6.667   7.382  65.834  1.00  0.00    -0.053 C  
HETATM   23  C   UNL     1      -6.785   8.756  66.446  1.00  0.00    -0.070 C  
HETATM   24  C   UNL     1      -7.967   7.827  66.456  1.00  0.00    -0.106 C  
ENDBRANCH  21  22
ENDBRANCH  20  21
ENDBRANCH  19  20
ENDBRANCH  18  19
ENDBRANCH  15  18
ENDBRANCH  11  12
ENDBRANCH  10  11
ENDBRANCH   7  10
ENDBRANCH   6   7
ENDBRANCH   4   6
ENDBRANCH   2   4
TORSDOF 11
ENDMDL
MODEL      325
REMARK 921   NORMALIZED FREE ENERGY PREDICTED BY IDOCK:   -2.28 KCAL/MOL
REMARK 922        TOTAL FREE ENERGY PREDICTED BY IDOCK:   -5.07 KCAL/MOL
REMARK 923 INTER-LIGAND FREE ENERGY PREDICTED BY IDOCK:   -4.88 KCAL/MOL
REMARK 924 INTRA-LIGAND FREE ENERGY PREDICTED BY IDOCK:   -0.19 KCAL/MOL
REMARK 927      BINDING AFFINITY PREDICTED BY RF-SCORE:    0.00 PKD
ROOT
HETATM    1  C   UNL     1     -12.182  15.439  70.164  1.00  0.00    -0.407 C  
HETATM    2  C   UNL     1     -11.744  16.217  68.920  1.00  0.00    -0.250 C  
HETATM    3  C   UNL     1     -10.433  16.950  69.211  1.00  0.00    -0.319 C  
ENDROOT
BRANCH   2   4
HETATM    4  N   UNL     1     -11.604  15.274  67.808  1.00  0.00    -0.311 NA 
HETATM    5  H   UNL     1     -10.706  15.398  67.339  1.00  0.00     0.000 HD 
BRANCH   4   6
HETATM    6  C   UNL     1     -11.795  13.871  68.206  1.00  0.00    -0.376 C  
BRANCH   6   7
HETATM    7  C   UNL     1     -10.483  13.294  68.768  1.00  0.00    -0.169 C  
HETATM    8  O   UNL     1     -10.709  11.957  69.245  1.00  0.00    -0.407 OA 
HETATM    9  H   UNL     1      -9.899  11.602  69.592  1.00  0.00     0.000 HD 
BRANCH   7  10
HETATM   10  C   UNL     1      -9.379  13.275  67.702  1.00  0.00    -0.212 C  
BRANCH  10  11
HETATM   11  O   UNL     1      -9.816  12.476  66.592  1.00  0.00    -0.229 OA 
BRANCH  11  12
HETATM   12  C   UNL     1      -9.284  11.215  66.544  1.00  0.00    -0.179 A  
HETATM   13  C   UNL     1      -8.116  10.821  67.188  1.00  0.00    -0.124 A  
HETATM   14  C   UNL     1      -7.659   9.508  67.074  1.00  0.00    -0.091 A  
HETATM   15  C   UNL     1      -8.377   8.557  66.334  1.00  0.00    -0.115 A  
HETATM   16  C   UNL     1      -9.561   8.955  65.704  1.00  0.00    -0.175 A  
HETATM   17  C   UNL     1     -10.015  10.274  65.814  1.00  0.00    -0.337 A  
BRANCH  15  18
HETATM   18  C   UNL     1      -7.872   7.139  66.218  1.00  0.00    -0.107 C  
BRANCH  18  19
HETATM   19  C   UNL     1      -9.001   6.135  65.989  1.00  0.00    -0.145 C  
BRANCH  19  20
HETATM   20  O   UNL     1     -10.098   6.431  66.857  1.00  0.00    -0.160 OA 
BRANCH  20  21
HETATM   21  C   UNL     1      -9.719   6.251  68.222  1.00  0.00    -0.120 C  
BRANCH  21  22
HETATM   22  C   UNL     1     -10.625   7.060  69.092  1.00  0.00    -0.235 C  
HETATM   23  C   UNL     1     -10.103   7.610  70.396  1.00  0.00    -0.190 C  
HETATM   24  C   UNL     1     -10.419   8.544  69.262  1.00  0.00    -0.224 C  
ENDBRANCH  21  22
ENDBRANCH  20  21
ENDBRANCH  19  20
ENDBRANCH  18  19
ENDBRANCH  15  18
ENDBRANCH  11  12
ENDBRANCH  10  11
ENDBRANCH   7  10
ENDBRANCH   6   7
ENDBRANCH   4   6
ENDBRANCH   2   4
TORSDOF 11
ENDMDL
MODEL      326
REMARK 921   NORMALIZED FREE ENERGY PREDICTED BY IDOCK:   -2.27 KCAL/MOL
REMARK 922        TOTAL FREE ENERGY PREDICTED BY IDOCK:   -5.05 KCAL/MOL
REMARK 923 INTER-LIGAND FREE ENERGY PREDICTED BY IDOCK:   -4.64 KCAL/MOL
REMARK 924 INTRA-LIGAND FREE ENERGY PREDICTED BY IDOCK:   -0.41 KCAL/MOL
REMARK 927      BINDING AFFINITY PREDICTED BY RF-SCORE:    0.00 PKD
ROOT
HETATM    1  C   UNL     1     -11.524  15.717  69.607  1.00  0.00    -0.348 C  
HETATM    2  C   UNL     1     -11.242  16.315  68.226  1.00  0.00    -0.324 C  
HETATM    3  C   UNL     1      -9.803  16.833  68.179  1.00  0.00    -0.264 C  
ENDROOT
BRANCH   2   4
HETATM    4  N   UNL     1     -11.480  15.281  67.216  1.00  0.00    -0.281 NA 
HETATM    5  H   UNL     1     -10.723  15.262  66.533  1.00  0.00     0.000 HD 
BRANCH   4   6
HETATM    6  C   UNL     1     -11.700  13.945  67.790  1.00  0.00    -0.366 C  
BRANCH   6   7
HETATM    7  C   UNL     1     -10.437  13.081  67.625  1.00  0.00    -0.225 C  
HETATM    8  O   UNL     1     -10.271  12.244  68.782  1.00  0.00    -0.344 OA 
HETATM    9  H   UNL     1      -9.491  11.711  68.680  1.00  0.00     0.000 HD 
BRANCH   7  10
HETATM   10  C   UNL     1     -10.520  12.203  66.369  1.00  0.00    -0.230 C  
BRANCH  10  11
HETATM   11  O   UNL     1     -11.161  10.965  66.706  1.00  0.00    -0.244 OA 
BRANCH  11  12
HETATM   12  C   UNL     1     -10.323   9.887  66.803  1.00  0.00    -0.217 A  
HETATM   13  C   UNL     1      -9.211   9.672  65.995  1.00  0.00    -0.232 A  
HETATM   14  C   UNL     1      -8.420   8.537  66.176  1.00  0.00    -0.139 A  
HETATM   15  C   UNL     1      -8.712   7.609  67.186  1.00  0.00    -0.125 A  
HETATM   16  C   UNL     1      -9.821   7.841  68.007  1.00  0.00    -0.192 A  
HETATM   17  C   UNL     1     -10.617   8.977  67.821  1.00  0.00    -0.278 A  
BRANCH  15  18
HETATM   18  C   UNL     1      -7.848   6.385  67.372  1.00  0.00    -0.105 C  
BRANCH  18  19
HETATM   19  C   UNL     1      -7.927   5.430  66.180  1.00  0.00    -0.105 C  
BRANCH  19  20
HETATM   20  O   UNL     1      -9.289   5.274  65.773  1.00  0.00    -0.160 OA 
BRANCH  20  21
HETATM   21  C   UNL     1      -9.654   3.893  65.765  1.00  0.00    -0.181 C  
BRANCH  21  22
HETATM   22  C   UNL     1      -8.420   3.061  65.626  1.00  0.00    -0.105 C  
HETATM   23  C   UNL     1      -8.383   1.683  66.239  1.00  0.00    -0.091 C  
HETATM   24  C   UNL     1      -8.403   1.839  64.744  1.00  0.00    -0.081 C  
ENDBRANCH  21  22
ENDBRANCH  20  21
ENDBRANCH  19  20
ENDBRANCH  18  19
ENDBRANCH  15  18
ENDBRANCH  11  12
ENDBRANCH  10  11
ENDBRANCH   7  10
ENDBRANCH   6   7
ENDBRANCH   4   6
ENDBRANCH   2   4
TORSDOF 11
ENDMDL
MODEL      327
REMARK 921   NORMALIZED FREE ENERGY PREDICTED BY IDOCK:   -2.23 KCAL/MOL
REMARK 922        TOTAL FREE ENERGY PREDICTED BY IDOCK:   -4.99 KCAL/MOL
REMARK 923 INTER-LIGAND FREE ENERGY PREDICTED BY IDOCK:   -4.38 KCAL/MOL
REMARK 924 INTRA-LIGAND FREE ENERGY PREDICTED BY IDOCK:   -0.62 KCAL/MOL
REMARK 927      BINDING AFFINITY PREDICTED BY RF-SCORE:    0.00 PKD
ROOT
HETATM    1  C   UNL     1      -6.383   8.329  73.168  1.00  0.00    -0.106 C  
HETATM    2  C   UNL     1      -7.080   7.649  71.987  1.00  0.00    -0.065 C  
HETATM    3  C   UNL     1      -8.596   7.699  72.193  1.00  0.00    -0.148 C  
ENDROOT
BRANCH   2   4
HETATM    4  N   UNL     1      -6.677   8.330  70.754  1.00  0.00    -0.037 NA 
HETATM    5  H   UNL     1      -5.804   7.943  70.396  1.00  0.00     0.000 HD 
BRANCH   4   6
HETATM    6  C   UNL     1      -7.719   8.318  69.716  1.00  0.00    -0.098 C  
BRANCH   6   7
HETATM    7  C   UNL     1      -8.028   9.755  69.258  1.00  0.00    -0.112 C  
HETATM    8  O   UNL     1      -7.879  10.658  70.367  1.00  0.00    -0.343 OA 
HETATM    9  H   UNL     1      -8.070  11.544  70.083  1.00  0.00     0.000 HD 
BRANCH   7  10
HETATM   10  C   UNL     1      -7.098  10.191  68.118  1.00  0.00    -0.079 C  
BRANCH  10  11
HETATM   11  O   UNL     1      -7.746  11.218  67.353  1.00  0.00    -0.116 OA 
BRANCH  11  12
HETATM   12  C   UNL     1      -7.568  12.490  67.826  1.00  0.00    -0.138 A  
HETATM   13  C   UNL     1      -6.332  13.094  68.030  1.00  0.00    -0.127 A  
HETATM   14  C   UNL     1      -6.260  14.400  68.518  1.00  0.00    -0.090 A  
HETATM   15  C   UNL     1      -7.425  15.134  68.786  1.00  0.00    -0.132 A  
HETATM   16  C   UNL     1      -8.665  14.526  68.561  1.00  0.00    -0.177 A  
HETATM   17  C   UNL     1      -8.735  13.215  68.077  1.00  0.00    -0.190 A  
BRANCH  15  18
HETATM   18  C   UNL     1      -7.333  16.546  69.314  1.00  0.00    -0.201 C  
BRANCH  18  19
HETATM   19  C   UNL     1      -7.712  17.587  68.260  1.00  0.00    -0.247 C  
BRANCH  19  20
HETATM   20  O   UNL     1      -9.024  18.090  68.523  1.00  0.00    -0.289 OA 
BRANCH  20  21
HETATM   21  C   UNL     1      -9.878  17.872  67.400  1.00  0.00    -0.305 C  
BRANCH  21  22
HETATM   22  C   UNL     1      -9.608  18.919  66.369  1.00  0.00    -0.377 C  
HETATM   23  C   UNL     1     -10.728  19.825  65.922  1.00  0.00    -0.488 C  
HETATM   24  C   UNL     1      -9.592  20.382  66.733  1.00  0.00    -0.512 C  
ENDBRANCH  21  22
ENDBRANCH  20  21
ENDBRANCH  19  20
ENDBRANCH  18  19
ENDBRANCH  15  18
ENDBRANCH  11  12
ENDBRANCH  10  11
ENDBRANCH   7  10
ENDBRANCH   6   7
ENDBRANCH   4   6
ENDBRANCH   2   4
TORSDOF 11
ENDMDL
MODEL      328
REMARK 921   NORMALIZED FREE ENERGY PREDICTED BY IDOCK:   -2.23 KCAL/MOL
REMARK 922        TOTAL FREE ENERGY PREDICTED BY IDOCK:   -4.99 KCAL/MOL
REMARK 923 INTER-LIGAND FREE ENERGY PREDICTED BY IDOCK:   -3.73 KCAL/MOL
REMARK 924 INTRA-LIGAND FREE ENERGY PREDICTED BY IDOCK:   -1.26 KCAL/MOL
REMARK 927      BINDING AFFINITY PREDICTED BY RF-SCORE:    0.00 PKD
ROOT
HETATM    1  C   UNL     1     -11.502  11.786  68.166  1.00  0.00    -0.382 C  
HETATM    2  C   UNL     1     -11.056  13.152  67.637  1.00  0.00    -0.270 C  
HETATM    3  C   UNL     1     -12.263  13.893  67.058  1.00  0.00    -0.392 C  
ENDROOT
BRANCH   2   4
HETATM    4  N   UNL     1     -10.438  13.897  68.736  1.00  0.00    -0.269 NA 
HETATM    5  H   UNL     1     -10.206  13.275  69.510  1.00  0.00     0.000 HD 
BRANCH   4   6
HETATM    6  C   UNL     1      -9.261  14.675  68.321  1.00  0.00    -0.198 C  
BRANCH   6   7
HETATM    7  C   UNL     1      -8.614  14.039  67.078  1.00  0.00    -0.174 C  
HETATM    8  O   UNL     1      -8.305  15.063  66.117  1.00  0.00    -0.301 OA 
HETATM    9  H   UNL     1      -7.906  14.669  65.350  1.00  0.00     0.000 HD 
BRANCH   7  10
HETATM   10  C   UNL     1      -7.331  13.279  67.442  1.00  0.00    -0.114 C  
BRANCH  10  11
HETATM   11  O   UNL     1      -7.545  12.560  68.666  1.00  0.00    -0.119 OA 
BRANCH  11  12
HETATM   12  C   UNL     1      -7.770  11.218  68.516  1.00  0.00    -0.131 A  
HETATM   13  C   UNL     1      -7.586  10.267  69.514  1.00  0.00    -0.150 A  
HETATM   14  C   UNL     1      -7.845   8.920  69.257  1.00  0.00    -0.096 A  
HETATM   15  C   UNL     1      -8.316   8.503  68.003  1.00  0.00    -0.127 A  
HETATM   16  C   UNL     1      -8.516   9.468  67.010  1.00  0.00    -0.128 A  
HETATM   17  C   UNL     1      -8.250  10.818  67.267  1.00  0.00    -0.121 A  
BRANCH  15  18
HETATM   18  C   UNL     1      -8.591   7.043  67.738  1.00  0.00    -0.122 C  
BRANCH  18  19
HETATM   19  C   UNL     1      -9.012   6.782  66.291  1.00  0.00    -0.152 C  
BRANCH  19  20
HETATM   20  O   UNL     1      -7.873   6.405  65.514  1.00  0.00    -0.091 OA 
BRANCH  20  21
HETATM   21  C   UNL     1      -8.243   6.202  64.149  1.00  0.00    -0.031 C  
BRANCH  21  22
HETATM   22  C   UNL     1      -7.721   7.335  63.327  1.00  0.00    -0.120 C  
HETATM   23  C   UNL     1      -8.149   8.745  63.652  1.00  0.00    -0.169 C  
HETATM   24  C   UNL     1      -6.730   8.317  63.899  1.00  0.00    -0.075 C  
ENDBRANCH  21  22
ENDBRANCH  20  21
ENDBRANCH  19  20
ENDBRANCH  18  19
ENDBRANCH  15  18
ENDBRANCH  11  12
ENDBRANCH  10  11
ENDBRANCH   7  10
ENDBRANCH   6   7
ENDBRANCH   4   6
ENDBRANCH   2   4
TORSDOF 11
ENDMDL
MODEL      329
REMARK 921   NORMALIZED FREE ENERGY PREDICTED BY IDOCK:   -2.18 KCAL/MOL
REMARK 922        TOTAL FREE ENERGY PREDICTED BY IDOCK:   -4.91 KCAL/MOL
REMARK 923 INTER-LIGAND FREE ENERGY PREDICTED BY IDOCK:   -3.95 KCAL/MOL
REMARK 924 INTRA-LIGAND FREE ENERGY PREDICTED BY IDOCK:   -0.97 KCAL/MOL
REMARK 927      BINDING AFFINITY PREDICTED BY RF-SCORE:    0.00 PKD
ROOT
HETATM    1  C   UNL     1     -12.408  12.383  63.400  1.00  0.00    -0.603 C  
HETATM    2  C   UNL     1     -11.756  13.571  64.113  1.00  0.00    -0.411 C  
HETATM    3  C   UNL     1     -12.366  13.728  65.507  1.00  0.00    -0.507 C  
ENDROOT
BRANCH   2   4
HETATM    4  N   UNL     1     -10.311  13.339  64.175  1.00  0.00    -0.636 NA 
HETATM    5  H   UNL     1      -9.936  13.634  65.077  1.00  0.00     0.000 HD 
BRANCH   4   6
HETATM    6  C   UNL     1      -9.932  11.949  63.881  1.00  0.00    -0.329 C  
BRANCH   6   7
HETATM    7  C   UNL     1      -9.067  11.381  65.020  1.00  0.00    -0.013 C  
HETATM    8  O   UNL     1      -9.581  11.831  66.286  1.00  0.00    -0.214 OA 
HETATM    9  H   UNL     1      -9.047  11.480  66.989  1.00  0.00     0.000 HD 
BRANCH   7  10
HETATM   10  C   UNL     1      -9.046   9.847  64.996  1.00  0.00    -0.218 C  
BRANCH  10  11
HETATM   11  O   UNL     1      -7.904   9.384  65.731  1.00  0.00    -0.097 OA 
BRANCH  11  12
HETATM   12  C   UNL     1      -7.249   8.319  65.172  1.00  0.00    -0.079 A  
HETATM   13  C   UNL     1      -6.460   7.415  65.875  1.00  0.00    -0.045 A  
HETATM   14  C   UNL     1      -5.834   6.361  65.208  1.00  0.00    -0.022 A  
HETATM   15  C   UNL     1      -6.007   6.178  63.828  1.00  0.00    -0.022 A  
HETATM   16  C   UNL     1      -6.818   7.081  63.130  1.00  0.00    -0.056 A  
HETATM   17  C   UNL     1      -7.440   8.141  63.800  1.00  0.00    -0.120 A  
BRANCH  15  18
HETATM   18  C   UNL     1      -5.325   5.034  63.118  1.00  0.00    -0.013 C  
BRANCH  18  19
HETATM   19  C   UNL     1      -6.317   3.983  62.619  1.00  0.00    -0.022 C  
BRANCH  19  20
HETATM   20  O   UNL     1      -6.802   3.212  63.721  1.00  0.00    -0.037 OA 
BRANCH  20  21
HETATM   21  C   UNL     1      -7.931   2.431  63.327  1.00  0.00    -0.072 C  
BRANCH  21  22
HETATM   22  C   UNL     1      -9.033   3.346  62.899  1.00  0.00    -0.093 C  
HETATM   23  C   UNL     1     -10.467   2.932  63.122  1.00  0.00    -0.186 C  
HETATM   24  C   UNL     1      -9.882   4.067  63.915  1.00  0.00    -0.152 C  
ENDBRANCH  21  22
ENDBRANCH  20  21
ENDBRANCH  19  20
ENDBRANCH  18  19
ENDBRANCH  15  18
ENDBRANCH  11  12
ENDBRANCH  10  11
ENDBRANCH   7  10
ENDBRANCH   6   7
ENDBRANCH   4   6
ENDBRANCH   2   4
TORSDOF 11
ENDMDL
MODEL      330
REMARK 921   NORMALIZED FREE ENERGY PREDICTED BY IDOCK:   -2.14 KCAL/MOL
REMARK 922        TOTAL FREE ENERGY PREDICTED BY IDOCK:   -4.83 KCAL/MOL
REMARK 923 INTER-LIGAND FREE ENERGY PREDICTED BY IDOCK:   -3.97 KCAL/MOL
REMARK 924 INTRA-LIGAND FREE ENERGY PREDICTED BY IDOCK:   -0.86 KCAL/MOL
REMARK 927      BINDING AFFINITY PREDICTED BY RF-SCORE:    0.00 PKD
ROOT
HETATM    1  C   UNL     1      -8.117   7.187  62.333  1.00  0.00    -0.109 C  
HETATM    2  C   UNL     1      -7.795   8.609  62.798  1.00  0.00    -0.138 C  
HETATM    3  C   UNL     1      -8.963   9.536  62.453  1.00  0.00    -0.279 C  
ENDROOT
BRANCH   2   4
HETATM    4  N   UNL     1      -7.534   8.580  64.239  1.00  0.00    -0.105 NA 
HETATM    5  H   UNL     1      -7.840   9.446  64.680  1.00  0.00     0.000 HD 
BRANCH   4   6
HETATM    6  C   UNL     1      -8.123   7.413  64.913  1.00  0.00    -0.114 C  
BRANCH   6   7
HETATM    7  C   UNL     1      -8.904   7.859  66.162  1.00  0.00    -0.166 C  
HETATM    8  O   UNL     1      -8.026   7.875  67.300  1.00  0.00    -0.114 OA 
HETATM    9  H   UNL     1      -8.508   8.151  68.071  1.00  0.00     0.000 HD 
BRANCH   7  10
HETATM   10  C   UNL     1      -9.515   9.254  65.971  1.00  0.00    -0.247 C  
BRANCH  10  11
HETATM   11  O   UNL     1      -8.524  10.245  66.284  1.00  0.00    -0.130 OA 
BRANCH  11  12
HETATM   12  C   UNL     1      -9.014  11.505  66.495  1.00  0.00    -0.189 A  
HETATM   13  C   UNL     1     -10.359  11.855  66.430  1.00  0.00    -0.252 A  
HETATM   14  C   UNL     1     -10.755  13.173  66.662  1.00  0.00    -0.286 A  
HETATM   15  C   UNL     1      -9.814  14.160  66.990  1.00  0.00    -0.258 A  
HETATM   16  C   UNL     1      -8.465  13.797  67.073  1.00  0.00    -0.150 A  
HETATM   17  C   UNL     1      -8.069  12.477  66.834  1.00  0.00    -0.039 A  
BRANCH  15  18
HETATM   18  C   UNL     1     -10.255  15.582  67.239  1.00  0.00    -0.260 C  
BRANCH  18  19
HETATM   19  C   UNL     1      -9.074  16.542  67.384  1.00  0.00    -0.204 C  
BRANCH  19  20
HETATM   20  O   UNL     1      -8.952  16.961  68.745  1.00  0.00    -0.260 OA 
BRANCH  20  21
HETATM   21  C   UNL     1      -8.033  18.049  68.854  1.00  0.00    -0.174 C  
BRANCH  21  22
HETATM   22  C   UNL     1      -6.762  17.557  69.467  1.00  0.00    -0.116 C  
HETATM   23  C   UNL     1      -5.443  17.925  68.832  1.00  0.00    -0.182 C  
HETATM   24  C   UNL     1      -5.820  18.503  70.167  1.00  0.00    -0.199 C  
ENDBRANCH  21  22
ENDBRANCH  20  21
ENDBRANCH  19  20
ENDBRANCH  18  19
ENDBRANCH  15  18
ENDBRANCH  11  12
ENDBRANCH  10  11
ENDBRANCH   7  10
ENDBRANCH   6   7
ENDBRANCH   4   6
ENDBRANCH   2   4
TORSDOF 11
ENDMDL
MODEL      331
REMARK 921   NORMALIZED FREE ENERGY PREDICTED BY IDOCK:   -2.02 KCAL/MOL
REMARK 922        TOTAL FREE ENERGY PREDICTED BY IDOCK:   -4.65 KCAL/MOL
REMARK 923 INTER-LIGAND FREE ENERGY PREDICTED BY IDOCK:   -3.90 KCAL/MOL
REMARK 924 INTRA-LIGAND FREE ENERGY PREDICTED BY IDOCK:   -0.75 KCAL/MOL
REMARK 927      BINDING AFFINITY PREDICTED BY RF-SCORE:    0.00 PKD
ROOT
HETATM    1  C   UNL     1      -7.200   7.481  62.812  1.00  0.00    -0.085 C  
HETATM    2  C   UNL     1      -6.987   8.989  62.964  1.00  0.00    -0.088 C  
HETATM    3  C   UNL     1      -8.320   9.715  62.773  1.00  0.00    -0.162 C  
ENDROOT
BRANCH   2   4
HETATM    4  N   UNL     1      -6.414   9.246  64.288  1.00  0.00    -0.084 NA 
HETATM    5  H   UNL     1      -7.145   9.488  64.957  1.00  0.00     0.000 HD 
BRANCH   4   6
HETATM    6  C   UNL     1      -5.592   8.136  64.792  1.00  0.00    -0.044 C  
BRANCH   6   7
HETATM    7  C   UNL     1      -5.676   8.067  66.327  1.00  0.00    -0.040 C  
HETATM    8  O   UNL     1      -5.609   9.395  66.875  1.00  0.00    -0.045 OA 
HETATM    9  H   UNL     1      -5.661   9.351  67.823  1.00  0.00     0.000 HD 
BRANCH   7  10
HETATM   10  C   UNL     1      -6.975   7.391  66.787  1.00  0.00    -0.077 C  
BRANCH  10  11
HETATM   11  O   UNL     1      -7.380   7.961  68.040  1.00  0.00    -0.091 OA 
BRANCH  11  12
HETATM   12  C   UNL     1      -8.493   8.755  67.981  1.00  0.00    -0.126 A  
HETATM   13  C   UNL     1      -9.520   8.613  67.054  1.00  0.00    -0.221 A  
HETATM   14  C   UNL     1     -10.616   9.478  67.080  1.00  0.00    -0.295 A  
HETATM   15  C   UNL     1     -10.715  10.485  68.052  1.00  0.00    -0.287 A  
HETATM   16  C   UNL     1      -9.687  10.609  68.993  1.00  0.00    -0.214 A  
HETATM   17  C   UNL     1      -8.587   9.745  68.962  1.00  0.00    -0.146 A  
BRANCH  15  18
HETATM   18  C   UNL     1     -11.905  11.414  68.069  1.00  0.00    -0.273 C  
BRANCH  18  19
HETATM   19  C   UNL     1     -11.533  12.828  68.515  1.00  0.00    -0.309 C  
BRANCH  19  20
HETATM   20  O   UNL     1     -11.377  13.673  67.371  1.00  0.00    -0.291 OA 
BRANCH  20  21
HETATM   21  C   UNL     1     -10.042  14.174  67.297  1.00  0.00    -0.256 C  
BRANCH  21  22
HETATM   22  C   UNL     1      -9.822  15.148  68.408  1.00  0.00    -0.223 C  
HETATM   23  C   UNL     1      -9.518  16.589  68.080  1.00  0.00    -0.222 C  
HETATM   24  C   UNL     1     -10.834  16.225  68.708  1.00  0.00    -0.317 C  
ENDBRANCH  21  22
ENDBRANCH  20  21
ENDBRANCH  19  20
ENDBRANCH  18  19
ENDBRANCH  15  18
ENDBRANCH  11  12
ENDBRANCH  10  11
ENDBRANCH   7  10
ENDBRANCH   6   7
ENDBRANCH   4   6
ENDBRANCH   2   4
TORSDOF 11
ENDMDL
MODEL      332
REMARK 921   NORMALIZED FREE ENERGY PREDICTED BY IDOCK:   -2.00 KCAL/MOL
REMARK 922        TOTAL FREE ENERGY PREDICTED BY IDOCK:   -4.61 KCAL/MOL
REMARK 923 INTER-LIGAND FREE ENERGY PREDICTED BY IDOCK:   -3.27 KCAL/MOL
REMARK 924 INTRA-LIGAND FREE ENERGY PREDICTED BY IDOCK:   -1.34 KCAL/MOL
REMARK 927      BINDING AFFINITY PREDICTED BY RF-SCORE:    0.00 PKD
ROOT
HETATM    1  C   UNL     1      -8.800   8.393  62.333  1.00  0.00     0.083 C  
HETATM    2  C   UNL     1      -8.191   9.444  63.265  1.00  0.00    -0.166 C  
HETATM    3  C   UNL     1      -9.311  10.192  63.992  1.00  0.00    -0.339 C  
ENDROOT
BRANCH   2   4
HETATM    4  N   UNL     1      -7.292   8.768  64.204  1.00  0.00    -0.098 NA 
HETATM    5  H   UNL     1      -7.585   8.932  65.167  1.00  0.00     0.000 HD 
BRANCH   4   6
HETATM    6  C   UNL     1      -7.150   7.328  63.939  1.00  0.00    -0.068 C  
BRANCH   6   7
HETATM    7  C   UNL     1      -6.985   6.558  65.261  1.00  0.00    -0.052 C  
HETATM    8  O   UNL     1      -5.684   6.822  65.814  1.00  0.00    -0.028 OA 
HETATM    9  H   UNL     1      -5.582   6.346  66.630  1.00  0.00     0.000 HD 
BRANCH   7  10
HETATM   10  C   UNL     1      -8.061   6.958  66.280  1.00  0.00    -0.112 C  
BRANCH  10  11
HETATM   11  O   UNL     1      -7.546   8.006  67.116  1.00  0.00    -0.093 OA 
BRANCH  11  12
HETATM   12  C   UNL     1      -8.475   8.919  67.535  1.00  0.00    -0.116 A  
HETATM   13  C   UNL     1      -8.263  10.293  67.602  1.00  0.00    -0.114 A  
HETATM   14  C   UNL     1      -9.279  11.140  68.045  1.00  0.00    -0.159 A  
HETATM   15  C   UNL     1     -10.536  10.631  68.405  1.00  0.00    -0.231 A  
HETATM   16  C   UNL     1     -10.749   9.251  68.317  1.00  0.00    -0.195 A  
HETATM   17  C   UNL     1      -9.726   8.401  67.878  1.00  0.00    -0.189 A  
BRANCH  15  18
HETATM   18  C   UNL     1     -11.627  11.558  68.883  1.00  0.00    -0.384 C  
BRANCH  18  19
HETATM   19  C   UNL     1     -12.568  10.885  69.882  1.00  0.00    -0.144 C  
BRANCH  19  20
HETATM   20  O   UNL     1     -11.954  10.836  71.172  1.00  0.00    -0.329 OA 
BRANCH  20  21
HETATM   21  C   UNL     1     -12.865  10.315  72.141  1.00  0.00    -0.255 C  
BRANCH  21  22
HETATM   22  C   UNL     1     -12.579   8.864  72.350  1.00  0.00    -0.423 C  
HETATM   23  C   UNL     1     -11.400   8.233  71.652  1.00  0.00    -0.329 C  
HETATM   24  C   UNL     1     -11.379   8.414  73.144  1.00  0.00     0.472 C  
ENDBRANCH  21  22
ENDBRANCH  20  21
ENDBRANCH  19  20
ENDBRANCH  18  19
ENDBRANCH  15  18
ENDBRANCH  11  12
ENDBRANCH  10  11
ENDBRANCH   7  10
ENDBRANCH   6   7
ENDBRANCH   4   6
ENDBRANCH   2   4
TORSDOF 11
ENDMDL
MODEL      333
REMARK 921   NORMALIZED FREE ENERGY PREDICTED BY IDOCK:   -1.97 KCAL/MOL
REMARK 922        TOTAL FREE ENERGY PREDICTED BY IDOCK:   -4.55 KCAL/MOL
REMARK 923 INTER-LIGAND FREE ENERGY PREDICTED BY IDOCK:   -3.46 KCAL/MOL
REMARK 924 INTRA-LIGAND FREE ENERGY PREDICTED BY IDOCK:   -1.10 KCAL/MOL
REMARK 927      BINDING AFFINITY PREDICTED BY RF-SCORE:    0.00 PKD
ROOT
HETATM    1  C   UNL     1      -6.605  13.750  67.676  1.00  0.00    -0.181 C  
HETATM    2  C   UNL     1      -7.643  13.956  68.782  1.00  0.00    -0.108 C  
HETATM    3  C   UNL     1      -8.462  15.214  68.484  1.00  0.00    -0.160 C  
ENDROOT
BRANCH   2   4
HETATM    4  N   UNL     1      -8.489  12.762  68.853  1.00  0.00    -0.339 NA 
HETATM    5  H   UNL     1      -9.448  12.981  68.583  1.00  0.00     0.000 HD 
BRANCH   4   6
HETATM    6  C   UNL     1      -7.970  11.633  68.066  1.00  0.00    -0.132 C  
BRANCH   6   7
HETATM    7  C   UNL     1      -7.858  10.377  68.949  1.00  0.00    -0.115 C  
HETATM    8  O   UNL     1      -7.498  10.760  70.288  1.00  0.00    -0.441 OA 
HETATM    9  H   UNL     1      -7.429   9.984  70.833  1.00  0.00     0.000 HD 
BRANCH   7  10
HETATM   10  C   UNL     1      -9.178   9.595  68.980  1.00  0.00    -0.156 C  
BRANCH  10  11
HETATM   11  O   UNL     1      -9.340   9.005  70.278  1.00  0.00    -0.169 OA 
BRANCH  11  12
HETATM   12  C   UNL     1      -9.531   7.649  70.277  1.00  0.00    -0.161 A  
HETATM   13  C   UNL     1     -10.305   6.958  69.350  1.00  0.00    -0.220 A  
HETATM   14  C   UNL     1     -10.435   5.571  69.438  1.00  0.00    -0.360 A  
HETATM   15  C   UNL     1      -9.772   4.848  70.441  1.00  0.00    -0.284 A  
HETATM   16  C   UNL     1      -8.980   5.548  71.358  1.00  0.00    -0.150 A  
HETATM   17  C   UNL     1      -8.856   6.939  71.272  1.00  0.00    -0.135 A  
BRANCH  15  18
HETATM   18  C   UNL     1      -9.921   3.348  70.525  1.00  0.00     0.130 C  
BRANCH  18  19
HETATM   19  C   UNL     1      -8.999   2.615  69.550  1.00  0.00    -0.107 C  
BRANCH  19  20
HETATM   20  O   UNL     1      -7.993   3.509  69.067  1.00  0.00    -0.057 OA 
BRANCH  20  21
HETATM   21  C   UNL     1      -7.788   3.323  67.666  1.00  0.00    -0.076 C  
BRANCH  21  22
HETATM   22  C   UNL     1      -7.011   4.480  67.127  1.00  0.00    -0.060 C  
HETATM   23  C   UNL     1      -7.708   5.503  66.265  1.00  0.00    -0.099 C  
HETATM   24  C   UNL     1      -7.240   5.878  67.643  1.00  0.00    -0.076 C  
ENDBRANCH  21  22
ENDBRANCH  20  21
ENDBRANCH  19  20
ENDBRANCH  18  19
ENDBRANCH  15  18
ENDBRANCH  11  12
ENDBRANCH  10  11
ENDBRANCH   7  10
ENDBRANCH   6   7
ENDBRANCH   4   6
ENDBRANCH   2   4
TORSDOF 11
ENDMDL
MODEL      334
REMARK 921   NORMALIZED FREE ENERGY PREDICTED BY IDOCK:   -1.91 KCAL/MOL
REMARK 922        TOTAL FREE ENERGY PREDICTED BY IDOCK:   -4.47 KCAL/MOL
REMARK 923 INTER-LIGAND FREE ENERGY PREDICTED BY IDOCK:   -3.63 KCAL/MOL
REMARK 924 INTRA-LIGAND FREE ENERGY PREDICTED BY IDOCK:   -0.83 KCAL/MOL
REMARK 927      BINDING AFFINITY PREDICTED BY RF-SCORE:    0.00 PKD
ROOT
HETATM    1  C   UNL     1     -12.439   9.825  71.799  1.00  0.00    -0.485 C  
HETATM    2  C   UNL     1     -11.628   9.044  70.761  1.00  0.00    -0.265 C  
HETATM    3  C   UNL     1     -10.158   9.463  70.842  1.00  0.00    -0.366 C  
ENDROOT
BRANCH   2   4
HETATM    4  N   UNL     1     -11.800   7.612  71.019  1.00  0.00    -0.305 NA 
HETATM    5  H   UNL     1     -11.374   7.058  70.277  1.00  0.00     0.000 HD 
BRANCH   4   6
HETATM    6  C   UNL     1     -11.299   7.194  72.337  1.00  0.00    -0.274 C  
BRANCH   6   7
HETATM    7  C   UNL     1     -10.237   6.092  72.177  1.00  0.00    -0.192 C  
HETATM    8  O   UNL     1     -10.519   5.014  73.086  1.00  0.00    -0.177 OA 
HETATM    9  H   UNL     1      -9.863   4.334  72.987  1.00  0.00     0.000 HD 
BRANCH   7  10
HETATM   10  C   UNL     1     -10.205   5.551  70.741  1.00  0.00    -0.235 C  
BRANCH  10  11
HETATM   11  O   UNL     1     -10.123   4.118  70.783  1.00  0.00    -0.164 OA 
BRANCH  11  12
HETATM   12  C   UNL     1      -9.114   3.574  70.036  1.00  0.00    -0.126 A  
HETATM   13  C   UNL     1      -7.869   3.204  70.534  1.00  0.00    -0.045 A  
HETATM   14  C   UNL     1      -6.906   2.656  69.685  1.00  0.00    -0.034 A  
HETATM   15  C   UNL     1      -7.181   2.446  68.325  1.00  0.00    -0.048 A  
HETATM   16  C   UNL     1      -8.442   2.804  67.835  1.00  0.00    -0.103 A  
HETATM   17  C   UNL     1      -9.404   3.358  68.687  1.00  0.00    -0.232 A  
BRANCH  15  18
HETATM   18  C   UNL     1      -6.131   1.854  67.417  1.00  0.00    -0.020 C  
BRANCH  18  19
HETATM   19  C   UNL     1      -6.691   1.481  66.044  1.00  0.00    -0.027 C  
BRANCH  19  20
HETATM   20  O   UNL     1      -6.636   2.613  65.173  1.00  0.00    -0.033 OA 
BRANCH  20  21
HETATM   21  C   UNL     1      -7.680   2.547  64.200  1.00  0.00    -0.076 C  
BRANCH  21  22
HETATM   22  C   UNL     1      -8.504   3.791  64.281  1.00  0.00    -0.091 C  
HETATM   23  C   UNL     1      -9.401   4.160  63.126  1.00  0.00    -0.140 C  
HETATM   24  C   UNL     1     -10.003   3.721  64.431  1.00  0.00    -0.197 C  
ENDBRANCH  21  22
ENDBRANCH  20  21
ENDBRANCH  19  20
ENDBRANCH  18  19
ENDBRANCH  15  18
ENDBRANCH  11  12
ENDBRANCH  10  11
ENDBRANCH   7  10
ENDBRANCH   6   7
ENDBRANCH   4   6
ENDBRANCH   2   4
TORSDOF 11
ENDMDL
MODEL      335
REMARK 921   NORMALIZED FREE ENERGY PREDICTED BY IDOCK:   -1.79 KCAL/MOL
REMARK 922        TOTAL FREE ENERGY PREDICTED BY IDOCK:   -4.26 KCAL/MOL
REMARK 923 INTER-LIGAND FREE ENERGY PREDICTED BY IDOCK:   -4.09 KCAL/MOL
REMARK 924 INTRA-LIGAND FREE ENERGY PREDICTED BY IDOCK:   -0.17 KCAL/MOL
REMARK 927      BINDING AFFINITY PREDICTED BY RF-SCORE:    0.00 PKD
ROOT
HETATM    1  C   UNL     1      -9.940   6.717  70.592  1.00  0.00    -0.201 C  
HETATM    2  C   UNL     1      -9.587   7.601  71.790  1.00  0.00    -0.149 C  
HETATM    3  C   UNL     1      -8.648   6.838  72.728  1.00  0.00    -0.129 C  
ENDROOT
BRANCH   2   4
HETATM    4  N   UNL     1      -8.972   8.834  71.293  1.00  0.00    -0.211 NA 
HETATM    5  H   UNL     1      -8.220   8.625  70.637  1.00  0.00     0.000 HD 
BRANCH   4   6
HETATM    6  C   UNL     1      -9.941   9.767  70.698  1.00  0.00    -0.146 C  
BRANCH   6   7
HETATM    7  C   UNL     1     -10.225   9.377  69.236  1.00  0.00    -0.202 C  
HETATM    8  O   UNL     1     -11.209  10.267  68.682  1.00  0.00    -0.326 OA 
HETATM    9  H   UNL     1     -11.384  10.026  67.779  1.00  0.00     0.000 HD 
BRANCH   7  10
HETATM   10  C   UNL     1      -8.950   9.432  68.384  1.00  0.00    -0.128 C  
BRANCH  10  11
HETATM   11  O   UNL     1      -8.014  10.327  69.002  1.00  0.00    -0.105 OA 
BRANCH  11  12
HETATM   12  C   UNL     1      -8.026  11.605  68.512  1.00  0.00    -0.144 A  
HETATM   13  C   UNL     1      -7.469  12.706  69.154  1.00  0.00     0.193 A  
HETATM   14  C   UNL     1      -7.536  13.970  68.566  1.00  0.00    -0.124 A  
HETATM   15  C   UNL     1      -8.139  14.151  67.312  1.00  0.00    -0.188 A  
HETATM   16  C   UNL     1      -8.680  13.035  66.664  1.00  0.00    -0.030 A  
HETATM   17  C   UNL     1      -8.618  11.769  67.257  1.00  0.00    -0.162 A  
BRANCH  15  18
HETATM   18  C   UNL     1      -8.205  15.523  66.688  1.00  0.00    -0.244 C  
BRANCH  18  19
HETATM   19  C   UNL     1      -8.072  16.641  67.722  1.00  0.00    -0.176 C  
BRANCH  19  20
HETATM   20  O   UNL     1      -8.418  17.895  67.130  1.00  0.00    -0.225 OA 
BRANCH  20  21
HETATM   21  C   UNL     1      -9.425  17.717  66.133  1.00  0.00    -0.159 C  
BRANCH  21  22
HETATM   22  C   UNL     1     -10.635  18.509  66.512  1.00  0.00    -0.375 C  
HETATM   23  C   UNL     1     -10.700  19.154  67.874  1.00  0.00    -0.396 C  
HETATM   24  C   UNL     1     -10.571  20.009  66.645  1.00  0.00    -0.461 C  
ENDBRANCH  21  22
ENDBRANCH  20  21
ENDBRANCH  19  20
ENDBRANCH  18  19
ENDBRANCH  15  18
ENDBRANCH  11  12
ENDBRANCH  10  11
ENDBRANCH   7  10
ENDBRANCH   6   7
ENDBRANCH   4   6
ENDBRANCH   2   4
TORSDOF 11
ENDMDL
MODEL      336
REMARK 921   NORMALIZED FREE ENERGY PREDICTED BY IDOCK:   -1.60 KCAL/MOL
REMARK 922        TOTAL FREE ENERGY PREDICTED BY IDOCK:   -3.94 KCAL/MOL
REMARK 923 INTER-LIGAND FREE ENERGY PREDICTED BY IDOCK:   -3.54 KCAL/MOL
REMARK 924 INTRA-LIGAND FREE ENERGY PREDICTED BY IDOCK:   -0.41 KCAL/MOL
REMARK 927      BINDING AFFINITY PREDICTED BY RF-SCORE:    0.00 PKD
ROOT
HETATM    1  C   UNL     1     -12.233   9.849  71.699  1.00  0.00    -0.482 C  
HETATM    2  C   UNL     1     -11.512   8.975  70.670  1.00  0.00    -0.248 C  
HETATM    3  C   UNL     1     -10.001   9.184  70.793  1.00  0.00    -0.334 C  
ENDROOT
BRANCH   2   4
HETATM    4  N   UNL     1     -11.887   7.578  70.901  1.00  0.00    -0.360 NA 
HETATM    5  H   UNL     1     -11.336   6.953  70.313  1.00  0.00     0.000 HD 
BRANCH   4   6
HETATM    6  C   UNL     1     -11.799   7.178  72.314  1.00  0.00    -0.239 C  
BRANCH   6   7
HETATM    7  C   UNL     1     -10.883   5.951  72.463  1.00  0.00    -0.247 C  
HETATM    8  O   UNL     1     -11.595   4.895  73.129  1.00  0.00    -0.341 OA 
HETATM    9  H   UNL     1     -11.029   4.137  73.221  1.00  0.00     0.000 HD 
BRANCH   7  10
HETATM   10  C   UNL     1     -10.390   5.452  71.098  1.00  0.00    -0.235 C  
BRANCH  10  11
HETATM   11  O   UNL     1      -8.967   5.271  71.153  1.00  0.00    -0.136 OA 
BRANCH  11  12
HETATM   12  C   UNL     1      -8.274   5.827  70.111  1.00  0.00    -0.116 A  
HETATM   13  C   UNL     1      -7.704   7.095  70.125  1.00  0.00    -0.095 A  
HETATM   14  C   UNL     1      -7.016   7.569  69.007  1.00  0.00    -0.073 A  
HETATM   15  C   UNL     1      -6.863   6.771  67.864  1.00  0.00    -0.077 A  
HETATM   16  C   UNL     1      -7.423   5.488  67.864  1.00  0.00    -0.080 A  
HETATM   17  C   UNL     1      -8.118   5.017  68.984  1.00  0.00    -0.084 A  
BRANCH  15  18
HETATM   18  C   UNL     1      -6.117   7.295  66.661  1.00  0.00    -0.039 C  
BRANCH  18  19
HETATM   19  C   UNL     1      -6.258   6.380  65.444  1.00  0.00    -0.034 C  
BRANCH  19  20
HETATM   20  O   UNL     1      -7.223   6.921  64.539  1.00  0.00    -0.064 OA 
BRANCH  20  21
HETATM   21  C   UNL     1      -8.356   6.056  64.439  1.00  0.00    -0.021 C  
BRANCH  21  22
HETATM   22  C   UNL     1      -8.240   5.240  63.193  1.00  0.00    -0.110 C  
HETATM   23  C   UNL     1      -6.920   4.595  62.851  1.00  0.00    -0.038 C  
HETATM   24  C   UNL     1      -8.088   3.741  63.258  1.00  0.00    -0.084 C  
ENDBRANCH  21  22
ENDBRANCH  20  21
ENDBRANCH  19  20
ENDBRANCH  18  19
ENDBRANCH  15  18
ENDBRANCH  11  12
ENDBRANCH  10  11
ENDBRANCH   7  10
ENDBRANCH   6   7
ENDBRANCH   4   6
ENDBRANCH   2   4
TORSDOF 11
ENDMDL
MODEL      337
REMARK 921   NORMALIZED FREE ENERGY PREDICTED BY IDOCK:   -1.27 KCAL/MOL
REMARK 922        TOTAL FREE ENERGY PREDICTED BY IDOCK:   -3.41 KCAL/MOL
REMARK 923 INTER-LIGAND FREE ENERGY PREDICTED BY IDOCK:   -2.57 KCAL/MOL
REMARK 924 INTRA-LIGAND FREE ENERGY PREDICTED BY IDOCK:   -0.84 KCAL/MOL
REMARK 927      BINDING AFFINITY PREDICTED BY RF-SCORE:    0.00 PKD
ROOT
HETATM    1  C   UNL     1      -6.958  14.041  67.732  1.00  0.00    -0.188 C  
HETATM    2  C   UNL     1      -8.174  14.542  68.516  1.00  0.00    -0.154 C  
HETATM    3  C   UNL     1      -8.694  15.833  67.881  1.00  0.00    -0.170 C  
ENDROOT
BRANCH   2   4
HETATM    4  N   UNL     1      -9.192  13.489  68.518  1.00  0.00    -0.337 NA 
HETATM    5  H   UNL     1     -10.123  13.885  68.648  1.00  0.00     0.000 HD 
BRANCH   4   6
HETATM    6  C   UNL     1      -9.150  12.637  67.319  1.00  0.00    -0.191 C  
BRANCH   6   7
HETATM    7  C   UNL     1      -9.607  11.209  67.666  1.00  0.00    -0.170 C  
HETATM    8  O   UNL     1      -9.469  10.364  66.511  1.00  0.00    -0.160 OA 
HETATM    9  H   UNL     1      -9.752   9.482  66.726  1.00  0.00     0.000 HD 
BRANCH   7  10
HETATM   10  C   UNL     1      -8.788  10.625  68.825  1.00  0.00    -0.161 C  
BRANCH  10  11
HETATM   11  O   UNL     1      -7.521  10.178  68.322  1.00  0.00    -0.081 OA 
BRANCH  11  12
HETATM   12  C   UNL     1      -7.173   8.903  68.682  1.00  0.00    -0.072 A  
HETATM   13  C   UNL     1      -7.840   8.138  69.633  1.00  0.00    -0.103 A  
HETATM   14  C   UNL     1      -7.403   6.846  69.927  1.00  0.00    -0.088 A  
HETATM   15  C   UNL     1      -6.306   6.286  69.256  1.00  0.00    -0.035 A  
HETATM   16  C   UNL     1      -5.652   7.054  68.286  1.00  0.00    -0.021 A  
HETATM   17  C   UNL     1      -6.087   8.353  67.997  1.00  0.00    -0.051 A  
BRANCH  15  18
HETATM   18  C   UNL     1      -5.843   4.887  69.583  1.00  0.00    -0.017 C  
BRANCH  18  19
HETATM   19  C   UNL     1      -6.900   3.832  69.255  1.00  0.00    -0.045 C  
BRANCH  19  20
HETATM   20  O   UNL     1      -7.933   4.412  68.455  1.00  0.00    -0.078 OA 
BRANCH  20  21
HETATM   21  C   UNL     1      -7.907   3.869  67.134  1.00  0.00    -0.088 C  
BRANCH  21  22
HETATM   22  C   UNL     1      -8.662   4.775  66.217  1.00  0.00    -0.114 C  
HETATM   23  C   UNL     1      -7.953   5.947  65.585  1.00  0.00    -0.118 C  
HETATM   24  C   UNL     1      -8.387   4.786  64.735  1.00  0.00    -0.132 C  
ENDBRANCH  21  22
ENDBRANCH  20  21
ENDBRANCH  19  20
ENDBRANCH  18  19
ENDBRANCH  15  18
ENDBRANCH  11  12
ENDBRANCH  10  11
ENDBRANCH   7  10
ENDBRANCH   6   7
ENDBRANCH   4   6
ENDBRANCH   2   4
TORSDOF 11
ENDMDL
MODEL      338
REMARK 921   NORMALIZED FREE ENERGY PREDICTED BY IDOCK:   -1.07 KCAL/MOL
REMARK 922        TOTAL FREE ENERGY PREDICTED BY IDOCK:   -3.08 KCAL/MOL
REMARK 923 INTER-LIGAND FREE ENERGY PREDICTED BY IDOCK:   -2.67 KCAL/MOL
REMARK 924 INTRA-LIGAND FREE ENERGY PREDICTED BY IDOCK:   -0.41 KCAL/MOL
REMARK 927      BINDING AFFINITY PREDICTED BY RF-SCORE:    0.00 PKD
ROOT
HETATM    1  C   UNL     1      -5.134  14.420  69.083  1.00  0.00    -0.079 C  
HETATM    2  C   UNL     1      -5.906  13.454  69.986  1.00  0.00    -0.132 C  
HETATM    3  C   UNL     1      -6.537  14.230  71.144  1.00  0.00     0.533 C  
ENDROOT
BRANCH   2   4
HETATM    4  N   UNL     1      -6.917  12.769  69.177  1.00  0.00    -0.252 NA 
HETATM    5  H   UNL     1      -7.558  12.241  69.769  1.00  0.00     0.000 HD 
BRANCH   4   6
HETATM    6  C   UNL     1      -7.656  13.673  68.282  1.00  0.00    -0.130 C  
BRANCH   6   7
HETATM    7  C   UNL     1      -8.717  12.887  67.492  1.00  0.00    -0.190 C  
HETATM    8  O   UNL     1      -8.210  11.581  67.169  1.00  0.00    -0.147 OA 
HETATM    9  H   UNL     1      -8.865  11.096  66.682  1.00  0.00     0.000 HD 
BRANCH   7  10
HETATM   10  C   UNL     1     -10.019  12.745  68.292  1.00  0.00    -0.230 C  
BRANCH  10  11
HETATM   11  O   UNL     1      -9.728  12.119  69.550  1.00  0.00     0.686 OA 
BRANCH  11  12
HETATM   12  C   UNL     1     -10.562  11.088  69.890  1.00  0.00     0.106 A  
HETATM   13  C   UNL     1     -11.945  11.188  69.993  1.00  0.00    -0.447 A  
HETATM   14  C   UNL     1     -12.706  10.073  70.347  1.00  0.00    -0.111 A  
HETATM   15  C   UNL     1     -12.098   8.831  70.581  1.00  0.00    -0.011 A  
HETATM   16  C   UNL     1     -10.708   8.733  70.458  1.00  0.00    -0.259 A  
HETATM   17  C   UNL     1      -9.945   9.854  70.108  1.00  0.00    -0.291 A  
BRANCH  15  18
HETATM   18  C   UNL     1     -12.932   7.633  70.964  1.00  0.00    -0.113 C  
BRANCH  18  19
HETATM   19  C   UNL     1     -12.162   6.642  71.838  1.00  0.00    -0.335 C  
BRANCH  19  20
HETATM   20  O   UNL     1     -11.372   7.351  72.796  1.00  0.00    -0.321 OA 
BRANCH  20  21
HETATM   21  C   UNL     1     -10.299   6.532  73.263  1.00  0.00    -0.241 C  
BRANCH  21  22
HETATM   22  C   UNL     1     -10.415   5.175  72.649  1.00  0.00    -0.262 C  
HETATM   23  C   UNL     1      -9.359   4.138  72.942  1.00  0.00    -0.138 C  
HETATM   24  C   UNL     1     -10.749   3.969  73.489  1.00  0.00    -0.306 C  
ENDBRANCH  21  22
ENDBRANCH  20  21
ENDBRANCH  19  20
ENDBRANCH  18  19
ENDBRANCH  15  18
ENDBRANCH  11  12
ENDBRANCH  10  11
ENDBRANCH   7  10
ENDBRANCH   6   7
ENDBRANCH   4   6
ENDBRANCH   2   4
TORSDOF 11
ENDMDL
MODEL      339
REMARK 921   NORMALIZED FREE ENERGY PREDICTED BY IDOCK:   -0.71 KCAL/MOL
REMARK 922        TOTAL FREE ENERGY PREDICTED BY IDOCK:   -2.49 KCAL/MOL
REMARK 923 INTER-LIGAND FREE ENERGY PREDICTED BY IDOCK:   -1.96 KCAL/MOL
REMARK 924 INTRA-LIGAND FREE ENERGY PREDICTED BY IDOCK:   -0.53 KCAL/MOL
REMARK 927      BINDING AFFINITY PREDICTED BY RF-SCORE:    0.00 PKD
ROOT
HETATM    1  C   UNL     1      -6.401  13.622  67.683  1.00  0.00    -0.149 C  
HETATM    2  C   UNL     1      -7.569  13.615  68.672  1.00  0.00    -0.115 C  
HETATM    3  C   UNL     1      -8.542  14.743  68.322  1.00  0.00    -0.164 C  
ENDROOT
BRANCH   2   4
HETATM    4  N   UNL     1      -8.217  12.302  68.617  1.00  0.00    -0.321 NA 
HETATM    5  H   UNL     1      -9.200  12.373  68.882  1.00  0.00     0.000 HD 
BRANCH   4   6
HETATM    6  C   UNL     1      -8.073  11.636  67.314  1.00  0.00    -0.160 C  
BRANCH   6   7
HETATM    7  C   UNL     1      -7.448  10.242  67.496  1.00  0.00    -0.090 C  
HETATM    8  O   UNL     1      -6.033  10.311  67.251  1.00  0.00    -0.052 OA 
HETATM    9  H   UNL     1      -5.648   9.450  67.364  1.00  0.00     0.000 HD 
BRANCH   7  10
HETATM   10  C   UNL     1      -7.694   9.699  68.911  1.00  0.00    -0.077 C  
BRANCH  10  11
HETATM   11  O   UNL     1      -6.471   9.143  69.417  1.00  0.00    -0.043 OA 
BRANCH  11  12
HETATM   12  C   UNL     1      -6.597   7.918  70.013  1.00  0.00    -0.037 A  
HETATM   13  C   UNL     1      -7.697   7.508  70.760  1.00  0.00    -0.083 A  
HETATM   14  C   UNL     1      -7.725   6.233  71.327  1.00  0.00    -0.103 A  
HETATM   15  C   UNL     1      -6.664   5.336  71.137  1.00  0.00    -0.044 A  
HETATM   16  C   UNL     1      -5.570   5.748  70.369  1.00  0.00    -0.013 A  
HETATM   17  C   UNL     1      -5.540   7.029  69.806  1.00  0.00    -0.022 A  
BRANCH  15  18
HETATM   18  C   UNL     1      -6.707   3.960  71.757  1.00  0.00    -0.023 C  
BRANCH  18  19
HETATM   19  C   UNL     1      -7.379   2.932  70.846  1.00  0.00    -0.033 C  
BRANCH  19  20
HETATM   20  O   UNL     1      -7.288   3.357  69.484  1.00  0.00    -0.045 OA 
BRANCH  20  21
HETATM   21  C   UNL     1      -8.511   3.091  68.795  1.00  0.00    -0.068 C  
BRANCH  21  22
HETATM   22  C   UNL     1      -8.451   3.710  67.436  1.00  0.00    -0.103 C  
HETATM   23  C   UNL     1      -8.179   2.837  66.236  1.00  0.00    -0.086 C  
HETATM   24  C   UNL     1      -9.535   3.458  66.420  1.00  0.00    -0.135 C  
ENDBRANCH  21  22
ENDBRANCH  20  21
ENDBRANCH  19  20
ENDBRANCH  18  19
ENDBRANCH  15  18
ENDBRANCH  11  12
ENDBRANCH  10  11
ENDBRANCH   7  10
ENDBRANCH   6   7
ENDBRANCH   4   6
ENDBRANCH   2   4
TORSDOF 11
ENDMDL
MODEL      340
REMARK 921   NORMALIZED FREE ENERGY PREDICTED BY IDOCK:   -0.70 KCAL/MOL
REMARK 922        TOTAL FREE ENERGY PREDICTED BY IDOCK:   -2.48 KCAL/MOL
REMARK 923 INTER-LIGAND FREE ENERGY PREDICTED BY IDOCK:   -2.55 KCAL/MOL
REMARK 924 INTRA-LIGAND FREE ENERGY PREDICTED BY IDOCK:    0.07 KCAL/MOL
REMARK 927      BINDING AFFINITY PREDICTED BY RF-SCORE:    0.00 PKD
ROOT
HETATM    1  C   UNL     1      -7.695  15.310  69.703  1.00  0.00    -0.161 C  
HETATM    2  C   UNL     1      -6.596  16.225  69.156  1.00  0.00    -0.185 C  
HETATM    3  C   UNL     1      -5.413  16.239  70.127  1.00  0.00    -0.182 C  
ENDROOT
BRANCH   2   4
HETATM    4  N   UNL     1      -6.205  15.739  67.830  1.00  0.00    -0.129 NA 
HETATM    5  H   UNL     1      -5.917  16.513  67.232  1.00  0.00     0.000 HD 
BRANCH   4   6
HETATM    6  C   UNL     1      -5.166  14.699  67.875  1.00  0.00    -0.065 C  
BRANCH   6   7
HETATM    7  C   UNL     1      -5.801  13.306  67.721  1.00  0.00    -0.132 C  
HETATM    8  O   UNL     1      -5.606  12.550  68.928  1.00  0.00    -0.061 OA 
HETATM    9  H   UNL     1      -5.999  11.690  68.833  1.00  0.00     0.000 HD 
BRANCH   7  10
HETATM   10  C   UNL     1      -7.303  13.406  67.420  1.00  0.00    -0.112 C  
BRANCH  10  11
HETATM   11  O   UNL     1      -8.011  12.490  68.267  1.00  0.00    -0.141 OA 
BRANCH  11  12
HETATM   12  C   UNL     1      -8.155  11.227  67.760  1.00  0.00    -0.119 A  
HETATM   13  C   UNL     1      -7.778  10.061  68.419  1.00  0.00    -0.084 A  
HETATM   14  C   UNL     1      -7.968   8.818  67.812  1.00  0.00    -0.106 A  
HETATM   15  C   UNL     1      -8.562   8.719  66.545  1.00  0.00    -0.126 A  
HETATM   16  C   UNL     1      -8.956   9.895  65.897  1.00  0.00    -0.183 A  
HETATM   17  C   UNL     1      -8.759  11.140  66.504  1.00  0.00    -0.174 A  
BRANCH  15  18
HETATM   18  C   UNL     1      -8.762   7.369  65.899  1.00  0.00    -0.161 C  
BRANCH  18  19
HETATM   19  C   UNL     1      -9.322   6.334  66.875  1.00  0.00    -0.136 C  
BRANCH  19  20
HETATM   20  O   UNL     1      -8.411   5.240  66.999  1.00  0.00    -0.108 OA 
BRANCH  20  21
HETATM   21  C   UNL     1      -8.313   4.823  68.362  1.00  0.00    -0.090 C  
BRANCH  21  22
HETATM   22  C   UNL     1      -6.881   4.870  68.786  1.00  0.00    -0.051 C  
HETATM   23  C   UNL     1      -5.802   4.527  67.789  1.00  0.00    -0.022 C  
HETATM   24  C   UNL     1      -5.953   5.942  68.272  1.00  0.00    -0.020 C  
ENDBRANCH  21  22
ENDBRANCH  20  21
ENDBRANCH  19  20
ENDBRANCH  18  19
ENDBRANCH  15  18
ENDBRANCH  11  12
ENDBRANCH  10  11
ENDBRANCH   7  10
ENDBRANCH   6   7
ENDBRANCH   4   6
ENDBRANCH   2   4
TORSDOF 11
ENDMDL
MODEL      341
REMARK 921   NORMALIZED FREE ENERGY PREDICTED BY IDOCK:   -0.62 KCAL/MOL
REMARK 922        TOTAL FREE ENERGY PREDICTED BY IDOCK:   -2.35 KCAL/MOL
REMARK 923 INTER-LIGAND FREE ENERGY PREDICTED BY IDOCK:   -3.26 KCAL/MOL
REMARK 924 INTRA-LIGAND FREE ENERGY PREDICTED BY IDOCK:    0.92 KCAL/MOL
REMARK 927      BINDING AFFINITY PREDICTED BY RF-SCORE:    0.00 PKD
ROOT
HETATM    1  C   UNL     1      -9.841   6.764  71.145  1.00  0.00    -0.188 C  
HETATM    2  C   UNL     1     -10.917   5.888  70.497  1.00  0.00    -0.292 C  
HETATM    3  C   UNL     1     -12.256   6.629  70.512  1.00  0.00    -0.209 C  
ENDROOT
BRANCH   2   4
HETATM    4  N   UNL     1     -10.492   5.561  69.134  1.00  0.00    -0.250 NA 
HETATM    5  H   UNL     1     -10.958   6.164  68.456  1.00  0.00     0.000 HD 
BRANCH   4   6
HETATM    6  C   UNL     1      -9.033   5.603  68.953  1.00  0.00    -0.111 C  
BRANCH   6   7
HETATM    7  C   UNL     1      -8.477   4.176  68.796  1.00  0.00    -0.083 C  
HETATM    8  O   UNL     1      -9.517   3.220  69.064  1.00  0.00    -0.163 OA 
HETATM    9  H   UNL     1      -9.173   2.340  68.967  1.00  0.00     0.000 HD 
BRANCH   7  10
HETATM   10  C   UNL     1      -7.923   3.944  67.384  1.00  0.00    -0.091 C  
BRANCH  10  11
HETATM   11  O   UNL     1      -8.730   4.666  66.442  1.00  0.00    -0.112 OA 
BRANCH  11  12
HETATM   12  C   UNL     1      -8.125   5.758  65.880  1.00  0.00    -0.113 A  
HETATM   13  C   UNL     1      -8.800   6.839  65.322  1.00  0.00     0.146 A  
HETATM   14  C   UNL     1      -8.087   7.906  64.773  1.00  0.00    -0.141 A  
HETATM   15  C   UNL     1      -6.684   7.922  64.796  1.00  0.00    -0.051 A  
HETATM   16  C   UNL     1      -6.013   6.841  65.377  1.00  0.00    -0.035 A  
HETATM   17  C   UNL     1      -6.729   5.768  65.921  1.00  0.00    -0.056 A  
BRANCH  15  18
HETATM   18  C   UNL     1      -5.925   9.082  64.199  1.00  0.00    -0.071 C  
BRANCH  18  19
HETATM   19  C   UNL     1      -6.837  10.049  63.444  1.00  0.00    -0.132 C  
BRANCH  19  20
HETATM   20  O   UNL     1      -7.883   9.323  62.794  1.00  0.00    -0.117 OA 
BRANCH  20  21
HETATM   21  C   UNL     1      -8.913  10.211  62.358  1.00  0.00    -0.268 C  
BRANCH  21  22
HETATM   22  C   UNL     1      -9.855  10.461  63.491  1.00  0.00    -0.268 C  
HETATM   23  C   UNL     1      -9.361  11.188  64.717  1.00  0.00    -0.209 C  
HETATM   24  C   UNL     1     -10.347  11.852  63.798  1.00  0.00    -0.451 C  
ENDBRANCH  21  22
ENDBRANCH  20  21
ENDBRANCH  19  20
ENDBRANCH  18  19
ENDBRANCH  15  18
ENDBRANCH  11  12
ENDBRANCH  10  11
ENDBRANCH   7  10
ENDBRANCH   6   7
ENDBRANCH   4   6
ENDBRANCH   2   4
TORSDOF 11
ENDMDL
MODEL      342
REMARK 921   NORMALIZED FREE ENERGY PREDICTED BY IDOCK:   -0.17 KCAL/MOL
REMARK 922        TOTAL FREE ENERGY PREDICTED BY IDOCK:   -1.61 KCAL/MOL
REMARK 923 INTER-LIGAND FREE ENERGY PREDICTED BY IDOCK:   -2.35 KCAL/MOL
REMARK 924 INTRA-LIGAND FREE ENERGY PREDICTED BY IDOCK:    0.74 KCAL/MOL
REMARK 927      BINDING AFFINITY PREDICTED BY RF-SCORE:    0.00 PKD
ROOT
HETATM    1  C   UNL     1      -9.928   6.742  71.055  1.00  0.00    -0.196 C  
HETATM    2  C   UNL     1     -11.053   6.035  70.296  1.00  0.00    -0.345 C  
HETATM    3  C   UNL     1     -12.390   6.702  70.627  1.00  0.00    -0.161 C  
ENDROOT
BRANCH   2   4
HETATM    4  N   UNL     1     -10.757   6.097  68.862  1.00  0.00    -0.278 NA 
HETATM    5  H   UNL     1     -11.253   6.872  68.423  1.00  0.00     0.000 HD 
BRANCH   4   6
HETATM    6  C   UNL     1      -9.317   6.166  68.568  1.00  0.00    -0.117 C  
BRANCH   6   7
HETATM    7  C   UNL     1      -8.868   4.900  67.817  1.00  0.00    -0.104 C  
HETATM    8  O   UNL     1      -9.963   3.972  67.736  1.00  0.00    -0.084 OA 
HETATM    9  H   UNL     1      -9.685   3.191  67.272  1.00  0.00     0.000 HD 
BRANCH   7  10
HETATM   10  C   UNL     1      -8.377   5.234  66.402  1.00  0.00    -0.109 C  
BRANCH  10  11
HETATM   11  O   UNL     1      -9.063   6.405  65.934  1.00  0.00    -0.138 OA 
BRANCH  11  12
HETATM   12  C   UNL     1      -8.278   7.518  65.796  1.00  0.00    -0.137 A  
HETATM   13  C   UNL     1      -7.570   8.123  66.829  1.00  0.00    -0.094 A  
HETATM   14  C   UNL     1      -6.796   9.258  66.581  1.00  0.00    -0.080 A  
HETATM   15  C   UNL     1      -6.697   9.793  65.288  1.00  0.00    -0.099 A  
HETATM   16  C   UNL     1      -7.396   9.168  64.250  1.00  0.00    -0.104 A  
HETATM   17  C   UNL     1      -8.176   8.033  64.502  1.00  0.00    -0.097 A  
BRANCH  15  18
HETATM   18  C   UNL     1      -5.857  11.021  65.034  1.00  0.00     0.269 C  
BRANCH  18  19
HETATM   19  C   UNL     1      -5.202  11.554  66.309  1.00  0.00    -0.034 C  
BRANCH  19  20
HETATM   20  O   UNL     1      -6.186  12.185  67.133  1.00  0.00    -0.145 OA 
BRANCH  20  21
HETATM   21  C   UNL     1      -5.899  11.961  68.514  1.00  0.00    -0.049 C  
BRANCH  21  22
HETATM   22  C   UNL     1      -6.341  10.583  68.888  1.00  0.00    -0.047 C  
HETATM   23  C   UNL     1      -5.686   9.887  70.056  1.00  0.00    -0.044 C  
HETATM   24  C   UNL     1      -7.117  10.334  70.157  1.00  0.00    -0.154 C  
ENDBRANCH  21  22
ENDBRANCH  20  21
ENDBRANCH  19  20
ENDBRANCH  18  19
ENDBRANCH  15  18
ENDBRANCH  11  12
ENDBRANCH  10  11
ENDBRANCH   7  10
ENDBRANCH   6   7
ENDBRANCH   4   6
ENDBRANCH   2   4
TORSDOF 11
ENDMDL
MODEL      343
REMARK 921   NORMALIZED FREE ENERGY PREDICTED BY IDOCK:    0.41 KCAL/MOL
REMARK 922        TOTAL FREE ENERGY PREDICTED BY IDOCK:   -0.65 KCAL/MOL
REMARK 923 INTER-LIGAND FREE ENERGY PREDICTED BY IDOCK:   -1.13 KCAL/MOL
REMARK 924 INTRA-LIGAND FREE ENERGY PREDICTED BY IDOCK:    0.48 KCAL/MOL
REMARK 927      BINDING AFFINITY PREDICTED BY RF-SCORE:    0.00 PKD
ROOT
HETATM    1  C   UNL     1      -7.673  15.297  69.618  1.00  0.00    -0.161 C  
HETATM    2  C   UNL     1      -6.676  16.325  69.077  1.00  0.00    -0.182 C  
HETATM    3  C   UNL     1      -5.376  16.248  69.881  1.00  0.00    -0.154 C  
ENDROOT
BRANCH   2   4
HETATM    4  N   UNL     1      -6.451  16.050  67.656  1.00  0.00    -0.150 NA 
HETATM    5  H   UNL     1      -6.244  16.911  67.149  1.00  0.00     0.000 HD 
BRANCH   4   6
HETATM    6  C   UNL     1      -5.410  15.039  67.416  1.00  0.00     0.310 C  
BRANCH   6   7
HETATM    7  C   UNL     1      -6.049  13.651  67.231  1.00  0.00     0.383 C  
HETATM    8  O   UNL     1      -5.166  12.812  66.467  1.00  0.00    -0.042 OA 
HETATM    9  H   UNL     1      -5.561  11.955  66.354  1.00  0.00     0.000 HD 
BRANCH   7  10
HETATM   10  C   UNL     1      -6.342  12.986  68.583  1.00  0.00    -0.083 C  
BRANCH  10  11
HETATM   11  O   UNL     1      -5.850  11.638  68.556  1.00  0.00    -0.049 OA 
BRANCH  11  12
HETATM   12  C   UNL     1      -6.714  10.718  68.025  1.00  0.00    -0.064 A  
HETATM   13  C   UNL     1      -6.412   9.865  66.969  1.00  0.00    -0.069 A  
HETATM   14  C   UNL     1      -7.367   8.961  66.501  1.00  0.00    -0.085 A  
HETATM   15  C   UNL     1      -8.634   8.877  67.099  1.00  0.00    -0.112 A  
HETATM   16  C   UNL     1      -8.923   9.726  68.173  1.00  0.00    -0.119 A  
HETATM   17  C   UNL     1      -7.966  10.636  68.637  1.00  0.00    -0.128 A  
BRANCH  15  18
HETATM   18  C   UNL     1      -9.658   7.896  66.583  1.00  0.00    -0.293 C  
BRANCH  18  19
HETATM   19  C   UNL     1      -9.058   6.514  66.318  1.00  0.00    -0.148 C  
BRANCH  19  20
HETATM   20  O   UNL     1      -9.175   6.192  64.930  1.00  0.00     0.330 OA 
BRANCH  20  21
HETATM   21  C   UNL     1      -7.981   5.565  64.460  1.00  0.00    -0.119 C  
BRANCH  21  22
HETATM   22  C   UNL     1      -7.412   6.373  63.339  1.00  0.00    -0.073 C  
HETATM   23  C   UNL     1      -8.346   7.088  62.394  1.00  0.00    -0.003 C  
HETATM   24  C   UNL     1      -7.495   7.879  63.348  1.00  0.00    -0.122 C  
ENDBRANCH  21  22
ENDBRANCH  20  21
ENDBRANCH  19  20
ENDBRANCH  18  19
ENDBRANCH  15  18
ENDBRANCH  11  12
ENDBRANCH  10  11
ENDBRANCH   7  10
ENDBRANCH   6   7
ENDBRANCH   4   6
ENDBRANCH   2   4
TORSDOF 11
ENDMDL
MODEL      344
REMARK 921   NORMALIZED FREE ENERGY PREDICTED BY IDOCK:    0.55 KCAL/MOL
REMARK 922        TOTAL FREE ENERGY PREDICTED BY IDOCK:   -0.42 KCAL/MOL
REMARK 923 INTER-LIGAND FREE ENERGY PREDICTED BY IDOCK:   -2.41 KCAL/MOL
REMARK 924 INTRA-LIGAND FREE ENERGY PREDICTED BY IDOCK:    1.99 KCAL/MOL
REMARK 927      BINDING AFFINITY PREDICTED BY RF-SCORE:    0.00 PKD
ROOT
HETATM    1  C   UNL     1      -9.930   6.750  71.054  1.00  0.00    -0.196 C  
HETATM    2  C   UNL     1     -11.023   6.026  70.265  1.00  0.00    -0.342 C  
HETATM    3  C   UNL     1     -12.389   6.616  70.624  1.00  0.00    -0.161 C  
ENDROOT
BRANCH   2   4
HETATM    4  N   UNL     1     -10.732   6.162  68.835  1.00  0.00    -0.278 NA 
HETATM    5  H   UNL     1     -11.014   7.081  68.495  1.00  0.00     0.000 HD 
BRANCH   4   6
HETATM    6  C   UNL     1      -9.327   5.888  68.499  1.00  0.00    -0.120 C  
BRANCH   6   7
HETATM    7  C   UNL     1      -8.987   4.416  68.793  1.00  0.00    -0.110 C  
HETATM    8  O   UNL     1     -10.105   3.783  69.438  1.00  0.00     0.103 OA 
HETATM    9  H   UNL     1      -9.895   2.874  69.619  1.00  0.00     0.000 HD 
BRANCH   7  10
HETATM   10  C   UNL     1      -8.643   3.654  67.506  1.00  0.00    -0.100 C  
BRANCH  10  11
HETATM   11  O   UNL     1      -9.371   4.231  66.413  1.00  0.00    -0.141 OA 
BRANCH  11  12
HETATM   12  C   UNL     1      -8.605   4.902  65.498  1.00  0.00    -0.135 A  
HETATM   13  C   UNL     1      -7.814   6.010  65.787  1.00  0.00    -0.104 A  
HETATM   14  C   UNL     1      -7.069   6.623  64.778  1.00  0.00    -0.057 A  
HETATM   15  C   UNL     1      -7.082   6.123  63.468  1.00  0.00    -0.049 A  
HETATM   16  C   UNL     1      -7.864   4.997  63.189  1.00  0.00    -0.078 A  
HETATM   17  C   UNL     1      -8.616   4.387  64.200  1.00  0.00    -0.124 A  
BRANCH  15  18
HETATM   18  C   UNL     1      -6.271   6.796  62.386  1.00  0.00    -0.039 C  
BRANCH  18  19
HETATM   19  C   UNL     1      -5.514   8.020  62.902  1.00  0.00    -0.059 C  
BRANCH  19  20
HETATM   20  O   UNL     1      -6.427   9.095  63.133  1.00  0.00    -0.090 OA 
BRANCH  20  21
HETATM   21  C   UNL     1      -6.032   9.851  64.279  1.00  0.00    -0.119 C  
BRANCH  21  22
HETATM   22  C   UNL     1      -6.448   9.120  65.514  1.00  0.00    -0.068 C  
HETATM   23  C   UNL     1      -5.704   9.364  66.804  1.00  0.00    -0.051 C  
HETATM   24  C   UNL     1      -7.120   9.843  66.654  1.00  0.00    -0.087 C  
ENDBRANCH  21  22
ENDBRANCH  20  21
ENDBRANCH  19  20
ENDBRANCH  18  19
ENDBRANCH  15  18
ENDBRANCH  11  12
ENDBRANCH  10  11
ENDBRANCH   7  10
ENDBRANCH   6   7
ENDBRANCH   4   6
ENDBRANCH   2   4
TORSDOF 11
ENDMDL
MODEL      345
REMARK 921   NORMALIZED FREE ENERGY PREDICTED BY IDOCK:    1.08 KCAL/MOL
REMARK 922        TOTAL FREE ENERGY PREDICTED BY IDOCK:    0.46 KCAL/MOL
REMARK 923 INTER-LIGAND FREE ENERGY PREDICTED BY IDOCK:   -2.86 KCAL/MOL
REMARK 924 INTRA-LIGAND FREE ENERGY PREDICTED BY IDOCK:    3.32 KCAL/MOL
REMARK 927      BINDING AFFINITY PREDICTED BY RF-SCORE:    0.00 PKD
ROOT
HETATM    1  C   UNL     1     -11.991   9.937  71.952  1.00  0.00    -0.182 C  
HETATM    2  C   UNL     1     -11.275   9.082  70.903  1.00  0.00    -0.287 C  
HETATM    3  C   UNL     1      -9.782   9.421  70.900  1.00  0.00    -0.320 C  
ENDROOT
BRANCH   2   4
HETATM    4  N   UNL     1     -11.511   7.671  71.214  1.00  0.00    -0.264 NA 
HETATM    5  H   UNL     1     -11.098   7.069  70.502  1.00  0.00     0.000 HD 
BRANCH   4   6
HETATM    6  C   UNL     1     -11.047   7.285  72.556  1.00  0.00    -0.293 C  
BRANCH   6   7
HETATM    7  C   UNL     1     -10.033   6.131  72.456  1.00  0.00    -0.172 C  
HETATM    8  O   UNL     1     -10.418   5.073  73.351  1.00  0.00    -0.183 OA 
HETATM    9  H   UNL     1      -9.792   4.361  73.289  1.00  0.00     0.000 HD 
BRANCH   7  10
HETATM   10  C   UNL     1      -9.949   5.583  71.025  1.00  0.00    -0.194 C  
BRANCH  10  11
HETATM   11  O   UNL     1      -9.924   4.149  71.076  1.00  0.00    -0.189 OA 
BRANCH  11  12
HETATM   12  C   UNL     1      -8.920   3.562  70.352  1.00  0.00    -0.101 A  
HETATM   13  C   UNL     1      -7.752   3.038  70.896  1.00  0.00    -0.043 A  
HETATM   14  C   UNL     1      -6.789   2.460  70.068  1.00  0.00    -0.033 A  
HETATM   15  C   UNL     1      -6.989   2.374  68.682  1.00  0.00    -0.044 A  
HETATM   16  C   UNL     1      -8.174   2.886  68.144  1.00  0.00    -0.085 A  
HETATM   17  C   UNL     1      -9.137   3.471  68.975  1.00  0.00    -0.202 A  
BRANCH  15  18
HETATM   18  C   UNL     1      -5.939   1.746  67.797  1.00  0.00    -0.020 C  
BRANCH  18  19
HETATM   19  C   UNL     1      -6.301   1.830  66.314  1.00  0.00    -0.023 C  
BRANCH  19  20
HETATM   20  O   UNL     1      -6.279   3.193  65.885  1.00  0.00    -0.023 OA 
BRANCH  20  21
HETATM   21  C   UNL     1      -7.026   4.013  66.784  1.00  0.00    -0.059 C  
BRANCH  21  22
HETATM   22  C   UNL     1      -6.682   5.447  66.541  1.00  0.00    -0.057 C  
HETATM   23  C   UNL     1      -6.787   6.436  67.675  1.00  0.00    -0.076 C  
HETATM   24  C   UNL     1      -5.437   6.058  67.133  1.00  0.00    -0.009 C  
ENDBRANCH  21  22
ENDBRANCH  20  21
ENDBRANCH  19  20
ENDBRANCH  18  19
ENDBRANCH  15  18
ENDBRANCH  11  12
ENDBRANCH  10  11
ENDBRANCH   7  10
ENDBRANCH   6   7
ENDBRANCH   4   6
ENDBRANCH   2   4
TORSDOF 11
ENDMDL
MODEL      346
REMARK 921   NORMALIZED FREE ENERGY PREDICTED BY IDOCK:    1.57 KCAL/MOL
REMARK 922        TOTAL FREE ENERGY PREDICTED BY IDOCK:    1.26 KCAL/MOL
REMARK 923 INTER-LIGAND FREE ENERGY PREDICTED BY IDOCK:    1.44 KCAL/MOL
REMARK 924 INTRA-LIGAND FREE ENERGY PREDICTED BY IDOCK:   -0.18 KCAL/MOL
REMARK 927      BINDING AFFINITY PREDICTED BY RF-SCORE:    0.00 PKD
ROOT
HETATM    1  C   UNL     1     -12.145  10.153  72.448  1.00  0.00     0.922 C  
HETATM    2  C   UNL     1     -11.253  10.160  71.204  1.00  0.00    -0.171 C  
HETATM    3  C   UNL     1      -9.799   9.917  71.616  1.00  0.00     1.617 C  
ENDROOT
BRANCH   2   4
HETATM    4  N   UNL     1     -11.735   9.129  70.281  1.00  0.00    -0.466 NA 
HETATM    5  H   UNL     1     -10.981   8.806  69.674  1.00  0.00     0.000 HD 
BRANCH   4   6
HETATM    6  C   UNL     1     -12.380   7.995  70.961  1.00  0.00    -0.150 C  
BRANCH   6   7
HETATM    7  C   UNL     1     -11.492   6.742  70.865  1.00  0.00    -0.334 C  
HETATM    8  O   UNL     1     -12.222   5.680  70.228  1.00  0.00     1.477 OA 
HETATM    9  H   UNL     1     -11.673   4.907  70.169  1.00  0.00     0.000 HD 
BRANCH   7  10
HETATM   10  C   UNL     1     -10.209   7.025  70.073  1.00  0.00    -0.194 C  
BRANCH  10  11
HETATM   11  O   UNL     1      -9.713   5.792  69.531  1.00  0.00    -0.141 OA 
BRANCH  11  12
HETATM   12  C   UNL     1      -8.643   5.921  68.687  1.00  0.00    -0.110 A  
HETATM   13  C   UNL     1      -7.661   6.901  68.794  1.00  0.00    -0.110 A  
HETATM   14  C   UNL     1      -6.609   6.944  67.879  1.00  0.00    -0.059 A  
HETATM   15  C   UNL     1      -6.505   5.991  66.854  1.00  0.00    -0.050 A  
HETATM   16  C   UNL     1      -7.486   4.997  66.764  1.00  0.00    -0.087 A  
HETATM   17  C   UNL     1      -8.544   4.959  67.679  1.00  0.00    -0.103 A  
BRANCH  15  18
HETATM   18  C   UNL     1      -5.361   6.050  65.871  1.00  0.00    -0.013 C  
BRANCH  18  19
HETATM   19  C   UNL     1      -5.624   7.033  64.730  1.00  0.00    -0.032 C  
BRANCH  19  20
HETATM   20  O   UNL     1      -6.842   7.742  64.970  1.00  0.00    -0.050 OA 
BRANCH  20  21
HETATM   21  C   UNL     1      -7.626   7.807  63.778  1.00  0.00    -0.118 C  
BRANCH  21  22
HETATM   22  C   UNL     1      -8.566   8.965  63.873  1.00  0.00    -0.110 C  
HETATM   23  C   UNL     1      -8.123  10.321  63.381  1.00  0.00    -0.154 C  
HETATM   24  C   UNL     1      -9.188   9.565  62.637  1.00  0.00    -0.119 C  
ENDBRANCH  21  22
ENDBRANCH  20  21
ENDBRANCH  19  20
ENDBRANCH  18  19
ENDBRANCH  15  18
ENDBRANCH  11  12
ENDBRANCH  10  11
ENDBRANCH   7  10
ENDBRANCH   6   7
ENDBRANCH   4   6
ENDBRANCH   2   4
TORSDOF 11
ENDMDL
MODEL      347
REMARK 921   NORMALIZED FREE ENERGY PREDICTED BY IDOCK:    2.69 KCAL/MOL
REMARK 922        TOTAL FREE ENERGY PREDICTED BY IDOCK:    3.09 KCAL/MOL
REMARK 923 INTER-LIGAND FREE ENERGY PREDICTED BY IDOCK:    0.50 KCAL/MOL
REMARK 924 INTRA-LIGAND FREE ENERGY PREDICTED BY IDOCK:    2.59 KCAL/MOL
REMARK 927      BINDING AFFINITY PREDICTED BY RF-SCORE:    0.00 PKD
ROOT
HETATM    1  C   UNL     1     -10.350  18.791  68.771  1.00  0.00    -0.192 C  
HETATM    2  C   UNL     1      -9.041  18.407  69.466  1.00  0.00     0.592 C  
HETATM    3  C   UNL     1      -8.835  19.295  70.694  1.00  0.00     2.511 C  
ENDROOT
BRANCH   2   4
HETATM    4  N   UNL     1      -9.105  16.988  69.826  1.00  0.00     0.699 NA 
HETATM    5  H   UNL     1      -8.616  16.816  70.705  1.00  0.00     0.000 HD 
BRANCH   4   6
HETATM    6  C   UNL     1     -10.477  16.463  69.880  1.00  0.00    -0.201 C  
BRANCH   6   7
HETATM    7  C   UNL     1     -10.464  14.984  70.306  1.00  0.00    -0.031 C  
HETATM    8  O   UNL     1     -11.805  14.553  70.593  1.00  0.00    -0.285 OA 
HETATM    9  H   UNL     1     -11.797  13.640  70.856  1.00  0.00     0.000 HD 
BRANCH   7  10
HETATM   10  C   UNL     1      -9.866  14.092  69.210  1.00  0.00     0.246 C  
BRANCH  10  11
HETATM   11  O   UNL     1     -10.265  14.597  67.927  1.00  0.00    -0.224 OA 
BRANCH  11  12
HETATM   12  C   UNL     1      -9.442  15.557  67.403  1.00  0.00    -0.211 A  
HETATM   13  C   UNL     1      -8.113  15.748  67.767  1.00  0.00    -0.156 A  
HETATM   14  C   UNL     1      -7.360  16.760  67.170  1.00  0.00    -0.222 A  
HETATM   15  C   UNL     1      -7.915  17.583  66.179  1.00  0.00    -0.261 A  
HETATM   16  C   UNL     1      -9.246  17.372  65.804  1.00  0.00     0.174 A  
HETATM   17  C   UNL     1     -10.003  16.361  66.408  1.00  0.00    -0.318 A  
BRANCH  15  18
HETATM   18  C   UNL     1      -7.089  18.673  65.541  1.00  0.00    -0.135 C  
BRANCH  18  19
HETATM   19  C   UNL     1      -7.781  20.036  65.596  1.00  0.00    -0.161 C  
BRANCH  19  20
HETATM   20  O   UNL     1      -8.445  20.194  66.852  1.00  0.00    -0.309 OA 
BRANCH  20  21
HETATM   21  C   UNL     1      -7.708  21.076  67.700  1.00  0.00    -0.028 C  
BRANCH  21  22
HETATM   22  C   UNL     1      -6.390  20.453  68.027  1.00  0.00    -0.321 C  
HETATM   23  C   UNL     1      -5.171  21.331  68.169  1.00  0.00    -0.268 C  
HETATM   24  C   UNL     1      -5.750  20.652  69.378  1.00  0.00    -0.394 C  
ENDBRANCH  21  22
ENDBRANCH  20  21
ENDBRANCH  19  20
ENDBRANCH  18  19
ENDBRANCH  15  18
ENDBRANCH  11  12
ENDBRANCH  10  11
ENDBRANCH   7  10
ENDBRANCH   6   7
ENDBRANCH   4   6
ENDBRANCH   2   4
TORSDOF 11
ENDMDL
MODEL      348
REMARK 921   NORMALIZED FREE ENERGY PREDICTED BY IDOCK:    3.41 KCAL/MOL
REMARK 922        TOTAL FREE ENERGY PREDICTED BY IDOCK:    4.28 KCAL/MOL
REMARK 923 INTER-LIGAND FREE ENERGY PREDICTED BY IDOCK:   -1.61 KCAL/MOL
REMARK 924 INTRA-LIGAND FREE ENERGY PREDICTED BY IDOCK:    5.89 KCAL/MOL
REMARK 927      BINDING AFFINITY PREDICTED BY RF-SCORE:    0.00 PKD
ROOT
HETATM    1  C   UNL     1      -5.302  15.822  70.938  1.00  0.00    -0.098 C  
HETATM    2  C   UNL     1      -6.420  15.116  70.167  1.00  0.00    -0.115 C  
HETATM    3  C   UNL     1      -6.191  15.289  68.664  1.00  0.00    -0.088 C  
ENDROOT
BRANCH   2   4
HETATM    4  N   UNL     1      -6.432  13.704  70.555  1.00  0.00    -0.400 NA 
HETATM    5  H   UNL     1      -7.189  13.206  70.087  1.00  0.00     0.000 HD 
BRANCH   4   6
HETATM    6  C   UNL     1      -5.145  13.027  70.331  1.00  0.00    -0.103 C  
BRANCH   6   7
HETATM    7  C   UNL     1      -5.253  11.540  70.712  1.00  0.00    -0.130 C  
HETATM    8  O   UNL     1      -5.880  11.416  72.000  1.00  0.00     0.205 OA 
HETATM    9  H   UNL     1      -5.946  10.498  72.235  1.00  0.00     0.000 HD 
BRANCH   7  10
HETATM   10  C   UNL     1      -6.065  10.754  69.673  1.00  0.00    -0.069 C  
BRANCH  10  11
HETATM   11  O   UNL     1      -7.420  11.226  69.684  1.00  0.00    -0.011 OA 
BRANCH  11  12
HETATM   12  C   UNL     1      -8.374  10.244  69.653  1.00  0.00    -0.123 A  
HETATM   13  C   UNL     1      -8.109   8.884  69.531  1.00  0.00    -0.101 A  
HETATM   14  C   UNL     1      -9.157   7.963  69.509  1.00  0.00    -0.149 A  
HETATM   15  C   UNL     1     -10.489   8.385  69.634  1.00  0.00    -0.221 A  
HETATM   16  C   UNL     1     -10.747   9.753  69.776  1.00  0.00    -0.283 A  
HETATM   17  C   UNL     1      -9.695  10.676  69.791  1.00  0.00     0.104 A  
BRANCH  15  18
HETATM   18  C   UNL     1     -11.614   7.378  69.609  1.00  0.00     0.202 C  
BRANCH  18  19
HETATM   19  C   UNL     1     -11.263   6.094  70.360  1.00  0.00    -0.353 C  
BRANCH  19  20
HETATM   20  O   UNL     1     -12.358   5.702  71.191  1.00  0.00     0.956 OA 
BRANCH  20  21
HETATM   21  C   UNL     1     -12.941   6.843  71.822  1.00  0.00    -0.277 C  
BRANCH  21  22
HETATM   22  C   UNL     1     -12.063   8.030  71.593  1.00  0.00    -0.339 C  
HETATM   23  C   UNL     1     -12.005   9.120  72.635  1.00  0.00     0.207 C  
HETATM   24  C   UNL     1     -10.810   8.238  72.407  1.00  0.00    -0.421 C  
ENDBRANCH  21  22
ENDBRANCH  20  21
ENDBRANCH  19  20
ENDBRANCH  18  19
ENDBRANCH  15  18
ENDBRANCH  11  12
ENDBRANCH  10  11
ENDBRANCH   7  10
ENDBRANCH   6   7
ENDBRANCH   4   6
ENDBRANCH   2   4
TORSDOF 11
ENDMDL
MODEL      349
REMARK 921   NORMALIZED FREE ENERGY PREDICTED BY IDOCK:    5.28 KCAL/MOL
REMARK 922        TOTAL FREE ENERGY PREDICTED BY IDOCK:    7.35 KCAL/MOL
REMARK 923 INTER-LIGAND FREE ENERGY PREDICTED BY IDOCK:    7.65 KCAL/MOL
REMARK 924 INTRA-LIGAND FREE ENERGY PREDICTED BY IDOCK:   -0.30 KCAL/MOL
REMARK 927      BINDING AFFINITY PREDICTED BY RF-SCORE:    0.00 PKD
ROOT
HETATM    1  C   UNL     1      -6.200  15.946  71.593  1.00  0.00     1.694 C  
HETATM    2  C   UNL     1      -7.556  15.242  71.503  1.00  0.00     3.464 C  
HETATM    3  C   UNL     1      -8.367  15.841  70.352  1.00  0.00     1.477 C  
ENDROOT
BRANCH   2   4
HETATM    4  N   UNL     1      -7.323  13.808  71.315  1.00  0.00     1.956 NA 
HETATM    5  H   UNL     1      -8.190  13.330  71.070  1.00  0.00     0.000 HD 
BRANCH   4   6
HETATM    6  C   UNL     1      -6.268  13.514  70.334  1.00  0.00    -0.028 C  
BRANCH   6   7
HETATM    7  C   UNL     1      -5.786  12.061  70.492  1.00  0.00    -0.159 C  
HETATM    8  O   UNL     1      -6.148  11.572  71.795  1.00  0.00     0.293 OA 
HETATM    9  H   UNL     1      -5.849  10.675  71.893  1.00  0.00     0.000 HD 
BRANCH   7  10
HETATM   10  C   UNL     1      -6.394  11.149  69.419  1.00  0.00    -0.088 C  
BRANCH  10  11
HETATM   11  O   UNL     1      -7.492  10.423  69.991  1.00  0.00    -0.159 OA 
BRANCH  11  12
HETATM   12  C   UNL     1      -7.520   9.087  69.692  1.00  0.00    -0.076 A  
HETATM   13  C   UNL     1      -6.739   8.476  68.716  1.00  0.00    -0.058 A  
HETATM   14  C   UNL     1      -6.844   7.103  68.490  1.00  0.00    -0.076 A  
HETATM   15  C   UNL     1      -7.716   6.312  69.253  1.00  0.00    -0.100 A  
HETATM   16  C   UNL     1      -8.485   6.930  70.245  1.00  0.00    -0.139 A  
HETATM   17  C   UNL     1      -8.382   8.308  70.467  1.00  0.00    -0.124 A  
BRANCH  15  18
HETATM   18  C   UNL     1      -7.821   4.828  68.997  1.00  0.00    -0.072 C  
BRANCH  18  19
HETATM   19  C   UNL     1      -6.523   4.239  68.443  1.00  0.00    -0.037 C  
BRANCH  19  20
HETATM   20  O   UNL     1      -6.372   2.889  68.889  1.00  0.00    -0.028 OA 
BRANCH  20  21
HETATM   21  C   UNL     1      -5.602   2.135  67.952  1.00  0.00    -0.018 C  
BRANCH  21  22
HETATM   22  C   UNL     1      -5.545   2.878  66.656  1.00  0.00    -0.021 C  
HETATM   23  C   UNL     1      -5.441   2.105  65.364  1.00  0.00    -0.008 C  
HETATM   24  C   UNL     1      -6.704   2.850  65.693  1.00  0.00    -0.043 C  
ENDBRANCH  21  22
ENDBRANCH  20  21
ENDBRANCH  19  20
ENDBRANCH  18  19
ENDBRANCH  15  18
ENDBRANCH  11  12
ENDBRANCH  10  11
ENDBRANCH   7  10
ENDBRANCH   6   7
ENDBRANCH   4   6
ENDBRANCH   2   4
TORSDOF 11
ENDMDL
MODEL      350
REMARK 921   NORMALIZED FREE ENERGY PREDICTED BY IDOCK:   12.59 KCAL/MOL
REMARK 922        TOTAL FREE ENERGY PREDICTED BY IDOCK:   19.36 KCAL/MOL
REMARK 923 INTER-LIGAND FREE ENERGY PREDICTED BY IDOCK:   18.96 KCAL/MOL
REMARK 924 INTRA-LIGAND FREE ENERGY PREDICTED BY IDOCK:    0.40 KCAL/MOL
REMARK 927      BINDING AFFINITY PREDICTED BY RF-SCORE:    0.00 PKD
ROOT
HETATM    1  C   UNL     1      -7.286  14.213  72.396  1.00  0.00     4.809 C  
HETATM    2  C   UNL     1      -8.436  13.624  71.576  1.00  0.00     9.719 C  
HETATM    3  C   UNL     1      -9.326  14.757  71.057  1.00  0.00     2.652 C  
ENDROOT
BRANCH   2   4
HETATM    4  N   UNL     1      -7.869  12.835  70.480  1.00  0.00     2.902 NA 
HETATM    5  H   UNL     1      -8.603  12.500  69.856  1.00  0.00     0.000 HD 
BRANCH   4   6
HETATM    6  C   UNL     1      -6.828  13.550  69.725  1.00  0.00     0.170 C  
BRANCH   6   7
HETATM    7  C   UNL     1      -5.729  12.571  69.276  1.00  0.00    -0.080 C  
HETATM    8  O   UNL     1      -5.154  11.930  70.428  1.00  0.00    -0.082 OA 
HETATM    9  H   UNL     1      -4.476  11.326  70.150  1.00  0.00     0.000 HD 
BRANCH   7  10
HETATM   10  C   UNL     1      -6.286  11.504  68.324  1.00  0.00    -0.045 C  
BRANCH  10  11
HETATM   11  O   UNL     1      -6.432  10.269  69.041  1.00  0.00    -0.043 OA 
BRANCH  11  12
HETATM   12  C   UNL     1      -6.532   9.153  68.255  1.00  0.00    -0.055 A  
HETATM   13  C   UNL     1      -7.040   9.138  66.960  1.00  0.00    -0.086 A  
HETATM   14  C   UNL     1      -7.098   7.943  66.242  1.00  0.00    -0.063 A  
HETATM   15  C   UNL     1      -6.625   6.744  66.798  1.00  0.00    -0.044 A  
HETATM   16  C   UNL     1      -6.098   6.771  68.093  1.00  0.00    -0.032 A  
HETATM   17  C   UNL     1      -6.046   7.969  68.814  1.00  0.00    -0.040 A  
BRANCH  15  18
HETATM   18  C   UNL     1      -6.694   5.458  66.010  1.00  0.00    -0.056 C  
BRANCH  18  19
HETATM   19  C   UNL     1      -7.266   5.664  64.607  1.00  0.00    -0.062 C  
BRANCH  19  20
HETATM   20  O   UNL     1      -6.727   4.686  63.714  1.00  0.00    -0.040 OA 
BRANCH  20  21
HETATM   21  C   UNL     1      -7.768   4.085  62.943  1.00  0.00    -0.061 C  
BRANCH  21  22
HETATM   22  C   UNL     1      -9.090   4.456  63.533  1.00  0.00    -0.132 C  
HETATM   23  C   UNL     1     -10.094   3.372  63.839  1.00  0.00    -0.196 C  
HETATM   24  C   UNL     1      -9.427   4.114  64.962  1.00  0.00    -0.173 C  
ENDBRANCH  21  22
ENDBRANCH  20  21
ENDBRANCH  19  20
ENDBRANCH  18  19
ENDBRANCH  15  18
ENDBRANCH  11  12
ENDBRANCH  10  11
ENDBRANCH   7  10
ENDBRANCH   6   7
ENDBRANCH   4   6
ENDBRANCH   2   4
TORSDOF 11
ENDMDL
MODEL      351
REMARK 921   NORMALIZED FREE ENERGY PREDICTED BY IDOCK:   14.50 KCAL/MOL
REMARK 922        TOTAL FREE ENERGY PREDICTED BY IDOCK:   22.50 KCAL/MOL
REMARK 923 INTER-LIGAND FREE ENERGY PREDICTED BY IDOCK:   22.04 KCAL/MOL
REMARK 924 INTRA-LIGAND FREE ENERGY PREDICTED BY IDOCK:    0.46 KCAL/MOL
REMARK 927      BINDING AFFINITY PREDICTED BY RF-SCORE:    0.00 PKD
ROOT
HETATM    1  C   UNL     1     -11.535  10.581  73.842  1.00  0.00    15.064 C  
HETATM    2  C   UNL     1     -10.670  10.357  72.599  1.00  0.00     6.617 C  
HETATM    3  C   UNL     1      -9.807   9.109  72.796  1.00  0.00     1.269 C  
ENDROOT
BRANCH   2   4
HETATM    4  N   UNL     1     -11.552  10.229  71.436  1.00  0.00    -0.254 NA 
HETATM    5  H   UNL     1     -11.044   9.854  70.636  1.00  0.00     0.000 HD 
BRANCH   4   6
HETATM    6  C   UNL     1     -12.761   9.436  71.707  1.00  0.00    -0.390 C  
BRANCH   6   7
HETATM    7  C   UNL     1     -12.687   8.087  70.969  1.00  0.00    -0.032 C  
HETATM    8  O   UNL     1     -13.848   7.929  70.136  1.00  0.00     1.115 OA 
HETATM    9  H   UNL     1     -13.802   7.096  69.681  1.00  0.00     0.000 HD 
BRANCH   7  10
HETATM   10  C   UNL     1     -11.423   7.991  70.104  1.00  0.00    -0.003 C  
BRANCH  10  11
HETATM   11  O   UNL     1     -11.655   7.055  69.041  1.00  0.00     0.106 OA 
BRANCH  11  12
HETATM   12  C   UNL     1     -10.945   5.888  69.133  1.00  0.00    -0.312 A  
HETATM   13  C   UNL     1     -10.644   5.235  70.324  1.00  0.00    -0.288 A  
HETATM   14  C   UNL     1      -9.913   4.047  70.308  1.00  0.00    -0.102 A  
HETATM   15  C   UNL     1      -9.490   3.477  69.098  1.00  0.00    -0.224 A  
HETATM   16  C   UNL     1      -9.813   4.129  67.903  1.00  0.00    -0.098 A  
HETATM   17  C   UNL     1     -10.542   5.324  67.921  1.00  0.00    -0.098 A  
BRANCH  15  18
HETATM   18  C   UNL     1      -8.699   2.191  69.095  1.00  0.00    -0.124 C  
BRANCH  18  19
HETATM   19  C   UNL     1      -7.465   2.264  69.995  1.00  0.00    -0.043 C  
BRANCH  19  20
HETATM   20  O   UNL     1      -7.611   3.332  70.934  1.00  0.00    -0.039 OA 
BRANCH  20  21
HETATM   21  C   UNL     1      -6.443   4.154  70.943  1.00  0.00    -0.026 C  
BRANCH  21  22
HETATM   22  C   UNL     1      -6.335   4.836  72.268  1.00  0.00    -0.033 C  
HETATM   23  C   UNL     1      -6.744   4.096  73.518  1.00  0.00    -0.053 C  
HETATM   24  C   UNL     1      -5.296   4.416  73.276  1.00  0.00    -0.008 C  
ENDBRANCH  21  22
ENDBRANCH  20  21
ENDBRANCH  19  20
ENDBRANCH  18  19
ENDBRANCH  15  18
ENDBRANCH  11  12
ENDBRANCH  10  11
ENDBRANCH   7  10
ENDBRANCH   6   7
ENDBRANCH   4   6
ENDBRANCH   2   4
TORSDOF 11
ENDMDL
MODEL      352
REMARK 921   NORMALIZED FREE ENERGY PREDICTED BY IDOCK:   14.50 KCAL/MOL
REMARK 922        TOTAL FREE ENERGY PREDICTED BY IDOCK:   22.50 KCAL/MOL
REMARK 923 INTER-LIGAND FREE ENERGY PREDICTED BY IDOCK:   22.03 KCAL/MOL
REMARK 924 INTRA-LIGAND FREE ENERGY PREDICTED BY IDOCK:    0.47 KCAL/MOL
REMARK 927      BINDING AFFINITY PREDICTED BY RF-SCORE:    0.00 PKD
ROOT
HETATM    1  C   UNL     1      -7.167  14.820  73.095  1.00  0.00     4.719 C  
HETATM    2  C   UNL     1      -8.366  14.199  72.375  1.00  0.00     8.872 C  
HETATM    3  C   UNL     1      -9.295  15.310  71.880  1.00  0.00     4.638 C  
ENDROOT
BRANCH   2   4
HETATM    4  N   UNL     1      -7.870  13.374  71.271  1.00  0.00     4.999 NA 
HETATM    5  H   UNL     1      -8.643  13.021  70.707  1.00  0.00     0.000 HD 
BRANCH   4   6
HETATM    6  C   UNL     1      -6.881  14.064  70.428  1.00  0.00     0.336 C  
BRANCH   6   7
HETATM    7  C   UNL     1      -5.824  13.066  69.924  1.00  0.00    -0.132 C  
HETATM    8  O   UNL     1      -5.178  12.438  71.045  1.00  0.00    -0.138 OA 
HETATM    9  H   UNL     1      -4.526  11.822  70.733  1.00  0.00     0.000 HD 
BRANCH   7  10
HETATM   10  C   UNL     1      -6.454  11.988  69.031  1.00  0.00    -0.091 C  
BRANCH  10  11
HETATM   11  O   UNL     1      -6.562  10.767  69.778  1.00  0.00    -0.096 OA 
BRANCH  11  12
HETATM   12  C   UNL     1      -6.738   9.640  69.021  1.00  0.00    -0.050 A  
HETATM   13  C   UNL     1      -6.117   8.419  69.260  1.00  0.00    -0.038 A  
HETATM   14  C   UNL     1      -6.366   7.328  68.425  1.00  0.00    -0.036 A  
HETATM   15  C   UNL     1      -7.262   7.434  67.350  1.00  0.00    -0.093 A  
HETATM   16  C   UNL     1      -7.897   8.660  67.127  1.00  0.00    -0.097 A  
HETATM   17  C   UNL     1      -7.642   9.755  67.961  1.00  0.00    -0.082 A  
BRANCH  15  18
HETATM   18  C   UNL     1      -7.522   6.247  66.455  1.00  0.00    -0.086 C  
BRANCH  18  19
HETATM   19  C   UNL     1      -7.436   4.919  67.208  1.00  0.00    -0.083 C  
BRANCH  19  20
HETATM   20  O   UNL     1      -8.730   4.548  67.690  1.00  0.00    -0.103 OA 
BRANCH  20  21
HETATM   21  C   UNL     1      -9.009   3.183  67.376  1.00  0.00    -0.158 C  
BRANCH  21  22
HETATM   22  C   UNL     1      -7.963   2.673  66.438  1.00  0.00    -0.081 C  
HETATM   23  C   UNL     1      -8.384   1.964  65.175  1.00  0.00    -0.085 C  
HETATM   24  C   UNL     1      -7.742   3.321  65.094  1.00  0.00    -0.081 C  
ENDBRANCH  21  22
ENDBRANCH  20  21
ENDBRANCH  19  20
ENDBRANCH  18  19
ENDBRANCH  15  18
ENDBRANCH  11  12
ENDBRANCH  10  11
ENDBRANCH   7  10
ENDBRANCH   6   7
ENDBRANCH   4   6
ENDBRANCH   2   4
TORSDOF 11
ENDMDL
