MODEL        1
REMARK 921   NORMALIZED FREE ENERGY PREDICTED BY IDOCK:   -3.96 KCAL/MOL
REMARK 922        TOTAL FREE ENERGY PREDICTED BY IDOCK:   -5.26 KCAL/MOL
REMARK 923 INTER-LIGAND FREE ENERGY PREDICTED BY IDOCK:   -4.88 KCAL/MOL
REMARK 924 INTRA-LIGAND FREE ENERGY PREDICTED BY IDOCK:   -0.37 KCAL/MOL
REMARK 927      BINDING AFFINITY PREDICTED BY RF-SCORE:    0.00 PKD
ROOT
HETATM    1  C   UNL     1     -11.290  16.210  64.476  1.00  0.00    -0.273 C  
HETATM    2  C   UNL     1     -11.530  14.715  64.711  1.00  0.00    -0.410 C  
ENDROOT
BRANCH   2   3
HETATM    3  O   UNL     1     -12.314  14.165  63.627  1.00  0.00    -0.741 OA 
BRANCH   3   4
HETATM    4  C   UNL     1     -12.229  12.840  63.374  1.00  0.00    -0.504 C  
HETATM    5  H2  UNL     1     -10.152  13.131  63.192  1.00  0.00     0.000 HD 
HETATM    6  O   UNL     1     -13.156  12.051  63.394  1.00  0.00    -0.747 OA 
HETATM    7  N   UNL     1     -10.944  12.490  63.164  1.00  0.00    -0.682 N  
HETATM    8  H1  UNL     1     -10.880  11.491  62.973  1.00  0.00     0.000 HD 
ENDBRANCH   3   4
ENDBRANCH   2   3
BRANCH   2   9
HETATM    9  C   UNL     1     -12.107  14.454  66.125  1.00  0.00    -0.357 C  
BRANCH   9  10
HETATM   10  N   UNL     1     -11.215  13.604  67.080  1.00  0.00    -0.304 N  
HETATM   11  C   UNL     1     -11.678  12.148  66.949  1.00  0.00    -0.301 C  
HETATM   12  C   UNL     1     -11.376  14.038  68.529  1.00  0.00    -0.277 C  
HETATM   13  C   UNL     1      -9.742  13.649  66.698  1.00  0.00    -0.284 C  
ENDBRANCH   9  10
ENDBRANCH   2   9
TORSDOF 4
ENDMDL
MODEL        2
REMARK 921   NORMALIZED FREE ENERGY PREDICTED BY IDOCK:   -3.95 KCAL/MOL
REMARK 922        TOTAL FREE ENERGY PREDICTED BY IDOCK:   -5.24 KCAL/MOL
REMARK 923 INTER-LIGAND FREE ENERGY PREDICTED BY IDOCK:   -4.89 KCAL/MOL
REMARK 924 INTRA-LIGAND FREE ENERGY PREDICTED BY IDOCK:   -0.36 KCAL/MOL
REMARK 927      BINDING AFFINITY PREDICTED BY RF-SCORE:    0.00 PKD
ROOT
HETATM    1  C   UNL     1     -10.167  10.889  65.549  1.00  0.00    -0.332 C  
HETATM    2  C   UNL     1     -10.721  12.298  65.306  1.00  0.00    -0.292 C  
ENDROOT
BRANCH   2   3
HETATM    3  O   UNL     1     -10.986  12.486  63.896  1.00  0.00    -0.360 OA 
BRANCH   3   4
HETATM    4  C   UNL     1     -12.260  12.702  63.500  1.00  0.00    -0.547 C  
HETATM    5  H2  UNL     1     -11.667  14.679  63.083  1.00  0.00     0.000 HD 
HETATM    6  O   UNL     1     -13.142  11.864  63.450  1.00  0.00    -0.710 OA 
HETATM    7  N   UNL     1     -12.408  13.979  63.092  1.00  0.00    -1.094 N  
HETATM    8  H1  UNL     1     -13.369  14.142  62.794  1.00  0.00     0.000 HD 
ENDBRANCH   3   4
ENDBRANCH   2   3
BRANCH   2   9
HETATM    9  C   UNL     1      -9.811  13.377  65.943  1.00  0.00    -0.238 C  
BRANCH   9  10
HETATM   10  N   UNL     1     -10.541  14.617  66.543  1.00  0.00    -0.294 N  
HETATM   11  C   UNL     1     -10.412  15.752  65.520  1.00  0.00    -0.403 C  
HETATM   12  C   UNL     1      -9.902  15.064  67.849  1.00  0.00    -0.217 C  
HETATM   13  C   UNL     1     -12.027  14.370  66.764  1.00  0.00    -0.399 C  
ENDBRANCH   9  10
ENDBRANCH   2   9
TORSDOF 4
ENDMDL
MODEL        3
REMARK 921   NORMALIZED FREE ENERGY PREDICTED BY IDOCK:   -3.93 KCAL/MOL
REMARK 922        TOTAL FREE ENERGY PREDICTED BY IDOCK:   -5.22 KCAL/MOL
REMARK 923 INTER-LIGAND FREE ENERGY PREDICTED BY IDOCK:   -4.89 KCAL/MOL
REMARK 924 INTRA-LIGAND FREE ENERGY PREDICTED BY IDOCK:   -0.33 KCAL/MOL
REMARK 927      BINDING AFFINITY PREDICTED BY RF-SCORE:    0.00 PKD
ROOT
HETATM    1  C   UNL     1      -9.839  10.661  64.969  1.00  0.00    -0.353 C  
HETATM    2  C   UNL     1     -10.547  12.007  65.160  1.00  0.00    -0.288 C  
ENDROOT
BRANCH   2   3
HETATM    3  O   UNL     1     -10.863  12.585  63.871  1.00  0.00    -0.366 OA 
BRANCH   3   4
HETATM    4  C   UNL     1     -12.161  12.773  63.547  1.00  0.00    -0.559 C  
HETATM    5  H2  UNL     1     -11.659  14.791  63.212  1.00  0.00     0.000 HD 
HETATM    6  O   UNL     1     -13.013  11.905  63.491  1.00  0.00    -0.724 OA 
HETATM    7  N   UNL     1     -12.374  14.063  63.217  1.00  0.00    -1.145 N  
HETATM    8  H1  UNL     1     -13.353  14.205  62.971  1.00  0.00     0.000 HD 
ENDBRANCH   3   4
ENDBRANCH   2   3
BRANCH   2   9
HETATM    9  C   UNL     1      -9.746  12.934  66.107  1.00  0.00    -0.248 C  
BRANCH   9  10
HETATM   10  N   UNL     1     -10.584  13.965  66.922  1.00  0.00    -0.279 N  
HETATM   11  C   UNL     1     -11.990  13.376  67.081  1.00  0.00    -0.366 C  
HETATM   12  C   UNL     1     -10.692  15.297  66.194  1.00  0.00    -0.320 C  
HETATM   13  C   UNL     1     -10.027  14.196  68.320  1.00  0.00    -0.241 C  
ENDBRANCH   9  10
ENDBRANCH   2   9
TORSDOF 4
ENDMDL
MODEL        4
REMARK 921   NORMALIZED FREE ENERGY PREDICTED BY IDOCK:   -3.92 KCAL/MOL
REMARK 922        TOTAL FREE ENERGY PREDICTED BY IDOCK:   -5.22 KCAL/MOL
REMARK 923 INTER-LIGAND FREE ENERGY PREDICTED BY IDOCK:   -4.94 KCAL/MOL
REMARK 924 INTRA-LIGAND FREE ENERGY PREDICTED BY IDOCK:   -0.27 KCAL/MOL
REMARK 927      BINDING AFFINITY PREDICTED BY RF-SCORE:    0.00 PKD
ROOT
HETATM    1  C   UNL     1     -11.749  14.369  67.326  1.00  0.00    -0.429 C  
HETATM    2  C   UNL     1     -10.910  15.369  66.523  1.00  0.00    -0.298 C  
ENDROOT
BRANCH   2   3
HETATM    3  O   UNL     1     -10.767  14.909  65.158  1.00  0.00    -0.353 OA 
BRANCH   3   4
HETATM    4  C   UNL     1     -11.556  15.454  64.206  1.00  0.00    -0.191 C  
HETATM    5  H2  UNL     1     -12.456  13.558  64.038  1.00  0.00     0.000 HD 
HETATM    6  O   UNL     1     -11.555  16.623  63.864  1.00  0.00    -1.204 OA 
HETATM    7  N   UNL     1     -12.411  14.528  63.727  1.00  0.00    -1.087 N  
HETATM    8  H1  UNL     1     -13.006  14.938  63.009  1.00  0.00     0.000 HD 
ENDBRANCH   3   4
ENDBRANCH   2   3
BRANCH   2   9
HETATM    9  C   UNL     1      -9.575  15.688  67.242  1.00  0.00    -0.217 C  
BRANCH   9  10
HETATM   10  N   UNL     1      -9.408  17.150  67.754  1.00  0.00    -0.242 N  
HETATM   11  C   UNL     1      -9.843  18.078  66.614  1.00  0.00    -0.352 C  
HETATM   12  C   UNL     1      -7.960  17.457  68.106  1.00  0.00    -0.233 C  
HETATM   13  C   UNL     1     -10.296  17.454  68.953  1.00  0.00    -0.340 C  
ENDBRANCH   9  10
ENDBRANCH   2   9
TORSDOF 4
ENDMDL
MODEL        5
REMARK 921   NORMALIZED FREE ENERGY PREDICTED BY IDOCK:   -3.88 KCAL/MOL
REMARK 922        TOTAL FREE ENERGY PREDICTED BY IDOCK:   -5.16 KCAL/MOL
REMARK 923 INTER-LIGAND FREE ENERGY PREDICTED BY IDOCK:   -4.83 KCAL/MOL
REMARK 924 INTRA-LIGAND FREE ENERGY PREDICTED BY IDOCK:   -0.33 KCAL/MOL
REMARK 927      BINDING AFFINITY PREDICTED BY RF-SCORE:    0.00 PKD
ROOT
HETATM    1  C   UNL     1     -11.589  15.996  64.398  1.00  0.00    -0.212 C  
HETATM    2  C   UNL     1     -11.704  14.486  64.632  1.00  0.00    -0.431 C  
ENDROOT
BRANCH   2   3
HETATM    3  O   UNL     1     -12.420  13.870  63.535  1.00  0.00    -0.810 OA 
BRANCH   3   4
HETATM    4  C   UNL     1     -12.399  12.524  63.423  1.00  0.00    -0.477 C  
HETATM    5  H2  UNL     1     -10.330  12.705  63.075  1.00  0.00     0.000 HD 
HETATM    6  O   UNL     1     -13.350  11.782  63.590  1.00  0.00    -0.520 OA 
HETATM    7  N   UNL     1     -11.145  12.099  63.169  1.00  0.00    -0.699 N  
HETATM    8  H1  UNL     1     -11.129  11.083  63.085  1.00  0.00     0.000 HD 
ENDBRANCH   3   4
ENDBRANCH   2   3
BRANCH   2   9
HETATM    9  C   UNL     1     -12.280  14.176  66.036  1.00  0.00    -0.443 C  
BRANCH   9  10
HETATM   10  N   UNL     1     -11.315  13.460  67.027  1.00  0.00    -0.305 N  
HETATM   11  C   UNL     1     -11.618  14.009  68.426  1.00  0.00    -0.331 C  
HETATM   12  C   UNL     1      -9.858  13.750  66.696  1.00  0.00    -0.284 C  
HETATM   13  C   UNL     1     -11.534  11.954  67.071  1.00  0.00    -0.316 C  
ENDBRANCH   9  10
ENDBRANCH   2   9
TORSDOF 4
ENDMDL
MODEL        6
REMARK 921   NORMALIZED FREE ENERGY PREDICTED BY IDOCK:   -3.88 KCAL/MOL
REMARK 922        TOTAL FREE ENERGY PREDICTED BY IDOCK:   -5.16 KCAL/MOL
REMARK 923 INTER-LIGAND FREE ENERGY PREDICTED BY IDOCK:   -5.18 KCAL/MOL
REMARK 924 INTRA-LIGAND FREE ENERGY PREDICTED BY IDOCK:    0.03 KCAL/MOL
REMARK 927      BINDING AFFINITY PREDICTED BY RF-SCORE:    0.00 PKD
ROOT
HETATM    1  C   UNL     1     -11.774  12.631  66.511  1.00  0.00    -0.463 C  
HETATM    2  C   UNL     1     -12.045  14.135  66.402  1.00  0.00    -0.451 C  
ENDROOT
BRANCH   2   3
HETATM    3  O   UNL     1     -12.935  14.396  65.291  1.00  0.00    -0.608 OA 
BRANCH   3   4
HETATM    4  C   UNL     1     -12.410  14.862  64.136  1.00  0.00    -0.185 C  
HETATM    5  H2  UNL     1     -12.539  12.885  63.422  1.00  0.00     0.000 HD 
HETATM    6  O   UNL     1     -12.148  16.026  63.892  1.00  0.00    -0.880 OA 
HETATM    7  N   UNL     1     -12.279  13.856  63.248  1.00  0.00    -1.111 N  
HETATM    8  H1  UNL     1     -11.883  14.206  62.377  1.00  0.00     0.000 HD 
ENDBRANCH   3   4
ENDBRANCH   2   3
BRANCH   2   9
HETATM    9  C   UNL     1     -10.724  14.944  66.377  1.00  0.00    -0.316 C  
BRANCH   9  10
HETATM   10  N   UNL     1     -10.431  15.813  67.637  1.00  0.00    -0.276 N  
HETATM   11  C   UNL     1      -9.086  15.345  68.203  1.00  0.00    -0.184 C  
HETATM   12  C   UNL     1     -11.500  15.626  68.705  1.00  0.00    -0.375 C  
HETATM   13  C   UNL     1     -10.298  17.293  67.309  1.00  0.00    -0.331 C  
ENDBRANCH   9  10
ENDBRANCH   2   9
TORSDOF 4
ENDMDL
MODEL        7
REMARK 921   NORMALIZED FREE ENERGY PREDICTED BY IDOCK:   -3.85 KCAL/MOL
REMARK 922        TOTAL FREE ENERGY PREDICTED BY IDOCK:   -5.13 KCAL/MOL
REMARK 923 INTER-LIGAND FREE ENERGY PREDICTED BY IDOCK:   -4.87 KCAL/MOL
REMARK 924 INTRA-LIGAND FREE ENERGY PREDICTED BY IDOCK:   -0.26 KCAL/MOL
REMARK 927      BINDING AFFINITY PREDICTED BY RF-SCORE:    0.00 PKD
ROOT
HETATM    1  C   UNL     1     -10.030  10.538  65.056  1.00  0.00    -0.388 C  
HETATM    2  C   UNL     1     -10.764  11.881  65.142  1.00  0.00    -0.291 C  
ENDROOT
BRANCH   2   3
HETATM    3  O   UNL     1     -10.875  12.468  63.824  1.00  0.00    -0.394 OA 
BRANCH   3   4
HETATM    4  C   UNL     1     -12.100  12.817  63.372  1.00  0.00    -0.534 C  
HETATM    5  H2  UNL     1     -12.449  10.760  63.090  1.00  0.00     0.000 HD 
HETATM    6  O   UNL     1     -12.550  13.948  63.339  1.00  0.00    -0.853 OA 
HETATM    7  N   UNL     1     -12.795  11.716  63.023  1.00  0.00    -0.889 N  
HETATM    8  H1  UNL     1     -13.720  11.979  62.682  1.00  0.00     0.000 HD 
ENDBRANCH   3   4
ENDBRANCH   2   3
BRANCH   2   9
HETATM    9  C   UNL     1     -10.125  12.804  66.210  1.00  0.00    -0.259 C  
BRANCH   9  10
HETATM   10  N   UNL     1     -11.036  13.187  67.414  1.00  0.00    -0.259 N  
HETATM   11  C   UNL     1     -12.142  14.097  66.868  1.00  0.00    -0.432 C  
HETATM   12  C   UNL     1     -10.262  13.949  68.481  1.00  0.00    -0.240 C  
HETATM   13  C   UNL     1     -11.711  11.978  68.045  1.00  0.00    -0.331 C  
ENDBRANCH   9  10
ENDBRANCH   2   9
TORSDOF 4
ENDMDL
MODEL        8
REMARK 921   NORMALIZED FREE ENERGY PREDICTED BY IDOCK:   -3.85 KCAL/MOL
REMARK 922        TOTAL FREE ENERGY PREDICTED BY IDOCK:   -5.13 KCAL/MOL
REMARK 923 INTER-LIGAND FREE ENERGY PREDICTED BY IDOCK:   -5.11 KCAL/MOL
REMARK 924 INTRA-LIGAND FREE ENERGY PREDICTED BY IDOCK:   -0.02 KCAL/MOL
REMARK 927      BINDING AFFINITY PREDICTED BY RF-SCORE:    0.00 PKD
ROOT
HETATM    1  C   UNL     1     -11.513  11.674  67.042  1.00  0.00    -0.336 C  
HETATM    2  C   UNL     1     -11.853  12.777  66.032  1.00  0.00    -0.439 C  
ENDROOT
BRANCH   2   3
HETATM    3  O   UNL     1     -12.670  12.235  64.967  1.00  0.00    -0.581 OA 
BRANCH   3   4
HETATM    4  C   UNL     1     -12.337  12.518  63.689  1.00  0.00    -0.522 C  
HETATM    5  H2  UNL     1     -11.468  10.601  63.618  1.00  0.00     0.000 HD 
HETATM    6  O   UNL     1     -12.634  13.532  63.084  1.00  0.00    -0.762 OA 
HETATM    7  N   UNL     1     -11.681  11.476  63.139  1.00  0.00    -0.890 N  
HETATM    8  H1  UNL     1     -11.430  11.689  62.174  1.00  0.00     0.000 HD 
ENDBRANCH   3   4
ENDBRANCH   2   3
BRANCH   2   9
HETATM    9  C   UNL     1     -10.577  13.517  65.557  1.00  0.00    -0.296 C  
BRANCH   9  10
HETATM   10  N   UNL     1     -10.484  15.026  65.935  1.00  0.00    -0.309 N  
HETATM   11  C   UNL     1      -8.999  15.345  66.141  1.00  0.00    -0.259 C  
HETATM   12  C   UNL     1     -11.230  15.325  67.227  1.00  0.00    -0.306 C  
HETATM   13  C   UNL     1     -10.998  15.938  64.831  1.00  0.00    -0.411 C  
ENDBRANCH   9  10
ENDBRANCH   2   9
TORSDOF 4
ENDMDL
MODEL        9
REMARK 921   NORMALIZED FREE ENERGY PREDICTED BY IDOCK:   -3.83 KCAL/MOL
REMARK 922        TOTAL FREE ENERGY PREDICTED BY IDOCK:   -5.10 KCAL/MOL
REMARK 923 INTER-LIGAND FREE ENERGY PREDICTED BY IDOCK:   -4.84 KCAL/MOL
REMARK 924 INTRA-LIGAND FREE ENERGY PREDICTED BY IDOCK:   -0.26 KCAL/MOL
REMARK 927      BINDING AFFINITY PREDICTED BY RF-SCORE:    0.00 PKD
ROOT
HETATM    1  C   UNL     1     -12.098  14.196  66.609  1.00  0.00    -0.480 C  
HETATM    2  C   UNL     1     -11.801  12.839  65.962  1.00  0.00    -0.439 C  
ENDROOT
BRANCH   2   3
HETATM    3  O   UNL     1     -12.812  12.532  64.973  1.00  0.00    -0.742 OA 
BRANCH   3   4
HETATM    4  C   UNL     1     -12.523  12.732  63.668  1.00  0.00    -0.389 C  
HETATM    5  H2  UNL     1     -12.296  10.643  63.524  1.00  0.00     0.000 HD 
HETATM    6  O   UNL     1     -12.546  13.803  63.090  1.00  0.00    -0.793 OA 
HETATM    7  N   UNL     1     -12.272  11.553  63.064  1.00  0.00    -0.941 N  
HETATM    8  H1  UNL     1     -12.053  11.703  62.079  1.00  0.00     0.000 HD 
ENDBRANCH   3   4
ENDBRANCH   2   3
BRANCH   2   9
HETATM    9  C   UNL     1     -11.589  11.740  67.033  1.00  0.00    -0.244 C  
BRANCH   9  10
HETATM   10  N   UNL     1     -10.227  10.985  66.975  1.00  0.00    -0.203 N  
HETATM   11  C   UNL     1     -10.539   9.488  67.070  1.00  0.00    -0.201 C  
HETATM   12  C   UNL     1      -9.325  11.369  68.140  1.00  0.00    -0.181 C  
HETATM   13  C   UNL     1      -9.487  11.214  65.665  1.00  0.00    -0.224 C  
ENDBRANCH   9  10
ENDBRANCH   2   9
TORSDOF 4
ENDMDL
MODEL       10
REMARK 921   NORMALIZED FREE ENERGY PREDICTED BY IDOCK:   -3.83 KCAL/MOL
REMARK 922        TOTAL FREE ENERGY PREDICTED BY IDOCK:   -5.10 KCAL/MOL
REMARK 923 INTER-LIGAND FREE ENERGY PREDICTED BY IDOCK:   -5.19 KCAL/MOL
REMARK 924 INTRA-LIGAND FREE ENERGY PREDICTED BY IDOCK:    0.09 KCAL/MOL
REMARK 927      BINDING AFFINITY PREDICTED BY RF-SCORE:    0.00 PKD
ROOT
HETATM    1  C   UNL     1     -11.753  12.631  66.527  1.00  0.00    -0.463 C  
HETATM    2  C   UNL     1     -12.144  14.108  66.406  1.00  0.00    -0.451 C  
ENDROOT
BRANCH   2   3
HETATM    3  O   UNL     1     -13.020  14.294  65.270  1.00  0.00    -0.679 OA 
BRANCH   3   4
HETATM    4  C   UNL     1     -12.501  14.794  64.127  1.00  0.00    -0.111 C  
HETATM    5  H2  UNL     1     -12.529  12.821  63.393  1.00  0.00     0.000 HD 
HETATM    6  O   UNL     1     -12.291  15.971  63.896  1.00  0.00    -0.855 OA 
HETATM    7  N   UNL     1     -12.312  13.804  63.232  1.00  0.00    -1.124 N  
HETATM    8  H1  UNL     1     -11.920  14.181  62.369  1.00  0.00     0.000 HD 
ENDBRANCH   3   4
ENDBRANCH   2   3
BRANCH   2   9
HETATM    9  C   UNL     1     -10.894  15.023  66.416  1.00  0.00    -0.326 C  
BRANCH   9  10
HETATM   10  N   UNL     1     -10.590  15.748  67.761  1.00  0.00    -0.284 N  
HETATM   11  C   UNL     1     -11.786  15.496  68.687  1.00  0.00    -0.348 C  
HETATM   12  C   UNL     1     -10.435  17.249  67.564  1.00  0.00    -0.356 C  
HETATM   13  C   UNL     1      -9.352  15.198  68.456  1.00  0.00    -0.192 C  
ENDBRANCH   9  10
ENDBRANCH   2   9
TORSDOF 4
ENDMDL
MODEL       11
REMARK 921   NORMALIZED FREE ENERGY PREDICTED BY IDOCK:   -3.82 KCAL/MOL
REMARK 922        TOTAL FREE ENERGY PREDICTED BY IDOCK:   -5.08 KCAL/MOL
REMARK 923 INTER-LIGAND FREE ENERGY PREDICTED BY IDOCK:   -4.88 KCAL/MOL
REMARK 924 INTRA-LIGAND FREE ENERGY PREDICTED BY IDOCK:   -0.20 KCAL/MOL
REMARK 927      BINDING AFFINITY PREDICTED BY RF-SCORE:    0.00 PKD
ROOT
HETATM    1  C   UNL     1      -9.815  13.721  66.244  1.00  0.00    -0.314 C  
HETATM    2  C   UNL     1     -10.635  14.998  66.033  1.00  0.00    -0.322 C  
ENDROOT
BRANCH   2   3
HETATM    3  O   UNL     1     -11.188  15.014  64.696  1.00  0.00    -0.374 OA 
BRANCH   3   4
HETATM    4  C   UNL     1     -12.321  14.318  64.456  1.00  0.00    -0.410 C  
HETATM    5  H2  UNL     1     -11.571  13.999  62.515  1.00  0.00     0.000 HD 
HETATM    6  O   UNL     1     -13.196  14.082  65.269  1.00  0.00    -0.782 OA 
HETATM    7  N   UNL     1     -12.319  13.850  63.192  1.00  0.00    -1.106 N  
HETATM    8  H1  UNL     1     -13.174  13.325  63.011  1.00  0.00     0.000 HD 
ENDBRANCH   3   4
ENDBRANCH   2   3
BRANCH   2   9
HETATM    9  C   UNL     1      -9.819  16.260  66.411  1.00  0.00    -0.291 C  
BRANCH   9  10
HETATM   10  N   UNL     1     -10.227  16.963  67.741  1.00  0.00    -0.296 N  
HETATM   11  C   UNL     1      -8.981  16.996  68.632  1.00  0.00    -0.267 C  
HETATM   12  C   UNL     1     -11.324  16.196  68.465  1.00  0.00    -0.359 C  
HETATM   13  C   UNL     1     -10.673  18.403  67.527  1.00  0.00    -0.365 C  
ENDBRANCH   9  10
ENDBRANCH   2   9
TORSDOF 4
ENDMDL
MODEL       12
REMARK 921   NORMALIZED FREE ENERGY PREDICTED BY IDOCK:   -3.74 KCAL/MOL
REMARK 922        TOTAL FREE ENERGY PREDICTED BY IDOCK:   -4.98 KCAL/MOL
REMARK 923 INTER-LIGAND FREE ENERGY PREDICTED BY IDOCK:   -4.73 KCAL/MOL
REMARK 924 INTRA-LIGAND FREE ENERGY PREDICTED BY IDOCK:   -0.25 KCAL/MOL
REMARK 927      BINDING AFFINITY PREDICTED BY RF-SCORE:    0.00 PKD
ROOT
HETATM    1  C   UNL     1     -11.886  13.983  66.634  1.00  0.00    -0.443 C  
HETATM    2  C   UNL     1     -11.557  12.654  65.943  1.00  0.00    -0.396 C  
ENDROOT
BRANCH   2   3
HETATM    3  O   UNL     1     -12.599  12.320  64.996  1.00  0.00    -0.575 OA 
BRANCH   3   4
HETATM    4  C   UNL     1     -12.406  12.616  63.692  1.00  0.00    -0.492 C  
HETATM    5  H2  UNL     1     -12.078  10.558  63.397  1.00  0.00     0.000 HD 
HETATM    6  O   UNL     1     -12.524  13.719  63.187  1.00  0.00    -0.786 OA 
HETATM    7  N   UNL     1     -12.132  11.494  62.997  1.00  0.00    -0.920 N  
HETATM    8  H1  UNL     1     -11.987  11.717  62.013  1.00  0.00     0.000 HD 
ENDBRANCH   3   4
ENDBRANCH   2   3
BRANCH   2   9
HETATM    9  C   UNL     1     -11.244  11.545  66.978  1.00  0.00    -0.300 C  
BRANCH   9  10
HETATM   10  N   UNL     1      -9.897  10.786  66.778  1.00  0.00    -0.187 N  
HETATM   11  C   UNL     1      -8.793  11.845  66.696  1.00  0.00    -0.191 C  
HETATM   12  C   UNL     1      -9.897   9.980  65.487  1.00  0.00    -0.303 C  
HETATM   13  C   UNL     1      -9.564   9.870  67.947  1.00  0.00    -0.138 C  
ENDBRANCH   9  10
ENDBRANCH   2   9
TORSDOF 4
ENDMDL
MODEL       13
REMARK 921   NORMALIZED FREE ENERGY PREDICTED BY IDOCK:   -3.72 KCAL/MOL
REMARK 922        TOTAL FREE ENERGY PREDICTED BY IDOCK:   -4.96 KCAL/MOL
REMARK 923 INTER-LIGAND FREE ENERGY PREDICTED BY IDOCK:   -4.69 KCAL/MOL
REMARK 924 INTRA-LIGAND FREE ENERGY PREDICTED BY IDOCK:   -0.27 KCAL/MOL
REMARK 927      BINDING AFFINITY PREDICTED BY RF-SCORE:    0.00 PKD
ROOT
HETATM    1  C   UNL     1     -11.346  15.767  68.134  1.00  0.00    -0.337 C  
HETATM    2  C   UNL     1     -10.536  16.482  67.047  1.00  0.00    -0.289 C  
ENDROOT
BRANCH   2   3
HETATM    3  O   UNL     1     -10.296  15.583  65.939  1.00  0.00    -0.302 OA 
BRANCH   3   4
HETATM    4  C   UNL     1     -11.053  15.710  64.827  1.00  0.00    -0.412 C  
HETATM    5  H2  UNL     1     -11.305  13.621  64.907  1.00  0.00     0.000 HD 
HETATM    6  O   UNL     1     -11.349  16.759  64.284  1.00  0.00    -1.170 OA 
HETATM    7  N   UNL     1     -11.505  14.502  64.434  1.00  0.00    -0.605 N  
HETATM    8  H1  UNL     1     -12.076  14.597  63.595  1.00  0.00     0.000 HD 
ENDBRANCH   3   4
ENDBRANCH   2   3
BRANCH   2   9
HETATM    9  C   UNL     1      -9.262  17.138  67.636  1.00  0.00    -0.238 C  
BRANCH   9  10
HETATM   10  N   UNL     1      -9.233  18.696  67.633  1.00  0.00    -0.279 N  
HETATM   11  C   UNL     1      -9.790  19.152  66.280  1.00  0.00    -0.383 C  
HETATM   12  C   UNL     1      -7.816  19.229  67.781  1.00  0.00    -0.275 C  
HETATM   13  C   UNL     1     -10.117  19.300  68.716  1.00  0.00    -0.401 C  
ENDBRANCH   9  10
ENDBRANCH   2   9
TORSDOF 4
ENDMDL
MODEL       14
REMARK 921   NORMALIZED FREE ENERGY PREDICTED BY IDOCK:   -3.70 KCAL/MOL
REMARK 922        TOTAL FREE ENERGY PREDICTED BY IDOCK:   -4.94 KCAL/MOL
REMARK 923 INTER-LIGAND FREE ENERGY PREDICTED BY IDOCK:   -4.70 KCAL/MOL
REMARK 924 INTRA-LIGAND FREE ENERGY PREDICTED BY IDOCK:   -0.24 KCAL/MOL
REMARK 927      BINDING AFFINITY PREDICTED BY RF-SCORE:    0.00 PKD
ROOT
HETATM    1  C   UNL     1      -9.645  10.443  63.551  1.00  0.00    -0.361 C  
HETATM    2  C   UNL     1     -10.410  11.466  64.397  1.00  0.00    -0.320 C  
ENDROOT
BRANCH   2   3
HETATM    3  O   UNL     1     -10.822  12.580  63.570  1.00  0.00    -0.440 OA 
BRANCH   3   4
HETATM    4  C   UNL     1     -12.141  12.770  63.349  1.00  0.00    -0.534 C  
HETATM    5  H2  UNL     1     -11.680  14.805  63.073  1.00  0.00     0.000 HD 
HETATM    6  O   UNL     1     -12.990  11.896  63.315  1.00  0.00    -0.707 OA 
HETATM    7  N   UNL     1     -12.387  14.071  63.096  1.00  0.00    -1.094 N  
HETATM    8  H1  UNL     1     -13.383  14.214  62.930  1.00  0.00     0.000 HD 
ENDBRANCH   3   4
ENDBRANCH   2   3
BRANCH   2   9
HETATM    9  C   UNL     1      -9.609  11.861  65.663  1.00  0.00    -0.204 C  
BRANCH   9  10
HETATM   10  N   UNL     1     -10.315  11.598  67.027  1.00  0.00    -0.212 N  
HETATM   11  C   UNL     1     -11.637  12.373  67.005  1.00  0.00    -0.365 C  
HETATM   12  C   UNL     1      -9.477  12.097  68.195  1.00  0.00    -0.205 C  
HETATM   13  C   UNL     1     -10.651  10.129  67.237  1.00  0.00    -0.261 C  
ENDBRANCH   9  10
ENDBRANCH   2   9
TORSDOF 4
ENDMDL
MODEL       15
REMARK 921   NORMALIZED FREE ENERGY PREDICTED BY IDOCK:   -3.70 KCAL/MOL
REMARK 922        TOTAL FREE ENERGY PREDICTED BY IDOCK:   -4.94 KCAL/MOL
REMARK 923 INTER-LIGAND FREE ENERGY PREDICTED BY IDOCK:   -4.67 KCAL/MOL
REMARK 924 INTRA-LIGAND FREE ENERGY PREDICTED BY IDOCK:   -0.28 KCAL/MOL
REMARK 927      BINDING AFFINITY PREDICTED BY RF-SCORE:    0.00 PKD
ROOT
HETATM    1  C   UNL     1     -11.990  14.210  66.931  1.00  0.00    -0.479 C  
HETATM    2  C   UNL     1     -11.752  12.952  66.088  1.00  0.00    -0.396 C  
ENDROOT
BRANCH   2   3
HETATM    3  O   UNL     1     -12.833  12.781  65.141  1.00  0.00    -0.726 OA 
BRANCH   3   4
HETATM    4  C   UNL     1     -12.535  12.695  63.826  1.00  0.00    -0.420 C  
HETATM    5  H2  UNL     1     -12.642  14.797  63.787  1.00  0.00     0.000 HD 
HETATM    6  O   UNL     1     -12.283  11.669  63.220  1.00  0.00    -0.430 OA 
HETATM    7  N   UNL     1     -12.482  13.926  63.281  1.00  0.00    -1.112 N  
HETATM    8  H1  UNL     1     -12.256  13.862  62.289  1.00  0.00     0.000 HD 
ENDBRANCH   3   4
ENDBRANCH   2   3
BRANCH   2   9
HETATM    9  C   UNL     1     -11.474  11.719  66.983  1.00  0.00    -0.298 C  
BRANCH   9  10
HETATM   10  N   UNL     1     -10.018  11.165  66.947  1.00  0.00    -0.193 N  
HETATM   11  C   UNL     1     -10.087   9.694  67.374  1.00  0.00    -0.204 C  
HETATM   12  C   UNL     1      -9.112  11.910  67.917  1.00  0.00    -0.183 C  
HETATM   13  C   UNL     1      -9.410  11.207  65.552  1.00  0.00    -0.223 C  
ENDBRANCH   9  10
ENDBRANCH   2   9
TORSDOF 4
ENDMDL
MODEL       16
REMARK 921   NORMALIZED FREE ENERGY PREDICTED BY IDOCK:   -3.67 KCAL/MOL
REMARK 922        TOTAL FREE ENERGY PREDICTED BY IDOCK:   -4.91 KCAL/MOL
REMARK 923 INTER-LIGAND FREE ENERGY PREDICTED BY IDOCK:   -4.69 KCAL/MOL
REMARK 924 INTRA-LIGAND FREE ENERGY PREDICTED BY IDOCK:   -0.22 KCAL/MOL
REMARK 927      BINDING AFFINITY PREDICTED BY RF-SCORE:    0.00 PKD
ROOT
HETATM    1  C   UNL     1     -11.941  13.006  66.557  1.00  0.00    -0.457 C  
HETATM    2  C   UNL     1     -10.940  13.678  65.610  1.00  0.00    -0.290 C  
ENDROOT
BRANCH   2   3
HETATM    3  O   UNL     1     -10.792  12.888  64.407  1.00  0.00    -0.335 OA 
BRANCH   3   4
HETATM    4  C   UNL     1     -11.832  12.817  63.548  1.00  0.00    -0.546 C  
HETATM    5  H2  UNL     1     -11.384  10.768  63.363  1.00  0.00     0.000 HD 
HETATM    6  O   UNL     1     -12.582  13.733  63.262  1.00  0.00    -0.830 OA 
HETATM    7  N   UNL     1     -11.974  11.555  63.095  1.00  0.00    -0.917 N  
HETATM    8  H1  UNL     1     -12.759  11.501  62.447  1.00  0.00     0.000 HD 
ENDBRANCH   3   4
ENDBRANCH   2   3
BRANCH   2   9
HETATM    9  C   UNL     1      -9.611  14.006  66.337  1.00  0.00    -0.283 C  
BRANCH   9  10
HETATM   10  N   UNL     1      -9.428  15.486  66.790  1.00  0.00    -0.225 N  
HETATM   11  C   UNL     1     -10.329  16.344  65.894  1.00  0.00    -0.362 C  
HETATM   12  C   UNL     1      -7.988  15.948  66.619  1.00  0.00    -0.235 C  
HETATM   13  C   UNL     1      -9.866  15.715  68.230  1.00  0.00    -0.209 C  
ENDBRANCH   9  10
ENDBRANCH   2   9
TORSDOF 4
ENDMDL
MODEL       17
REMARK 921   NORMALIZED FREE ENERGY PREDICTED BY IDOCK:   -3.63 KCAL/MOL
REMARK 922        TOTAL FREE ENERGY PREDICTED BY IDOCK:   -4.85 KCAL/MOL
REMARK 923 INTER-LIGAND FREE ENERGY PREDICTED BY IDOCK:   -4.62 KCAL/MOL
REMARK 924 INTRA-LIGAND FREE ENERGY PREDICTED BY IDOCK:   -0.23 KCAL/MOL
REMARK 927      BINDING AFFINITY PREDICTED BY RF-SCORE:    0.00 PKD
ROOT
HETATM    1  C   UNL     1     -10.955  15.651  64.952  1.00  0.00    -0.447 C  
HETATM    2  C   UNL     1     -11.310  14.213  65.345  1.00  0.00    -0.322 C  
ENDROOT
BRANCH   2   3
HETATM    3  O   UNL     1     -12.072  13.586  64.286  1.00  0.00    -0.412 OA 
BRANCH   3   4
HETATM    4  C   UNL     1     -11.519  12.551  63.616  1.00  0.00    -0.493 C  
HETATM    5  H2  UNL     1     -13.486  11.912  63.222  1.00  0.00     0.000 HD 
HETATM    6  O   UNL     1     -10.328  12.381  63.428  1.00  0.00    -0.413 OA 
HETATM    7  N   UNL     1     -12.484  11.756  63.114  1.00  0.00    -0.939 N  
HETATM    8  H1  UNL     1     -12.067  10.975  62.608  1.00  0.00     0.000 HD 
ENDBRANCH   3   4
ENDBRANCH   2   3
BRANCH   2   9
HETATM    9  C   UNL     1     -11.978  14.160  66.742  1.00  0.00    -0.447 C  
BRANCH   9  10
HETATM   10  N   UNL     1     -11.278  13.255  67.799  1.00  0.00    -0.267 N  
HETATM   11  C   UNL     1      -9.808  13.685  67.856  1.00  0.00    -0.237 C  
HETATM   12  C   UNL     1     -11.340  11.786  67.406  1.00  0.00    -0.311 C  
HETATM   13  C   UNL     1     -11.858  13.430  69.195  1.00  0.00    -0.336 C  
ENDBRANCH   9  10
ENDBRANCH   2   9
TORSDOF 4
ENDMDL
MODEL       18
REMARK 921   NORMALIZED FREE ENERGY PREDICTED BY IDOCK:   -3.62 KCAL/MOL
REMARK 922        TOTAL FREE ENERGY PREDICTED BY IDOCK:   -4.84 KCAL/MOL
REMARK 923 INTER-LIGAND FREE ENERGY PREDICTED BY IDOCK:   -4.56 KCAL/MOL
REMARK 924 INTRA-LIGAND FREE ENERGY PREDICTED BY IDOCK:   -0.28 KCAL/MOL
REMARK 927      BINDING AFFINITY PREDICTED BY RF-SCORE:    0.00 PKD
ROOT
HETATM    1  C   UNL     1     -11.907  14.168  68.084  1.00  0.00    -0.387 C  
HETATM    2  C   UNL     1     -11.638  13.548  66.708  1.00  0.00    -0.363 C  
ENDROOT
BRANCH   2   3
HETATM    3  O   UNL     1     -12.542  14.110  65.729  1.00  0.00    -0.488 OA 
BRANCH   3   4
HETATM    4  C   UNL     1     -12.022  14.682  64.621  1.00  0.00    -0.462 C  
HETATM    5  H2  UNL     1     -13.108  13.253  63.520  1.00  0.00     0.000 HD 
HETATM    6  O   UNL     1     -11.306  15.667  64.598  1.00  0.00    -0.431 OA 
HETATM    7  N   UNL     1     -12.469  14.049  63.518  1.00  0.00    -1.099 N  
HETATM    8  H1  UNL     1     -12.077  14.480  62.682  1.00  0.00     0.000 HD 
ENDBRANCH   3   4
ENDBRANCH   2   3
BRANCH   2   9
HETATM    9  C   UNL     1     -11.641  12.001  66.779  1.00  0.00    -0.321 C  
BRANCH   9  10
HETATM   10  N   UNL     1     -10.325  11.295  66.331  1.00  0.00    -0.237 N  
HETATM   11  C   UNL     1     -10.388  11.156  64.806  1.00  0.00    -0.325 C  
HETATM   12  C   UNL     1     -10.200   9.906  66.942  1.00  0.00    -0.240 C  
HETATM   13  C   UNL     1      -9.083  12.108  66.664  1.00  0.00    -0.206 C  
ENDBRANCH   9  10
ENDBRANCH   2   9
TORSDOF 4
ENDMDL
MODEL       19
REMARK 921   NORMALIZED FREE ENERGY PREDICTED BY IDOCK:   -3.59 KCAL/MOL
REMARK 922        TOTAL FREE ENERGY PREDICTED BY IDOCK:   -4.81 KCAL/MOL
REMARK 923 INTER-LIGAND FREE ENERGY PREDICTED BY IDOCK:   -4.52 KCAL/MOL
REMARK 924 INTRA-LIGAND FREE ENERGY PREDICTED BY IDOCK:   -0.29 KCAL/MOL
REMARK 927      BINDING AFFINITY PREDICTED BY RF-SCORE:    0.00 PKD
ROOT
HETATM    1  C   UNL     1     -11.058  11.207  67.150  1.00  0.00    -0.352 C  
HETATM    2  C   UNL     1     -10.966  11.896  65.784  1.00  0.00    -0.311 C  
ENDROOT
BRANCH   2   3
HETATM    3  O   UNL     1     -10.339  11.010  64.826  1.00  0.00    -0.294 OA 
BRANCH   3   4
HETATM    4  C   UNL     1     -10.368  11.346  63.518  1.00  0.00    -0.423 C  
HETATM    5  H2  UNL     1     -12.466  11.241  63.662  1.00  0.00     0.000 HD 
HETATM    6  O   UNL     1      -9.399  11.615  62.831  1.00  0.00    -0.349 OA 
HETATM    7  N   UNL     1     -11.643  11.416  63.086  1.00  0.00    -0.873 N  
HETATM    8  H1  UNL     1     -11.666  11.670  62.099  1.00  0.00     0.000 HD 
ENDBRANCH   3   4
ENDBRANCH   2   3
BRANCH   2   9
HETATM    9  C   UNL     1     -10.306  13.292  65.902  1.00  0.00    -0.292 C  
BRANCH   9  10
HETATM   10  N   UNL     1     -11.283  14.501  66.017  1.00  0.00    -0.332 N  
HETATM   11  C   UNL     1     -12.645  14.029  65.494  1.00  0.00    -0.516 C  
HETATM   12  C   UNL     1     -10.818  15.678  65.173  1.00  0.00    -0.431 C  
HETATM   13  C   UNL     1     -11.481  14.957  67.456  1.00  0.00    -0.348 C  
ENDBRANCH   9  10
ENDBRANCH   2   9
TORSDOF 4
ENDMDL
MODEL       20
REMARK 921   NORMALIZED FREE ENERGY PREDICTED BY IDOCK:   -3.59 KCAL/MOL
REMARK 922        TOTAL FREE ENERGY PREDICTED BY IDOCK:   -4.80 KCAL/MOL
REMARK 923 INTER-LIGAND FREE ENERGY PREDICTED BY IDOCK:   -4.47 KCAL/MOL
REMARK 924 INTRA-LIGAND FREE ENERGY PREDICTED BY IDOCK:   -0.33 KCAL/MOL
REMARK 927      BINDING AFFINITY PREDICTED BY RF-SCORE:    0.00 PKD
ROOT
HETATM    1  C   UNL     1     -10.258  11.707  63.461  1.00  0.00    -0.474 C  
HETATM    2  C   UNL     1     -10.554  12.473  64.756  1.00  0.00    -0.305 C  
ENDROOT
BRANCH   2   3
HETATM    3  O   UNL     1     -10.773  13.873  64.461  1.00  0.00    -0.412 OA 
BRANCH   3   4
HETATM    4  C   UNL     1     -12.026  14.368  64.565  1.00  0.00    -0.472 C  
HETATM    5  H2  UNL     1     -11.406  15.886  63.245  1.00  0.00     0.000 HD 
HETATM    6  O   UNL     1     -12.941  13.862  65.190  1.00  0.00    -0.744 OA 
HETATM    7  N   UNL     1     -12.150  15.479  63.812  1.00  0.00    -0.974 N  
HETATM    8  H1  UNL     1     -13.095  15.852  63.890  1.00  0.00     0.000 HD 
ENDBRANCH   3   4
ENDBRANCH   2   3
BRANCH   2   9
HETATM    9  C   UNL     1      -9.473  12.199  65.831  1.00  0.00    -0.179 C  
BRANCH   9  10
HETATM   10  N   UNL     1      -9.978  12.121  67.303  1.00  0.00    -0.202 N  
HETATM   11  C   UNL     1      -9.993  13.554  67.848  1.00  0.00    -0.245 C  
HETATM   12  C   UNL     1      -9.052  11.280  68.168  1.00  0.00    -0.166 C  
HETATM   13  C   UNL     1     -11.397  11.580  67.405  1.00  0.00    -0.298 C  
ENDBRANCH   9  10
ENDBRANCH   2   9
TORSDOF 4
ENDMDL
MODEL       21
REMARK 921   NORMALIZED FREE ENERGY PREDICTED BY IDOCK:   -3.54 KCAL/MOL
REMARK 922        TOTAL FREE ENERGY PREDICTED BY IDOCK:   -4.75 KCAL/MOL
REMARK 923 INTER-LIGAND FREE ENERGY PREDICTED BY IDOCK:   -4.50 KCAL/MOL
REMARK 924 INTRA-LIGAND FREE ENERGY PREDICTED BY IDOCK:   -0.24 KCAL/MOL
REMARK 927      BINDING AFFINITY PREDICTED BY RF-SCORE:    0.00 PKD
ROOT
HETATM    1  C   UNL     1     -11.430  14.534  67.547  1.00  0.00    -0.375 C  
HETATM    2  C   UNL     1     -10.818  15.045  66.237  1.00  0.00    -0.333 C  
ENDROOT
BRANCH   2   3
HETATM    3  O   UNL     1     -10.972  14.048  65.200  1.00  0.00    -0.319 OA 
BRANCH   3   4
HETATM    4  C   UNL     1     -11.971  14.197  64.302  1.00  0.00    -0.435 C  
HETATM    5  H2  UNL     1     -11.376  16.212  64.157  1.00  0.00     0.000 HD 
HETATM    6  O   UNL     1     -12.697  13.310  63.891  1.00  0.00    -0.667 OA 
HETATM    7  N   UNL     1     -12.009  15.470  63.858  1.00  0.00    -0.986 N  
HETATM    8  H1  UNL     1     -12.762  15.583  63.180  1.00  0.00     0.000 HD 
ENDBRANCH   3   4
ENDBRANCH   2   3
BRANCH   2   9
HETATM    9  C   UNL     1      -9.366  15.539  66.450  1.00  0.00    -0.298 C  
BRANCH   9  10
HETATM   10  N   UNL     1      -9.197  17.065  66.719  1.00  0.00    -0.242 N  
HETATM   11  C   UNL     1      -9.134  17.249  68.239  1.00  0.00    -0.262 C  
HETATM   12  C   UNL     1     -10.377  17.861  66.180  1.00  0.00    -0.352 C  
HETATM   13  C   UNL     1      -7.904  17.621  66.139  1.00  0.00    -0.234 C  
ENDBRANCH   9  10
ENDBRANCH   2   9
TORSDOF 4
ENDMDL
MODEL       22
REMARK 921   NORMALIZED FREE ENERGY PREDICTED BY IDOCK:   -3.53 KCAL/MOL
REMARK 922        TOTAL FREE ENERGY PREDICTED BY IDOCK:   -4.73 KCAL/MOL
REMARK 923 INTER-LIGAND FREE ENERGY PREDICTED BY IDOCK:   -4.52 KCAL/MOL
REMARK 924 INTRA-LIGAND FREE ENERGY PREDICTED BY IDOCK:   -0.21 KCAL/MOL
REMARK 927      BINDING AFFINITY PREDICTED BY RF-SCORE:    0.00 PKD
ROOT
HETATM    1  C   UNL     1      -9.828  10.998  63.212  1.00  0.00    -0.406 C  
HETATM    2  C   UNL     1     -10.442  11.472  64.534  1.00  0.00    -0.314 C  
ENDROOT
BRANCH   2   3
HETATM    3  O   UNL     1     -10.967  12.812  64.381  1.00  0.00    -0.319 OA 
BRANCH   3   4
HETATM    4  C   UNL     1     -12.226  12.964  63.913  1.00  0.00    -0.449 C  
HETATM    5  H2  UNL     1     -11.660  14.918  63.372  1.00  0.00     0.000 HD 
HETATM    6  O   UNL     1     -13.084  12.100  63.887  1.00  0.00    -0.749 OA 
HETATM    7  N   UNL     1     -12.384  14.201  63.401  1.00  0.00    -1.144 N  
HETATM    8  H1  UNL     1     -13.333  14.316  63.048  1.00  0.00     0.000 HD 
ENDBRANCH   3   4
ENDBRANCH   2   3
BRANCH   2   9
HETATM    9  C   UNL     1      -9.448  11.297  65.709  1.00  0.00    -0.227 C  
BRANCH   9  10
HETATM   10  N   UNL     1      -9.944  10.418  66.897  1.00  0.00    -0.198 N  
HETATM   11  C   UNL     1      -8.887  10.518  68.002  1.00  0.00    -0.131 C  
HETATM   12  C   UNL     1     -10.087   8.959  66.490  1.00  0.00    -0.286 C  
HETATM   13  C   UNL     1     -11.261  10.912  67.480  1.00  0.00    -0.293 C  
ENDBRANCH   9  10
ENDBRANCH   2   9
TORSDOF 4
ENDMDL
MODEL       23
REMARK 921   NORMALIZED FREE ENERGY PREDICTED BY IDOCK:   -3.51 KCAL/MOL
REMARK 922        TOTAL FREE ENERGY PREDICTED BY IDOCK:   -4.71 KCAL/MOL
REMARK 923 INTER-LIGAND FREE ENERGY PREDICTED BY IDOCK:   -4.37 KCAL/MOL
REMARK 924 INTRA-LIGAND FREE ENERGY PREDICTED BY IDOCK:   -0.34 KCAL/MOL
REMARK 927      BINDING AFFINITY PREDICTED BY RF-SCORE:    0.00 PKD
ROOT
HETATM    1  C   UNL     1     -12.434  12.800  64.143  1.00  0.00    -0.450 C  
HETATM    2  C   UNL     1     -11.602  13.509  65.217  1.00  0.00    -0.311 C  
ENDROOT
BRANCH   2   3
HETATM    3  O   UNL     1     -10.740  14.495  64.601  1.00  0.00    -0.399 OA 
BRANCH   3   4
HETATM    4  C   UNL     1     -11.040  15.804  64.755  1.00  0.00    -0.400 C  
HETATM    5  H2  UNL     1      -9.845  15.748  66.488  1.00  0.00     0.000 HD 
HETATM    6  O   UNL     1     -11.699  16.478  63.985  1.00  0.00    -1.111 OA 
HETATM    7  N   UNL     1     -10.439  16.289  65.860  1.00  0.00    -0.347 N  
HETATM    8  H1  UNL     1     -10.665  17.276  65.977  1.00  0.00     0.000 HD 
ENDBRANCH   3   4
ENDBRANCH   2   3
BRANCH   2   9
HETATM    9  C   UNL     1     -10.873  12.490  66.127  1.00  0.00    -0.272 C  
BRANCH   9  10
HETATM   10  N   UNL     1     -10.924  12.783  67.657  1.00  0.00    -0.237 N  
HETATM   11  C   UNL     1     -11.241  11.457  68.358  1.00  0.00    -0.263 C  
HETATM   12  C   UNL     1     -12.016  13.787  67.997  1.00  0.00    -0.355 C  
HETATM   13  C   UNL     1      -9.593  13.280  68.202  1.00  0.00    -0.227 C  
ENDBRANCH   9  10
ENDBRANCH   2   9
TORSDOF 4
ENDMDL
MODEL       24
REMARK 921   NORMALIZED FREE ENERGY PREDICTED BY IDOCK:   -3.50 KCAL/MOL
REMARK 922        TOTAL FREE ENERGY PREDICTED BY IDOCK:   -4.69 KCAL/MOL
REMARK 923 INTER-LIGAND FREE ENERGY PREDICTED BY IDOCK:   -4.47 KCAL/MOL
REMARK 924 INTRA-LIGAND FREE ENERGY PREDICTED BY IDOCK:   -0.22 KCAL/MOL
REMARK 927      BINDING AFFINITY PREDICTED BY RF-SCORE:    0.00 PKD
ROOT
HETATM    1  C   UNL     1      -9.741  14.762  66.183  1.00  0.00    -0.338 C  
HETATM    2  C   UNL     1     -10.789  13.684  66.479  1.00  0.00    -0.283 C  
ENDROOT
BRANCH   2   3
HETATM    3  O   UNL     1     -12.101  14.150  66.083  1.00  0.00    -0.405 OA 
BRANCH   3   4
HETATM    4  C   UNL     1     -12.656  13.643  64.960  1.00  0.00    -0.390 C  
HETATM    5  H2  UNL     1     -12.063  15.424  64.007  1.00  0.00     0.000 HD 
HETATM    6  O   UNL     1     -13.153  12.537  64.849  1.00  0.00    -0.833 OA 
HETATM    7  N   UNL     1     -12.520  14.515  63.941  1.00  0.00    -1.031 N  
HETATM    8  H1  UNL     1     -12.938  14.133  63.094  1.00  0.00     0.000 HD 
ENDBRANCH   3   4
ENDBRANCH   2   3
BRANCH   2   9
HETATM    9  C   UNL     1     -10.692  13.192  67.944  1.00  0.00    -0.235 C  
BRANCH   9  10
HETATM   10  N   UNL     1     -10.670  11.647  68.145  1.00  0.00    -0.203 N  
HETATM   11  C   UNL     1     -10.728  11.012  66.751  1.00  0.00    -0.266 C  
HETATM   12  C   UNL     1     -11.871  11.170  68.948  1.00  0.00    -0.337 C  
HETATM   13  C   UNL     1      -9.390  11.163  68.813  1.00  0.00    -0.149 C  
ENDBRANCH   9  10
ENDBRANCH   2   9
TORSDOF 4
ENDMDL
MODEL       25
REMARK 921   NORMALIZED FREE ENERGY PREDICTED BY IDOCK:   -3.48 KCAL/MOL
REMARK 922        TOTAL FREE ENERGY PREDICTED BY IDOCK:   -4.67 KCAL/MOL
REMARK 923 INTER-LIGAND FREE ENERGY PREDICTED BY IDOCK:   -4.53 KCAL/MOL
REMARK 924 INTRA-LIGAND FREE ENERGY PREDICTED BY IDOCK:   -0.15 KCAL/MOL
REMARK 927      BINDING AFFINITY PREDICTED BY RF-SCORE:    0.00 PKD
ROOT
HETATM    1  C   UNL     1      -9.444  15.484  66.012  1.00  0.00    -0.387 C  
HETATM    2  C   UNL     1     -10.548  14.422  66.072  1.00  0.00    -0.302 C  
ENDROOT
BRANCH   2   3
HETATM    3  O   UNL     1     -11.777  14.958  65.528  1.00  0.00    -0.313 OA 
BRANCH   3   4
HETATM    4  C   UNL     1     -11.822  15.269  64.214  1.00  0.00    -0.225 C  
HETATM    5  H2  UNL     1     -12.390  13.268  63.884  1.00  0.00     0.000 HD 
HETATM    6  O   UNL     1     -11.633  16.373  63.737  1.00  0.00    -1.055 OA 
HETATM    7  N   UNL     1     -12.182  14.187  63.494  1.00  0.00    -1.090 N  
HETATM    8  H1  UNL     1     -12.216  14.421  62.502  1.00  0.00     0.000 HD 
ENDBRANCH   3   4
ENDBRANCH   2   3
BRANCH   2   9
HETATM    9  C   UNL     1     -10.676  13.825  67.495  1.00  0.00    -0.256 C  
BRANCH   9  10
HETATM   10  N   UNL     1     -10.473  12.284  67.609  1.00  0.00    -0.211 N  
HETATM   11  C   UNL     1      -8.962  12.034  67.687  1.00  0.00    -0.172 C  
HETATM   12  C   UNL     1     -11.025  11.556  66.392  1.00  0.00    -0.284 C  
HETATM   13  C   UNL     1     -11.096  11.704  68.871  1.00  0.00    -0.232 C  
ENDBRANCH   9  10
ENDBRANCH   2   9
TORSDOF 4
ENDMDL
MODEL       26
REMARK 921   NORMALIZED FREE ENERGY PREDICTED BY IDOCK:   -3.41 KCAL/MOL
REMARK 922        TOTAL FREE ENERGY PREDICTED BY IDOCK:   -4.58 KCAL/MOL
REMARK 923 INTER-LIGAND FREE ENERGY PREDICTED BY IDOCK:   -4.27 KCAL/MOL
REMARK 924 INTRA-LIGAND FREE ENERGY PREDICTED BY IDOCK:   -0.30 KCAL/MOL
REMARK 927      BINDING AFFINITY PREDICTED BY RF-SCORE:    0.00 PKD
ROOT
HETATM    1  C   UNL     1     -11.816  15.562  69.079  1.00  0.00    -0.373 C  
HETATM    2  C   UNL     1     -11.560  14.464  68.040  1.00  0.00    -0.327 C  
ENDROOT
BRANCH   2   3
HETATM    3  O   UNL     1     -10.865  13.355  68.656  1.00  0.00    -0.251 OA 
BRANCH   3   4
HETATM    4  C   UNL     1     -11.554  12.221  68.913  1.00  0.00    -0.316 C  
HETATM    5  H2  UNL     1     -11.282  12.661  70.954  1.00  0.00     0.000 HD 
HETATM    6  O   UNL     1     -12.066  11.496  68.079  1.00  0.00    -0.617 OA 
HETATM    7  N   UNL     1     -11.664  12.036  70.244  1.00  0.00    -0.530 N  
HETATM    8  H1  UNL     1     -12.184  11.181  70.437  1.00  0.00     0.000 HD 
ENDBRANCH   3   4
ENDBRANCH   2   3
BRANCH   2   9
HETATM    9  C   UNL     1     -10.873  15.037  66.775  1.00  0.00    -0.318 C  
BRANCH   9  10
HETATM   10  N   UNL     1     -11.397  14.497  65.411  1.00  0.00    -0.331 N  
HETATM   11  C   UNL     1     -11.506  15.699  64.465  1.00  0.00    -0.300 C  
HETATM   12  C   UNL     1     -12.773  13.863  65.552  1.00  0.00    -0.499 C  
HETATM   13  C   UNL     1     -10.443  13.499  64.772  1.00  0.00    -0.413 C  
ENDBRANCH   9  10
ENDBRANCH   2   9
TORSDOF 4
ENDMDL
MODEL       27
REMARK 921   NORMALIZED FREE ENERGY PREDICTED BY IDOCK:   -3.33 KCAL/MOL
REMARK 922        TOTAL FREE ENERGY PREDICTED BY IDOCK:   -4.48 KCAL/MOL
REMARK 923 INTER-LIGAND FREE ENERGY PREDICTED BY IDOCK:   -4.27 KCAL/MOL
REMARK 924 INTRA-LIGAND FREE ENERGY PREDICTED BY IDOCK:   -0.21 KCAL/MOL
REMARK 927      BINDING AFFINITY PREDICTED BY RF-SCORE:    0.00 PKD
ROOT
HETATM    1  C   UNL     1     -10.335  16.569  66.415  1.00  0.00    -0.316 C  
HETATM    2  C   UNL     1     -10.557  15.081  66.122  1.00  0.00    -0.310 C  
ENDROOT
BRANCH   2   3
HETATM    3  O   UNL     1     -10.812  14.890  64.710  1.00  0.00    -0.394 OA 
BRANCH   3   4
HETATM    4  C   UNL     1     -11.311  13.704  64.297  1.00  0.00    -0.350 C  
HETATM    5  H2  UNL     1     -12.682  14.816  63.150  1.00  0.00     0.000 HD 
HETATM    6  O   UNL     1     -10.871  12.607  64.590  1.00  0.00    -0.290 OA 
HETATM    7  N   UNL     1     -12.334  13.903  63.443  1.00  0.00    -1.139 N  
HETATM    8  H1  UNL     1     -12.710  13.008  63.131  1.00  0.00     0.000 HD 
ENDBRANCH   3   4
ENDBRANCH   2   3
BRANCH   2   9
HETATM    9  C   UNL     1     -11.630  14.477  67.061  1.00  0.00    -0.386 C  
BRANCH   9  10
HETATM   10  N   UNL     1     -11.106  13.504  68.160  1.00  0.00    -0.247 N  
HETATM   11  C   UNL     1     -11.453  14.128  69.516  1.00  0.00    -0.281 C  
HETATM   12  C   UNL     1      -9.596  13.328  68.076  1.00  0.00    -0.220 C  
HETATM   13  C   UNL     1     -11.778  12.139  68.101  1.00  0.00    -0.341 C  
ENDBRANCH   9  10
ENDBRANCH   2   9
TORSDOF 4
ENDMDL
MODEL       28
REMARK 921   NORMALIZED FREE ENERGY PREDICTED BY IDOCK:   -3.32 KCAL/MOL
REMARK 922        TOTAL FREE ENERGY PREDICTED BY IDOCK:   -4.46 KCAL/MOL
REMARK 923 INTER-LIGAND FREE ENERGY PREDICTED BY IDOCK:   -4.21 KCAL/MOL
REMARK 924 INTRA-LIGAND FREE ENERGY PREDICTED BY IDOCK:   -0.26 KCAL/MOL
REMARK 927      BINDING AFFINITY PREDICTED BY RF-SCORE:    0.00 PKD
ROOT
HETATM    1  C   UNL     1     -10.329  15.349  65.124  1.00  0.00    -0.405 C  
HETATM    2  C   UNL     1     -11.122  14.771  66.301  1.00  0.00    -0.341 C  
ENDROOT
BRANCH   2   3
HETATM    3  O   UNL     1     -12.384  14.240  65.833  1.00  0.00    -0.430 OA 
BRANCH   3   4
HETATM    4  C   UNL     1     -12.439  12.945  65.450  1.00  0.00    -0.454 C  
HETATM    5  H2  UNL     1     -13.013  13.655  63.553  1.00  0.00     0.000 HD 
HETATM    6  O   UNL     1     -12.141  11.986  66.139  1.00  0.00    -0.582 OA 
HETATM    7  N   UNL     1     -12.807  12.859  64.156  1.00  0.00    -0.688 N  
HETATM    8  H1  UNL     1     -12.849  11.882  63.867  1.00  0.00     0.000 HD 
ENDBRANCH   3   4
ENDBRANCH   2   3
BRANCH   2   9
HETATM    9  C   UNL     1     -11.239  15.795  67.457  1.00  0.00    -0.218 C  
BRANCH   9  10
HETATM   10  N   UNL     1     -10.888  15.263  68.879  1.00  0.00    -0.236 N  
HETATM   11  C   UNL     1      -9.542  15.882  69.271  1.00  0.00    -0.266 C  
HETATM   12  C   UNL     1     -10.749  13.747  68.890  1.00  0.00    -0.227 C  
HETATM   13  C   UNL     1     -11.906  15.685  69.929  1.00  0.00    -0.360 C  
ENDBRANCH   9  10
ENDBRANCH   2   9
TORSDOF 4
ENDMDL
MODEL       29
REMARK 921   NORMALIZED FREE ENERGY PREDICTED BY IDOCK:   -3.31 KCAL/MOL
REMARK 922        TOTAL FREE ENERGY PREDICTED BY IDOCK:   -4.46 KCAL/MOL
REMARK 923 INTER-LIGAND FREE ENERGY PREDICTED BY IDOCK:   -4.18 KCAL/MOL
REMARK 924 INTRA-LIGAND FREE ENERGY PREDICTED BY IDOCK:   -0.27 KCAL/MOL
REMARK 927      BINDING AFFINITY PREDICTED BY RF-SCORE:    0.00 PKD
ROOT
HETATM    1  C   UNL     1     -12.193  13.168  70.607  1.00  0.00    -0.402 C  
HETATM    2  C   UNL     1     -12.026  14.629  70.174  1.00  0.00    -0.313 C  
ENDROOT
BRANCH   2   3
HETATM    3  O   UNL     1     -13.125  15.422  70.681  1.00  0.00    -0.426 OA 
BRANCH   3   4
HETATM    4  C   UNL     1     -13.083  15.841  71.965  1.00  0.00    -0.428 C  
HETATM    5  H2  UNL     1     -11.172  16.608  71.526  1.00  0.00     0.000 HD 
HETATM    6  O   UNL     1     -13.984  15.734  72.778  1.00  0.00    -0.590 OA 
HETATM    7  N   UNL     1     -11.916  16.468  72.210  1.00  0.00    -0.620 N  
HETATM    8  H1  UNL     1     -11.884  16.784  73.179  1.00  0.00     0.000 HD 
ENDBRANCH   3   4
ENDBRANCH   2   3
BRANCH   2   9
HETATM    9  C   UNL     1     -11.798  14.740  68.646  1.00  0.00    -0.300 C  
BRANCH   9  10
HETATM   10  N   UNL     1     -10.537  15.540  68.200  1.00  0.00    -0.259 N  
HETATM   11  C   UNL     1     -10.609  15.679  66.676  1.00  0.00    -0.307 C  
HETATM   12  C   UNL     1      -9.254  14.808  68.563  1.00  0.00    -0.194 C  
HETATM   13  C   UNL     1     -10.501  16.945  68.785  1.00  0.00    -0.343 C  
ENDBRANCH   9  10
ENDBRANCH   2   9
TORSDOF 4
ENDMDL
MODEL       30
REMARK 921   NORMALIZED FREE ENERGY PREDICTED BY IDOCK:   -3.28 KCAL/MOL
REMARK 922        TOTAL FREE ENERGY PREDICTED BY IDOCK:   -4.42 KCAL/MOL
REMARK 923 INTER-LIGAND FREE ENERGY PREDICTED BY IDOCK:   -4.20 KCAL/MOL
REMARK 924 INTRA-LIGAND FREE ENERGY PREDICTED BY IDOCK:   -0.22 KCAL/MOL
REMARK 927      BINDING AFFINITY PREDICTED BY RF-SCORE:    0.00 PKD
ROOT
HETATM    1  C   UNL     1     -12.466  12.623  64.931  1.00  0.00    -0.564 C  
HETATM    2  C   UNL     1     -11.771  12.802  66.285  1.00  0.00    -0.402 C  
ENDROOT
BRANCH   2   3
HETATM    3  O   UNL     1     -12.214  11.777  67.206  1.00  0.00    -0.471 OA 
BRANCH   3   4
HETATM    4  C   UNL     1     -11.298  11.184  68.003  1.00  0.00    -0.312 C  
HETATM    5  H2  UNL     1     -12.182   9.354  67.453  1.00  0.00     0.000 HD 
HETATM    6  O   UNL     1     -10.402  11.751  68.602  1.00  0.00    -0.215 OA 
HETATM    7  N   UNL     1     -11.467   9.847  67.988  1.00  0.00    -0.466 N  
HETATM    8  H1  UNL     1     -10.776   9.399  68.589  1.00  0.00     0.000 HD 
ENDBRANCH   3   4
ENDBRANCH   2   3
BRANCH   2   9
HETATM    9  C   UNL     1     -11.924  14.252  66.808  1.00  0.00    -0.436 C  
BRANCH   9  10
HETATM   10  N   UNL     1     -10.693  15.186  66.600  1.00  0.00    -0.306 N  
HETATM   11  C   UNL     1     -10.722  16.224  67.728  1.00  0.00    -0.325 C  
HETATM   12  C   UNL     1     -10.763  15.914  65.266  1.00  0.00    -0.424 C  
HETATM   13  C   UNL     1      -9.370  14.440  66.701  1.00  0.00    -0.278 C  
ENDBRANCH   9  10
ENDBRANCH   2   9
TORSDOF 4
ENDMDL
MODEL       31
REMARK 921   NORMALIZED FREE ENERGY PREDICTED BY IDOCK:   -3.27 KCAL/MOL
REMARK 922        TOTAL FREE ENERGY PREDICTED BY IDOCK:   -4.41 KCAL/MOL
REMARK 923 INTER-LIGAND FREE ENERGY PREDICTED BY IDOCK:   -4.13 KCAL/MOL
REMARK 924 INTRA-LIGAND FREE ENERGY PREDICTED BY IDOCK:   -0.27 KCAL/MOL
REMARK 927      BINDING AFFINITY PREDICTED BY RF-SCORE:    0.00 PKD
ROOT
HETATM    1  C   UNL     1     -10.549   9.784  70.332  1.00  0.00    -0.365 C  
HETATM    2  C   UNL     1     -11.649  10.791  69.983  1.00  0.00    -0.334 C  
ENDROOT
BRANCH   2   3
HETATM    3  O   UNL     1     -12.918  10.339  70.511  1.00  0.00    -0.320 OA 
BRANCH   3   4
HETATM    4  C   UNL     1     -13.280  10.734  71.751  1.00  0.00    -0.418 C  
HETATM    5  H2  UNL     1     -13.499   8.691  72.209  1.00  0.00     0.000 HD 
HETATM    6  O   UNL     1     -13.298  11.883  72.155  1.00  0.00    -0.503 OA 
HETATM    7  N   UNL     1     -13.556   9.661  72.519  1.00  0.00    -0.680 N  
HETATM    8  H1  UNL     1     -13.829   9.959  73.454  1.00  0.00     0.000 HD 
ENDBRANCH   3   4
ENDBRANCH   2   3
BRANCH   2   9
HETATM    9  C   UNL     1     -11.657  11.113  68.467  1.00  0.00    -0.314 C  
BRANCH   9  10
HETATM   10  N   UNL     1     -11.292  12.578  68.079  1.00  0.00    -0.267 N  
HETATM   11  C   UNL     1      -9.769  12.632  67.916  1.00  0.00    -0.216 C  
HETATM   12  C   UNL     1     -11.702  13.562  69.164  1.00  0.00    -0.327 C  
HETATM   13  C   UNL     1     -11.908  13.001  66.752  1.00  0.00    -0.388 C  
ENDBRANCH   9  10
ENDBRANCH   2   9
TORSDOF 4
ENDMDL
MODEL       32
REMARK 921   NORMALIZED FREE ENERGY PREDICTED BY IDOCK:   -3.24 KCAL/MOL
REMARK 922        TOTAL FREE ENERGY PREDICTED BY IDOCK:   -4.37 KCAL/MOL
REMARK 923 INTER-LIGAND FREE ENERGY PREDICTED BY IDOCK:   -4.20 KCAL/MOL
REMARK 924 INTRA-LIGAND FREE ENERGY PREDICTED BY IDOCK:   -0.17 KCAL/MOL
REMARK 927      BINDING AFFINITY PREDICTED BY RF-SCORE:    0.00 PKD
ROOT
HETATM    1  C   UNL     1     -10.710  16.412  68.946  1.00  0.00    -0.319 C  
HETATM    2  C   UNL     1     -11.328  15.016  69.085  1.00  0.00    -0.296 C  
ENDROOT
BRANCH   2   3
HETATM    3  O   UNL     1     -11.635  14.749  70.474  1.00  0.00    -0.271 OA 
BRANCH   3   4
HETATM    4  C   UNL     1     -12.458  15.596  71.129  1.00  0.00    -0.448 C  
HETATM    5  H2  UNL     1     -13.977  14.934  69.831  1.00  0.00     0.000 HD 
HETATM    6  O   UNL     1     -12.157  16.276  72.094  1.00  0.00    -0.496 OA 
HETATM    7  N   UNL     1     -13.699  15.534  70.607  1.00  0.00    -0.846 N  
HETATM    8  H1  UNL     1     -14.320  16.174  71.102  1.00  0.00     0.000 HD 
ENDBRANCH   3   4
ENDBRANCH   2   3
BRANCH   2   9
HETATM    9  C   UNL     1     -10.450  13.941  68.397  1.00  0.00    -0.247 C  
BRANCH   9  10
HETATM   10  N   UNL     1     -11.131  13.134  67.251  1.00  0.00    -0.271 N  
HETATM   11  C   UNL     1     -10.062  12.888  66.180  1.00  0.00    -0.276 C  
HETATM   12  C   UNL     1     -12.278  13.913  66.625  1.00  0.00    -0.424 C  
HETATM   13  C   UNL     1     -11.634  11.774  67.713  1.00  0.00    -0.304 C  
ENDBRANCH   9  10
ENDBRANCH   2   9
TORSDOF 4
ENDMDL
MODEL       33
REMARK 921   NORMALIZED FREE ENERGY PREDICTED BY IDOCK:   -3.22 KCAL/MOL
REMARK 922        TOTAL FREE ENERGY PREDICTED BY IDOCK:   -4.34 KCAL/MOL
REMARK 923 INTER-LIGAND FREE ENERGY PREDICTED BY IDOCK:   -4.05 KCAL/MOL
REMARK 924 INTRA-LIGAND FREE ENERGY PREDICTED BY IDOCK:   -0.29 KCAL/MOL
REMARK 927      BINDING AFFINITY PREDICTED BY RF-SCORE:    0.00 PKD
ROOT
HETATM    1  C   UNL     1      -9.127  16.061  68.487  1.00  0.00    -0.203 C  
HETATM    2  C   UNL     1     -10.312  16.346  67.557  1.00  0.00    -0.288 C  
ENDROOT
BRANCH   2   3
HETATM    3  O   UNL     1     -11.016  17.528  68.004  1.00  0.00    -0.328 OA 
BRANCH   3   4
HETATM    4  C   UNL     1     -10.665  18.725  67.484  1.00  0.00    -0.411 C  
HETATM    5  H2  UNL     1     -10.663  19.448  69.462  1.00  0.00     0.000 HD 
HETATM    6  O   UNL     1     -10.440  18.952  66.309  1.00  0.00    -0.417 OA 
HETATM    7  N   UNL     1     -10.525  19.635  68.469  1.00  0.00    -0.509 N  
HETATM    8  H1  UNL     1     -10.260  20.538  68.077  1.00  0.00     0.000 HD 
ENDBRANCH   3   4
ENDBRANCH   2   3
BRANCH   2   9
HETATM    9  C   UNL     1     -11.202  15.090  67.380  1.00  0.00    -0.335 C  
BRANCH   9  10
HETATM   10  N   UNL     1     -11.149  14.409  65.979  1.00  0.00    -0.318 N  
HETATM   11  C   UNL     1     -10.828  15.506  64.958  1.00  0.00    -0.450 C  
HETATM   12  C   UNL     1     -12.486  13.779  65.614  1.00  0.00    -0.503 C  
HETATM   13  C   UNL     1     -10.051  13.359  65.881  1.00  0.00    -0.293 C  
ENDBRANCH   9  10
ENDBRANCH   2   9
TORSDOF 4
ENDMDL
MODEL       34
REMARK 921   NORMALIZED FREE ENERGY PREDICTED BY IDOCK:   -3.21 KCAL/MOL
REMARK 922        TOTAL FREE ENERGY PREDICTED BY IDOCK:   -4.34 KCAL/MOL
REMARK 923 INTER-LIGAND FREE ENERGY PREDICTED BY IDOCK:   -4.35 KCAL/MOL
REMARK 924 INTRA-LIGAND FREE ENERGY PREDICTED BY IDOCK:    0.01 KCAL/MOL
REMARK 927      BINDING AFFINITY PREDICTED BY RF-SCORE:    0.00 PKD
ROOT
HETATM    1  C   UNL     1     -10.945  13.292  65.933  1.00  0.00    -0.288 C  
HETATM    2  C   UNL     1     -10.344  12.335  64.897  1.00  0.00    -0.290 C  
ENDROOT
BRANCH   2   3
HETATM    3  O   UNL     1     -10.848  12.656  63.579  1.00  0.00    -0.429 OA 
BRANCH   3   4
HETATM    4  C   UNL     1     -12.181  12.805  63.415  1.00  0.00    -0.504 C  
HETATM    5  H2  UNL     1     -11.783  14.837  63.029  1.00  0.00     0.000 HD 
HETATM    6  O   UNL     1     -13.008  11.912  63.459  1.00  0.00    -0.724 OA 
HETATM    7  N   UNL     1     -12.470  14.088  63.117  1.00  0.00    -1.070 N  
HETATM    8  H1  UNL     1     -13.475  14.201  62.993  1.00  0.00     0.000 HD 
ENDBRANCH   3   4
ENDBRANCH   2   3
BRANCH   2   9
HETATM    9  C   UNL     1     -10.532  10.857  65.321  1.00  0.00    -0.230 C  
BRANCH   9  10
HETATM   10  N   UNL     1      -9.232  10.002  65.409  1.00  0.00    -0.192 N  
HETATM   11  C   UNL     1      -8.790   9.708  63.972  1.00  0.00    -0.227 C  
HETATM   12  C   UNL     1      -9.481   8.681  66.123  1.00  0.00    -0.240 C  
HETATM   13  C   UNL     1      -8.092  10.741  66.095  1.00  0.00    -0.160 C  
ENDBRANCH   9  10
ENDBRANCH   2   9
TORSDOF 4
ENDMDL
MODEL       35
REMARK 921   NORMALIZED FREE ENERGY PREDICTED BY IDOCK:   -3.20 KCAL/MOL
REMARK 922        TOTAL FREE ENERGY PREDICTED BY IDOCK:   -4.33 KCAL/MOL
REMARK 923 INTER-LIGAND FREE ENERGY PREDICTED BY IDOCK:   -4.07 KCAL/MOL
REMARK 924 INTRA-LIGAND FREE ENERGY PREDICTED BY IDOCK:   -0.25 KCAL/MOL
REMARK 927      BINDING AFFINITY PREDICTED BY RF-SCORE:    0.00 PKD
ROOT
HETATM    1  C   UNL     1     -10.997  11.729  68.137  1.00  0.00    -0.275 C  
HETATM    2  C   UNL     1     -11.427  12.974  67.355  1.00  0.00    -0.332 C  
ENDROOT
BRANCH   2   3
HETATM    3  O   UNL     1     -12.280  13.804  68.178  1.00  0.00    -0.331 OA 
BRANCH   3   4
HETATM    4  C   UNL     1     -11.806  14.995  68.606  1.00  0.00    -0.296 C  
HETATM    5  H2  UNL     1     -13.264  14.894  70.122  1.00  0.00     0.000 HD 
HETATM    6  O   UNL     1     -10.855  15.592  68.137  1.00  0.00    -0.278 OA 
HETATM    7  N   UNL     1     -12.497  15.406  69.688  1.00  0.00    -0.605 N  
HETATM    8  H1  UNL     1     -12.140  16.305  70.011  1.00  0.00     0.000 HD 
ENDBRANCH   3   4
ENDBRANCH   2   3
BRANCH   2   9
HETATM    9  C   UNL     1     -12.027  12.594  65.978  1.00  0.00    -0.417 C  
BRANCH   9  10
HETATM   10  N   UNL     1     -11.187  13.002  64.731  1.00  0.00    -0.306 N  
HETATM   11  C   UNL     1     -10.170  11.880  64.489  1.00  0.00    -0.282 C  
HETATM   12  C   UNL     1     -10.431  14.301  64.967  1.00  0.00    -0.435 C  
HETATM   13  C   UNL     1     -12.033  13.130  63.472  1.00  0.00    -0.513 C  
ENDBRANCH   9  10
ENDBRANCH   2   9
TORSDOF 4
ENDMDL
MODEL       36
REMARK 921   NORMALIZED FREE ENERGY PREDICTED BY IDOCK:   -3.19 KCAL/MOL
REMARK 922        TOTAL FREE ENERGY PREDICTED BY IDOCK:   -4.31 KCAL/MOL
REMARK 923 INTER-LIGAND FREE ENERGY PREDICTED BY IDOCK:   -4.08 KCAL/MOL
REMARK 924 INTRA-LIGAND FREE ENERGY PREDICTED BY IDOCK:   -0.23 KCAL/MOL
REMARK 927      BINDING AFFINITY PREDICTED BY RF-SCORE:    0.00 PKD
ROOT
HETATM    1  C   UNL     1      -8.200  16.142  66.332  1.00  0.00    -0.336 C  
HETATM    2  C   UNL     1      -9.526  15.434  66.034  1.00  0.00    -0.346 C  
ENDROOT
BRANCH   2   3
HETATM    3  O   UNL     1     -10.633  16.333  66.284  1.00  0.00    -0.304 OA 
BRANCH   3   4
HETATM    4  C   UNL     1     -10.988  17.206  65.316  1.00  0.00     0.034 C  
HETATM    5  H2  UNL     1     -10.396  18.731  66.642  1.00  0.00     0.000 HD 
HETATM    6  O   UNL     1     -11.384  16.912  64.203  1.00  0.00    -1.208 OA 
HETATM    7  N   UNL     1     -10.772  18.470  65.731  1.00  0.00    -0.325 N  
HETATM    8  H1  UNL     1     -11.040  19.130  65.000  1.00  0.00     0.000 HD 
ENDBRANCH   3   4
ENDBRANCH   2   3
BRANCH   2   9
HETATM    9  C   UNL     1      -9.616  14.075  66.773  1.00  0.00    -0.286 C  
BRANCH   9  10
HETATM   10  N   UNL     1     -10.299  12.915  65.988  1.00  0.00    -0.277 N  
HETATM   11  C   UNL     1     -11.624  12.612  66.697  1.00  0.00    -0.381 C  
HETATM   12  C   UNL     1      -9.443  11.657  65.995  1.00  0.00    -0.229 C  
HETATM   13  C   UNL     1     -10.628  13.296  64.551  1.00  0.00    -0.419 C  
ENDBRANCH   9  10
ENDBRANCH   2   9
TORSDOF 4
ENDMDL
MODEL       37
REMARK 921   NORMALIZED FREE ENERGY PREDICTED BY IDOCK:   -3.19 KCAL/MOL
REMARK 922        TOTAL FREE ENERGY PREDICTED BY IDOCK:   -4.30 KCAL/MOL
REMARK 923 INTER-LIGAND FREE ENERGY PREDICTED BY IDOCK:   -3.91 KCAL/MOL
REMARK 924 INTRA-LIGAND FREE ENERGY PREDICTED BY IDOCK:   -0.39 KCAL/MOL
REMARK 927      BINDING AFFINITY PREDICTED BY RF-SCORE:    0.00 PKD
ROOT
HETATM    1  C   UNL     1     -11.120  16.173  64.717  1.00  0.00    -0.345 C  
HETATM    2  C   UNL     1     -11.165  14.979  65.676  1.00  0.00    -0.327 C  
ENDROOT
BRANCH   2   3
HETATM    3  O   UNL     1     -10.855  15.414  67.021  1.00  0.00    -0.315 OA 
BRANCH   3   4
HETATM    4  C   UNL     1     -11.051  14.551  68.042  1.00  0.00    -0.276 C  
HETATM    5  H2  UNL     1     -13.113  14.866  67.753  1.00  0.00     0.000 HD 
HETATM    6  O   UNL     1     -10.180  13.941  68.635  1.00  0.00    -0.231 OA 
HETATM    7  N   UNL     1     -12.370  14.399  68.273  1.00  0.00    -0.597 N  
HETATM    8  H1  UNL     1     -12.518  13.747  69.044  1.00  0.00     0.000 HD 
ENDBRANCH   3   4
ENDBRANCH   2   3
BRANCH   2   9
HETATM    9  C   UNL     1     -10.294  13.808  65.157  1.00  0.00    -0.372 C  
BRANCH   9  10
HETATM   10  N   UNL     1     -11.048  12.477  64.858  1.00  0.00    -0.290 N  
HETATM   11  C   UNL     1     -10.628  11.471  65.935  1.00  0.00    -0.268 C  
HETATM   12  C   UNL     1     -10.671  11.916  63.494  1.00  0.00    -0.442 C  
HETATM   13  C   UNL     1     -12.560  12.630  64.942  1.00  0.00    -0.450 C  
ENDBRANCH   9  10
ENDBRANCH   2   9
TORSDOF 4
ENDMDL
MODEL       38
REMARK 921   NORMALIZED FREE ENERGY PREDICTED BY IDOCK:   -3.18 KCAL/MOL
REMARK 922        TOTAL FREE ENERGY PREDICTED BY IDOCK:   -4.30 KCAL/MOL
REMARK 923 INTER-LIGAND FREE ENERGY PREDICTED BY IDOCK:   -4.28 KCAL/MOL
REMARK 924 INTRA-LIGAND FREE ENERGY PREDICTED BY IDOCK:   -0.02 KCAL/MOL
REMARK 927      BINDING AFFINITY PREDICTED BY RF-SCORE:    0.00 PKD
ROOT
HETATM    1  C   UNL     1      -8.205  17.155  66.293  1.00  0.00    -0.306 C  
HETATM    2  C   UNL     1      -9.644  16.805  65.896  1.00  0.00    -0.178 C  
ENDROOT
BRANCH   2   3
HETATM    3  O   UNL     1     -10.394  18.017  65.643  1.00  0.00    -0.611 OA 
BRANCH   3   4
HETATM    4  C   UNL     1     -10.299  19.033  66.529  1.00  0.00    -0.439 C  
HETATM    5  H2  UNL     1      -9.470  20.164  64.959  1.00  0.00     0.000 HD 
HETATM    6  O   UNL     1     -10.696  19.013  67.680  1.00  0.00    -0.443 OA 
HETATM    7  N   UNL     1      -9.762  20.117  65.935  1.00  0.00    -0.593 N  
HETATM    8  H1  UNL     1      -9.691  20.884  66.602  1.00  0.00     0.000 HD 
ENDBRANCH   3   4
ENDBRANCH   2   3
BRANCH   2   9
HETATM    9  C   UNL     1     -10.292  15.845  66.924  1.00  0.00    -0.291 C  
BRANCH   9  10
HETATM   10  N   UNL     1     -10.628  14.414  66.404  1.00  0.00    -0.292 N  
HETATM   11  C   UNL     1     -10.478  14.445  64.879  1.00  0.00    -0.423 C  
HETATM   12  C   UNL     1     -12.057  14.017  66.745  1.00  0.00    -0.447 C  
HETATM   13  C   UNL     1      -9.668  13.359  66.935  1.00  0.00    -0.253 C  
ENDBRANCH   9  10
ENDBRANCH   2   9
TORSDOF 4
ENDMDL
MODEL       39
REMARK 921   NORMALIZED FREE ENERGY PREDICTED BY IDOCK:   -3.17 KCAL/MOL
REMARK 922        TOTAL FREE ENERGY PREDICTED BY IDOCK:   -4.29 KCAL/MOL
REMARK 923 INTER-LIGAND FREE ENERGY PREDICTED BY IDOCK:   -4.46 KCAL/MOL
REMARK 924 INTRA-LIGAND FREE ENERGY PREDICTED BY IDOCK:    0.17 KCAL/MOL
REMARK 927      BINDING AFFINITY PREDICTED BY RF-SCORE:    0.00 PKD
ROOT
HETATM    1  C   UNL     1     -12.150  14.783  64.339  1.00  0.00    -0.457 C  
HETATM    2  C   UNL     1     -11.379  13.935  65.357  1.00  0.00    -0.309 C  
ENDROOT
BRANCH   2   3
HETATM    3  O   UNL     1     -11.595  12.529  65.092  1.00  0.00    -0.325 OA 
BRANCH   3   4
HETATM    4  C   UNL     1     -11.873  12.144  63.827  1.00  0.00    -0.500 C  
HETATM    5  H2  UNL     1      -9.803  11.837  63.595  1.00  0.00     0.000 HD 
HETATM    6  O   UNL     1     -12.985  12.047  63.341  1.00  0.00    -0.772 OA 
HETATM    7  N   UNL     1     -10.736  11.807  63.185  1.00  0.00    -0.676 N  
HETATM    8  H1  UNL     1     -10.945  11.517  62.231  1.00  0.00     0.000 HD 
ENDBRANCH   3   4
ENDBRANCH   2   3
BRANCH   2   9
HETATM    9  C   UNL     1     -11.694  14.376  66.809  1.00  0.00    -0.397 C  
BRANCH   9  10
HETATM   10  N   UNL     1     -10.514  15.020  67.597  1.00  0.00    -0.244 N  
HETATM   11  C   UNL     1     -11.129  15.816  68.754  1.00  0.00    -0.321 C  
HETATM   12  C   UNL     1      -9.712  15.973  66.722  1.00  0.00    -0.239 C  
HETATM   13  C   UNL     1      -9.580  13.983  68.203  1.00  0.00    -0.220 C  
ENDBRANCH   9  10
ENDBRANCH   2   9
TORSDOF 4
ENDMDL
MODEL       40
REMARK 921   NORMALIZED FREE ENERGY PREDICTED BY IDOCK:   -3.17 KCAL/MOL
REMARK 922        TOTAL FREE ENERGY PREDICTED BY IDOCK:   -4.29 KCAL/MOL
REMARK 923 INTER-LIGAND FREE ENERGY PREDICTED BY IDOCK:   -4.04 KCAL/MOL
REMARK 924 INTRA-LIGAND FREE ENERGY PREDICTED BY IDOCK:   -0.25 KCAL/MOL
REMARK 927      BINDING AFFINITY PREDICTED BY RF-SCORE:    0.00 PKD
ROOT
HETATM    1  C   UNL     1      -9.639  14.758  68.712  1.00  0.00    -0.215 C  
HETATM    2  C   UNL     1     -10.378  13.711  67.871  1.00  0.00    -0.249 C  
ENDROOT
BRANCH   2   3
HETATM    3  O   UNL     1     -10.341  12.427  68.539  1.00  0.00    -0.228 OA 
BRANCH   3   4
HETATM    4  C   UNL     1     -11.498  11.903  68.999  1.00  0.00    -0.297 C  
HETATM    5  H2  UNL     1     -11.146  12.987  70.769  1.00  0.00     0.000 HD 
HETATM    6  O   UNL     1     -12.254  11.186  68.368  1.00  0.00    -0.610 OA 
HETATM    7  N   UNL     1     -11.745  12.347  70.247  1.00  0.00    -0.546 N  
HETATM    8  H1  UNL     1     -12.619  11.952  70.594  1.00  0.00     0.000 HD 
ENDBRANCH   3   4
ENDBRANCH   2   3
BRANCH   2   9
HETATM    9  C   UNL     1      -9.862  13.696  66.411  1.00  0.00    -0.296 C  
BRANCH   9  10
HETATM   10  N   UNL     1     -10.923  13.997  65.310  1.00  0.00    -0.318 N  
HETATM   11  C   UNL     1     -10.551  13.155  64.085  1.00  0.00    -0.361 C  
HETATM   12  C   UNL     1     -10.913  15.466  64.912  1.00  0.00    -0.437 C  
HETATM   13  C   UNL     1     -12.330  13.596  65.728  1.00  0.00    -0.482 C  
ENDBRANCH   9  10
ENDBRANCH   2   9
TORSDOF 4
ENDMDL
MODEL       41
REMARK 921   NORMALIZED FREE ENERGY PREDICTED BY IDOCK:   -3.16 KCAL/MOL
REMARK 922        TOTAL FREE ENERGY PREDICTED BY IDOCK:   -4.28 KCAL/MOL
REMARK 923 INTER-LIGAND FREE ENERGY PREDICTED BY IDOCK:   -4.00 KCAL/MOL
REMARK 924 INTRA-LIGAND FREE ENERGY PREDICTED BY IDOCK:   -0.28 KCAL/MOL
REMARK 927      BINDING AFFINITY PREDICTED BY RF-SCORE:    0.00 PKD
ROOT
HETATM    1  C   UNL     1     -11.205   5.989  72.210  1.00  0.00    -0.341 C  
HETATM    2  C   UNL     1     -11.588   6.992  71.117  1.00  0.00    -0.312 C  
ENDROOT
BRANCH   2   3
HETATM    3  O   UNL     1     -12.853   7.617  71.441  1.00  0.00    -0.337 OA 
BRANCH   3   4
HETATM    4  C   UNL     1     -12.842   8.837  72.022  1.00  0.00    -0.390 C  
HETATM    5  H2  UNL     1     -14.482   8.175  73.164  1.00  0.00     0.000 HD 
HETATM    6  O   UNL     1     -12.030   9.719  71.808  1.00  0.00    -0.392 OA 
HETATM    7  N   UNL     1     -13.825   8.922  72.940  1.00  0.00    -0.915 N  
HETATM    8  H1  UNL     1     -13.818   9.842  73.378  1.00  0.00     0.000 HD 
ENDBRANCH   3   4
ENDBRANCH   2   3
BRANCH   2   9
HETATM    9  C   UNL     1     -11.528   6.343  69.711  1.00  0.00    -0.399 C  
BRANCH   9  10
HETATM   10  N   UNL     1     -10.501   6.962  68.717  1.00  0.00    -0.196 N  
HETATM   11  C   UNL     1     -11.008   6.662  67.302  1.00  0.00    -0.385 C  
HETATM   12  C   UNL     1      -9.121   6.342  68.881  1.00  0.00    -0.124 C  
HETATM   13  C   UNL     1     -10.395   8.475  68.851  1.00  0.00    -0.210 C  
ENDBRANCH   9  10
ENDBRANCH   2   9
TORSDOF 4
ENDMDL
MODEL       42
REMARK 921   NORMALIZED FREE ENERGY PREDICTED BY IDOCK:   -3.15 KCAL/MOL
REMARK 922        TOTAL FREE ENERGY PREDICTED BY IDOCK:   -4.26 KCAL/MOL
REMARK 923 INTER-LIGAND FREE ENERGY PREDICTED BY IDOCK:   -4.25 KCAL/MOL
REMARK 924 INTRA-LIGAND FREE ENERGY PREDICTED BY IDOCK:   -0.01 KCAL/MOL
REMARK 927      BINDING AFFINITY PREDICTED BY RF-SCORE:    0.00 PKD
ROOT
HETATM    1  C   UNL     1     -11.862  13.607  68.106  1.00  0.00    -0.407 C  
HETATM    2  C   UNL     1     -11.250  14.688  69.005  1.00  0.00    -0.269 C  
ENDROOT
BRANCH   2   3
HETATM    3  O   UNL     1     -11.674  14.488  70.374  1.00  0.00    -0.278 OA 
BRANCH   3   4
HETATM    4  C   UNL     1     -12.266  15.514  71.024  1.00  0.00    -0.396 C  
HETATM    5  H2  UNL     1     -14.089  14.783  70.266  1.00  0.00     0.000 HD 
HETATM    6  O   UNL     1     -11.703  16.320  71.742  1.00  0.00    -0.486 OA 
HETATM    7  N   UNL     1     -13.599  15.481  70.825  1.00  0.00    -0.847 N  
HETATM    8  H1  UNL     1     -14.046  16.255  71.316  1.00  0.00     0.000 HD 
ENDBRANCH   3   4
ENDBRANCH   2   3
BRANCH   2   9
HETATM    9  C   UNL     1     -11.522  16.105  68.443  1.00  0.00    -0.298 C  
BRANCH   9  10
HETATM   10  N   UNL     1     -10.304  16.826  67.790  1.00  0.00    -0.307 N  
HETATM   11  C   UNL     1      -9.103  16.606  68.717  1.00  0.00    -0.256 C  
HETATM   12  C   UNL     1     -10.547  18.322  67.654  1.00  0.00    -0.405 C  
HETATM   13  C   UNL     1      -9.942  16.246  66.430  1.00  0.00    -0.300 C  
ENDBRANCH   9  10
ENDBRANCH   2   9
TORSDOF 4
ENDMDL
MODEL       43
REMARK 921   NORMALIZED FREE ENERGY PREDICTED BY IDOCK:   -3.14 KCAL/MOL
REMARK 922        TOTAL FREE ENERGY PREDICTED BY IDOCK:   -4.24 KCAL/MOL
REMARK 923 INTER-LIGAND FREE ENERGY PREDICTED BY IDOCK:   -4.26 KCAL/MOL
REMARK 924 INTRA-LIGAND FREE ENERGY PREDICTED BY IDOCK:    0.02 KCAL/MOL
REMARK 927      BINDING AFFINITY PREDICTED BY RF-SCORE:    0.00 PKD
ROOT
HETATM    1  C   UNL     1     -10.622  18.992  67.188  1.00  0.00    -0.545 C  
HETATM    2  C   UNL     1     -10.111  17.547  67.204  1.00  0.00    -0.321 C  
ENDROOT
BRANCH   2   3
HETATM    3  O   UNL     1      -9.636  17.178  65.887  1.00  0.00    -0.497 OA 
BRANCH   3   4
HETATM    4  C   UNL     1     -10.451  16.462  65.083  1.00  0.00    -0.192 C  
HETATM    5  H2  UNL     1      -9.564  14.744  65.916  1.00  0.00     0.000 HD 
HETATM    6  O   UNL     1     -11.303  16.920  64.343  1.00  0.00    -1.133 OA 
HETATM    7  N   UNL     1     -10.240  15.143  65.265  1.00  0.00    -0.370 N  
HETATM    8  H1  UNL     1     -10.855  14.602  64.659  1.00  0.00     0.000 HD 
ENDBRANCH   3   4
ENDBRANCH   2   3
BRANCH   2   9
HETATM    9  C   UNL     1     -11.165  16.584  67.805  1.00  0.00    -0.097 C  
BRANCH   9  10
HETATM   10  N   UNL     1     -10.646  15.600  68.896  1.00  0.00    -0.218 N  
HETATM   11  C   UNL     1     -11.307  16.006  70.218  1.00  0.00    -0.382 C  
HETATM   12  C   UNL     1      -9.136  15.692  69.059  1.00  0.00    -0.241 C  
HETATM   13  C   UNL     1     -11.038  14.156  68.616  1.00  0.00    -0.262 C  
ENDBRANCH   9  10
ENDBRANCH   2   9
TORSDOF 4
ENDMDL
MODEL       44
REMARK 921   NORMALIZED FREE ENERGY PREDICTED BY IDOCK:   -3.10 KCAL/MOL
REMARK 922        TOTAL FREE ENERGY PREDICTED BY IDOCK:   -4.20 KCAL/MOL
REMARK 923 INTER-LIGAND FREE ENERGY PREDICTED BY IDOCK:   -3.94 KCAL/MOL
REMARK 924 INTRA-LIGAND FREE ENERGY PREDICTED BY IDOCK:   -0.26 KCAL/MOL
REMARK 927      BINDING AFFINITY PREDICTED BY RF-SCORE:    0.00 PKD
ROOT
HETATM    1  C   UNL     1     -14.107   8.847  72.449  1.00  0.00    -0.493 C  
HETATM    2  C   UNL     1     -12.820   9.269  71.733  1.00  0.00    -0.382 C  
ENDROOT
BRANCH   2   3
HETATM    3  O   UNL     1     -13.107  10.321  70.781  1.00  0.00    -0.381 OA 
BRANCH   3   4
HETATM    4  C   UNL     1     -12.753  11.587  71.090  1.00  0.00    -0.356 C  
HETATM    5  H2  UNL     1     -11.244  11.391  69.634  1.00  0.00     0.000 HD 
HETATM    6  O   UNL     1     -13.325  12.314  71.881  1.00  0.00    -0.463 OA 
HETATM    7  N   UNL     1     -11.703  11.971  70.336  1.00  0.00    -0.525 N  
HETATM    8  H1  UNL     1     -11.435  12.927  70.568  1.00  0.00     0.000 HD 
ENDBRANCH   3   4
ENDBRANCH   2   3
BRANCH   2   9
HETATM    9  C   UNL     1     -12.079   8.044  71.140  1.00  0.00    -0.265 C  
BRANCH   9  10
HETATM   10  N   UNL     1     -10.661   7.758  71.720  1.00  0.00    -0.213 N  
HETATM   11  C   UNL     1     -10.046   6.641  70.871  1.00  0.00    -0.187 C  
HETATM   12  C   UNL     1     -10.733   7.288  73.166  1.00  0.00    -0.365 C  
HETATM   13  C   UNL     1      -9.737   8.964  71.626  1.00  0.00    -0.309 C  
ENDBRANCH   9  10
ENDBRANCH   2   9
TORSDOF 4
ENDMDL
MODEL       45
REMARK 921   NORMALIZED FREE ENERGY PREDICTED BY IDOCK:   -3.09 KCAL/MOL
REMARK 922        TOTAL FREE ENERGY PREDICTED BY IDOCK:   -4.19 KCAL/MOL
REMARK 923 INTER-LIGAND FREE ENERGY PREDICTED BY IDOCK:   -3.88 KCAL/MOL
REMARK 924 INTRA-LIGAND FREE ENERGY PREDICTED BY IDOCK:   -0.31 KCAL/MOL
REMARK 927      BINDING AFFINITY PREDICTED BY RF-SCORE:    0.00 PKD
ROOT
HETATM    1  C   UNL     1     -10.254  20.210  67.873  1.00  0.00    -0.501 C  
HETATM    2  C   UNL     1      -9.394  19.246  67.048  1.00  0.00    -0.318 C  
ENDROOT
BRANCH   2   3
HETATM    3  O   UNL     1      -8.818  19.943  65.918  1.00  0.00    -0.335 OA 
BRANCH   3   4
HETATM    4  C   UNL     1      -7.505  19.772  65.652  1.00  0.00    -0.251 C  
HETATM    5  H2  UNL     1      -7.271  21.816  66.097  1.00  0.00     0.000 HD 
HETATM    6  O   UNL     1      -6.968  18.715  65.370  1.00  0.00    -0.499 OA 
HETATM    7  N   UNL     1      -6.843  20.935  65.814  1.00  0.00    -0.495 N  
HETATM    8  H1  UNL     1      -5.852  20.806  65.614  1.00  0.00     0.000 HD 
ENDBRANCH   3   4
ENDBRANCH   2   3
BRANCH   2   9
HETATM    9  C   UNL     1     -10.179  17.961  66.685  1.00  0.00    -0.371 C  
BRANCH   9  10
HETATM   10  N   UNL     1      -9.633  16.634  67.291  1.00  0.00    -0.240 N  
HETATM   11  C   UNL     1     -10.784  15.989  68.071  1.00  0.00    -0.309 C  
HETATM   12  C   UNL     1      -8.478  16.890  68.249  1.00  0.00    -0.229 C  
HETATM   13  C   UNL     1      -9.194  15.641  66.223  1.00  0.00    -0.330 C  
ENDBRANCH   9  10
ENDBRANCH   2   9
TORSDOF 4
ENDMDL
MODEL       46
REMARK 921   NORMALIZED FREE ENERGY PREDICTED BY IDOCK:   -3.09 KCAL/MOL
REMARK 922        TOTAL FREE ENERGY PREDICTED BY IDOCK:   -4.19 KCAL/MOL
REMARK 923 INTER-LIGAND FREE ENERGY PREDICTED BY IDOCK:   -3.91 KCAL/MOL
REMARK 924 INTRA-LIGAND FREE ENERGY PREDICTED BY IDOCK:   -0.27 KCAL/MOL
REMARK 927      BINDING AFFINITY PREDICTED BY RF-SCORE:    0.00 PKD
ROOT
HETATM    1  C   UNL     1      -9.762  13.973  67.932  1.00  0.00    -0.229 C  
HETATM    2  C   UNL     1     -10.524  12.993  67.033  1.00  0.00    -0.247 C  
ENDROOT
BRANCH   2   3
HETATM    3  O   UNL     1     -10.230  11.632  67.428  1.00  0.00    -0.199 OA 
BRANCH   3   4
HETATM    4  C   UNL     1     -11.233  10.866  67.910  1.00  0.00    -0.321 C  
HETATM    5  H2  UNL     1     -10.077   9.202  67.337  1.00  0.00     0.000 HD 
HETATM    6  O   UNL     1     -12.237  11.276  68.465  1.00  0.00    -0.588 OA 
HETATM    7  N   UNL     1     -10.935   9.561  67.756  1.00  0.00    -0.495 N  
HETATM    8  H1  UNL     1     -11.692   8.983  68.119  1.00  0.00     0.000 HD 
ENDBRANCH   3   4
ENDBRANCH   2   3
BRANCH   2   9
HETATM    9  C   UNL     1     -10.282  13.299  65.534  1.00  0.00    -0.290 C  
BRANCH   9  10
HETATM   10  N   UNL     1     -11.528  13.770  64.724  1.00  0.00    -0.341 N  
HETATM   11  C   UNL     1     -12.746  13.607  65.640  1.00  0.00    -0.454 C  
HETATM   12  C   UNL     1     -11.737  12.922  63.478  1.00  0.00    -0.512 C  
HETATM   13  C   UNL     1     -11.447  15.238  64.330  1.00  0.00    -0.239 C  
ENDBRANCH   9  10
ENDBRANCH   2   9
TORSDOF 4
ENDMDL
MODEL       47
REMARK 921   NORMALIZED FREE ENERGY PREDICTED BY IDOCK:   -3.08 KCAL/MOL
REMARK 922        TOTAL FREE ENERGY PREDICTED BY IDOCK:   -4.18 KCAL/MOL
REMARK 923 INTER-LIGAND FREE ENERGY PREDICTED BY IDOCK:   -3.83 KCAL/MOL
REMARK 924 INTRA-LIGAND FREE ENERGY PREDICTED BY IDOCK:   -0.35 KCAL/MOL
REMARK 927      BINDING AFFINITY PREDICTED BY RF-SCORE:    0.00 PKD
ROOT
HETATM    1  C   UNL     1     -13.109  11.372  71.871  1.00  0.00    -0.505 C  
HETATM    2  C   UNL     1     -12.377  10.438  70.901  1.00  0.00    -0.381 C  
ENDROOT
BRANCH   2   3
HETATM    3  O   UNL     1     -12.643  10.837  69.536  1.00  0.00    -0.293 OA 
BRANCH   3   4
HETATM    4  C   UNL     1     -11.597  11.099  68.722  1.00  0.00    -0.322 C  
HETATM    5  H2  UNL     1     -10.480  11.454  70.472  1.00  0.00     0.000 HD 
HETATM    6  O   UNL     1     -11.598  11.002  67.509  1.00  0.00    -0.529 OA 
HETATM    7  N   UNL     1     -10.509  11.417  69.453  1.00  0.00    -0.434 N  
HETATM    8  H1  UNL     1      -9.719  11.614  68.840  1.00  0.00     0.000 HD 
ENDBRANCH   3   4
ENDBRANCH   2   3
BRANCH   2   9
HETATM    9  C   UNL     1     -12.683   8.952  71.213  1.00  0.00    -0.248 C  
BRANCH   9  10
HETATM   10  N   UNL     1     -11.452   7.999  71.272  1.00  0.00    -0.264 N  
HETATM   11  C   UNL     1     -10.304   8.788  71.912  1.00  0.00    -0.344 C  
HETATM   12  C   UNL     1     -11.022   7.555  69.881  1.00  0.00    -0.211 C  
HETATM   13  C   UNL     1     -11.702   6.773  72.140  1.00  0.00    -0.297 C  
ENDBRANCH   9  10
ENDBRANCH   2   9
TORSDOF 4
ENDMDL
MODEL       48
REMARK 921   NORMALIZED FREE ENERGY PREDICTED BY IDOCK:   -3.07 KCAL/MOL
REMARK 922        TOTAL FREE ENERGY PREDICTED BY IDOCK:   -4.16 KCAL/MOL
REMARK 923 INTER-LIGAND FREE ENERGY PREDICTED BY IDOCK:   -3.95 KCAL/MOL
REMARK 924 INTRA-LIGAND FREE ENERGY PREDICTED BY IDOCK:   -0.21 KCAL/MOL
REMARK 927      BINDING AFFINITY PREDICTED BY RF-SCORE:    0.00 PKD
ROOT
HETATM    1  C   UNL     1     -11.566  11.278  68.098  1.00  0.00    -0.359 C  
HETATM    2  C   UNL     1     -11.520  12.627  67.371  1.00  0.00    -0.337 C  
ENDROOT
BRANCH   2   3
HETATM    3  O   UNL     1     -12.123  13.652  68.196  1.00  0.00    -0.359 OA 
BRANCH   3   4
HETATM    4  C   UNL     1     -11.516  13.989  69.355  1.00  0.00    -0.290 C  
HETATM    5  H2  UNL     1      -9.817  14.439  68.195  1.00  0.00     0.000 HD 
HETATM    6  O   UNL     1     -12.038  13.996  70.456  1.00  0.00    -0.316 OA 
HETATM    7  N   UNL     1     -10.252  14.393  69.117  1.00  0.00    -0.382 N  
HETATM    8  H1  UNL     1      -9.794  14.648  69.991  1.00  0.00     0.000 HD 
ENDBRANCH   3   4
ENDBRANCH   2   3
BRANCH   2   9
HETATM    9  C   UNL     1     -12.109  12.516  65.943  1.00  0.00    -0.352 C  
BRANCH   9  10
HETATM   10  N   UNL     1     -11.126  12.825  64.773  1.00  0.00    -0.290 N  
HETATM   11  C   UNL     1     -11.958  12.866  63.487  1.00  0.00    -0.556 C  
HETATM   12  C   UNL     1     -10.066  11.743  64.634  1.00  0.00    -0.272 C  
HETATM   13  C   UNL     1     -10.450  14.181  64.922  1.00  0.00    -0.438 C  
ENDBRANCH   9  10
ENDBRANCH   2   9
TORSDOF 4
ENDMDL
MODEL       49
REMARK 921   NORMALIZED FREE ENERGY PREDICTED BY IDOCK:   -3.07 KCAL/MOL
REMARK 922        TOTAL FREE ENERGY PREDICTED BY IDOCK:   -4.16 KCAL/MOL
REMARK 923 INTER-LIGAND FREE ENERGY PREDICTED BY IDOCK:   -4.19 KCAL/MOL
REMARK 924 INTRA-LIGAND FREE ENERGY PREDICTED BY IDOCK:    0.03 KCAL/MOL
REMARK 927      BINDING AFFINITY PREDICTED BY RF-SCORE:    0.00 PKD
ROOT
HETATM    1  C   UNL     1     -11.097  16.631  68.296  1.00  0.00    -0.295 C  
HETATM    2  C   UNL     1     -11.515  15.158  68.227  1.00  0.00    -0.336 C  
ENDROOT
BRANCH   2   3
HETATM    3  O   UNL     1     -11.701  14.635  69.564  1.00  0.00    -0.287 OA 
BRANCH   3   4
HETATM    4  C   UNL     1     -12.261  15.434  70.499  1.00  0.00    -0.394 C  
HETATM    5  H2  UNL     1     -14.117  14.659  69.875  1.00  0.00     0.000 HD 
HETATM    6  O   UNL     1     -11.656  16.142  71.284  1.00  0.00    -0.426 OA 
HETATM    7  N   UNL     1     -13.600  15.285  70.494  1.00  0.00    -0.734 N  
HETATM    8  H1  UNL     1     -14.023  15.887  71.200  1.00  0.00     0.000 HD 
ENDBRANCH   3   4
ENDBRANCH   2   3
BRANCH   2   9
HETATM    9  C   UNL     1     -10.544  14.339  67.341  1.00  0.00    -0.276 C  
BRANCH   9  10
HETATM   10  N   UNL     1     -11.207  13.396  66.293  1.00  0.00    -0.301 N  
HETATM   11  C   UNL     1     -12.639  13.899  66.080  1.00  0.00    -0.423 C  
HETATM   12  C   UNL     1     -11.264  11.959  66.791  1.00  0.00    -0.327 C  
HETATM   13  C   UNL     1     -10.505  13.436  64.943  1.00  0.00    -0.390 C  
ENDBRANCH   9  10
ENDBRANCH   2   9
TORSDOF 4
ENDMDL
MODEL       50
REMARK 921   NORMALIZED FREE ENERGY PREDICTED BY IDOCK:   -3.05 KCAL/MOL
REMARK 922        TOTAL FREE ENERGY PREDICTED BY IDOCK:   -4.14 KCAL/MOL
REMARK 923 INTER-LIGAND FREE ENERGY PREDICTED BY IDOCK:   -3.92 KCAL/MOL
REMARK 924 INTRA-LIGAND FREE ENERGY PREDICTED BY IDOCK:   -0.21 KCAL/MOL
REMARK 927      BINDING AFFINITY PREDICTED BY RF-SCORE:    0.00 PKD
ROOT
HETATM    1  C   UNL     1     -13.072  10.689  71.793  1.00  0.00    -0.571 C  
HETATM    2  C   UNL     1     -11.906   9.765  71.426  1.00  0.00    -0.408 C  
ENDROOT
BRANCH   2   3
HETATM    3  O   UNL     1     -11.806   9.645  69.987  1.00  0.00    -0.116 OA 
BRANCH   3   4
HETATM    4  C   UNL     1     -11.526  10.751  69.263  1.00  0.00    -0.298 C  
HETATM    5  H2  UNL     1      -9.633  10.727  70.185  1.00  0.00     0.000 HD 
HETATM    6  O   UNL     1     -12.257  11.265  68.436  1.00  0.00    -0.604 OA 
HETATM    7  N   UNL     1     -10.275  11.175  69.531  1.00  0.00    -0.438 N  
HETATM    8  H1  UNL     1     -10.062  12.009  68.985  1.00  0.00     0.000 HD 
ENDBRANCH   3   4
ENDBRANCH   2   3
BRANCH   2   9
HETATM    9  C   UNL     1     -11.996   8.417  72.183  1.00  0.00    -0.374 C  
BRANCH   9  10
HETATM   10  N   UNL     1     -10.665   7.616  72.312  1.00  0.00    -0.242 N  
HETATM   11  C   UNL     1     -10.645   6.594  71.171  1.00  0.00    -0.228 C  
HETATM   12  C   UNL     1     -10.588   6.870  73.636  1.00  0.00    -0.340 C  
HETATM   13  C   UNL     1      -9.435   8.499  72.156  1.00  0.00    -0.305 C  
ENDBRANCH   9  10
ENDBRANCH   2   9
TORSDOF 4
ENDMDL
MODEL       51
REMARK 921   NORMALIZED FREE ENERGY PREDICTED BY IDOCK:   -3.04 KCAL/MOL
REMARK 922        TOTAL FREE ENERGY PREDICTED BY IDOCK:   -4.12 KCAL/MOL
REMARK 923 INTER-LIGAND FREE ENERGY PREDICTED BY IDOCK:   -3.86 KCAL/MOL
REMARK 924 INTRA-LIGAND FREE ENERGY PREDICTED BY IDOCK:   -0.27 KCAL/MOL
REMARK 927      BINDING AFFINITY PREDICTED BY RF-SCORE:    0.00 PKD
ROOT
HETATM    1  C   UNL     1     -10.404   8.320  72.367  1.00  0.00    -0.402 C  
HETATM    2  C   UNL     1     -11.120   8.817  71.106  1.00  0.00    -0.276 C  
ENDROOT
BRANCH   2   3
HETATM    3  O   UNL     1     -12.552   8.674  71.263  1.00  0.00    -0.303 OA 
BRANCH   3   4
HETATM    4  C   UNL     1     -13.215   9.587  72.006  1.00  0.00    -0.452 C  
HETATM    5  H2  UNL     1     -14.034   7.957  73.059  1.00  0.00     0.000 HD 
HETATM    6  O   UNL     1     -13.108  10.796  71.910  1.00  0.00    -0.481 OA 
HETATM    7  N   UNL     1     -13.972   8.968  72.934  1.00  0.00    -0.896 N  
HETATM    8  H1  UNL     1     -14.472   9.656  73.496  1.00  0.00     0.000 HD 
ENDBRANCH   3   4
ENDBRANCH   2   3
BRANCH   2   9
HETATM    9  C   UNL     1     -10.539   8.154  69.832  1.00  0.00    -0.239 C  
BRANCH   9  10
HETATM   10  N   UNL     1      -9.961   9.126  68.760  1.00  0.00    -0.171 N  
HETATM   11  C   UNL     1     -10.438  10.536  69.129  1.00  0.00    -0.228 C  
HETATM   12  C   UNL     1     -10.470   8.788  67.367  1.00  0.00    -0.279 C  
HETATM   13  C   UNL     1      -8.439   9.148  68.752  1.00  0.00    -0.130 C  
ENDBRANCH   9  10
ENDBRANCH   2   9
TORSDOF 4
ENDMDL
MODEL       52
REMARK 921   NORMALIZED FREE ENERGY PREDICTED BY IDOCK:   -3.02 KCAL/MOL
REMARK 922        TOTAL FREE ENERGY PREDICTED BY IDOCK:   -4.10 KCAL/MOL
REMARK 923 INTER-LIGAND FREE ENERGY PREDICTED BY IDOCK:   -4.36 KCAL/MOL
REMARK 924 INTRA-LIGAND FREE ENERGY PREDICTED BY IDOCK:    0.26 KCAL/MOL
REMARK 927      BINDING AFFINITY PREDICTED BY RF-SCORE:    0.00 PKD
ROOT
HETATM    1  C   UNL     1     -11.668  13.126  68.928  1.00  0.00    -0.368 C  
HETATM    2  C   UNL     1     -11.518  14.321  67.980  1.00  0.00    -0.314 C  
ENDROOT
BRANCH   2   3
HETATM    3  O   UNL     1     -12.027  15.519  68.612  1.00  0.00    -0.335 OA 
BRANCH   3   4
HETATM    4  C   UNL     1     -12.107  15.555  69.961  1.00  0.00    -0.368 C  
HETATM    5  H2  UNL     1     -14.196  15.440  69.720  1.00  0.00     0.000 HD 
HETATM    6  O   UNL     1     -11.162  15.569  70.729  1.00  0.00    -0.304 OA 
HETATM    7  N   UNL     1     -13.396  15.500  70.350  1.00  0.00    -0.779 N  
HETATM    8  H1  UNL     1     -13.457  15.527  71.368  1.00  0.00     0.000 HD 
ENDBRANCH   3   4
ENDBRANCH   2   3
BRANCH   2   9
HETATM    9  C   UNL     1     -12.125  14.015  66.588  1.00  0.00    -0.456 C  
BRANCH   9  10
HETATM   10  N   UNL     1     -11.251  14.411  65.360  1.00  0.00    -0.323 N  
HETATM   11  C   UNL     1     -12.213  14.805  64.234  1.00  0.00    -0.379 C  
HETATM   12  C   UNL     1     -10.394  13.247  64.885  1.00  0.00    -0.351 C  
HETATM   13  C   UNL     1     -10.361  15.614  65.640  1.00  0.00    -0.385 C  
ENDBRANCH   9  10
ENDBRANCH   2   9
TORSDOF 4
ENDMDL
MODEL       53
REMARK 921   NORMALIZED FREE ENERGY PREDICTED BY IDOCK:   -3.02 KCAL/MOL
REMARK 922        TOTAL FREE ENERGY PREDICTED BY IDOCK:   -4.10 KCAL/MOL
REMARK 923 INTER-LIGAND FREE ENERGY PREDICTED BY IDOCK:   -3.80 KCAL/MOL
REMARK 924 INTRA-LIGAND FREE ENERGY PREDICTED BY IDOCK:   -0.30 KCAL/MOL
REMARK 927      BINDING AFFINITY PREDICTED BY RF-SCORE:    0.00 PKD
ROOT
HETATM    1  C   UNL     1     -12.037  15.452  69.882  1.00  0.00    -0.382 C  
HETATM    2  C   UNL     1     -11.307  15.548  68.537  1.00  0.00    -0.351 C  
ENDROOT
BRANCH   2   3
HETATM    3  O   UNL     1     -11.135  16.937  68.168  1.00  0.00    -0.347 OA 
BRANCH   3   4
HETATM    4  C   UNL     1      -9.970  17.548  68.473  1.00  0.00    -0.344 C  
HETATM    5  H2  UNL     1     -11.136  19.113  69.263  1.00  0.00     0.000 HD 
HETATM    6  O   UNL     1      -8.857  17.084  68.302  1.00  0.00    -0.226 OA 
HETATM    7  N   UNL     1     -10.210  18.733  69.069  1.00  0.00    -0.493 N  
HETATM    8  H1  UNL     1      -9.331  19.194  69.300  1.00  0.00     0.000 HD 
ENDBRANCH   3   4
ENDBRANCH   2   3
BRANCH   2   9
HETATM    9  C   UNL     1     -11.995  14.672  67.461  1.00  0.00    -0.278 C  
BRANCH   9  10
HETATM   10  N   UNL     1     -11.069  14.122  66.335  1.00  0.00    -0.315 N  
HETATM   11  C   UNL     1     -11.090  15.148  65.196  1.00  0.00    -0.403 C  
HETATM   12  C   UNL     1     -11.571  12.789  65.799  1.00  0.00    -0.376 C  
HETATM   13  C   UNL     1      -9.623  13.974  66.787  1.00  0.00    -0.286 C  
ENDBRANCH   9  10
ENDBRANCH   2   9
TORSDOF 4
ENDMDL
MODEL       54
REMARK 921   NORMALIZED FREE ENERGY PREDICTED BY IDOCK:   -3.00 KCAL/MOL
REMARK 922        TOTAL FREE ENERGY PREDICTED BY IDOCK:   -4.07 KCAL/MOL
REMARK 923 INTER-LIGAND FREE ENERGY PREDICTED BY IDOCK:   -3.89 KCAL/MOL
REMARK 924 INTRA-LIGAND FREE ENERGY PREDICTED BY IDOCK:   -0.18 KCAL/MOL
REMARK 927      BINDING AFFINITY PREDICTED BY RF-SCORE:    0.00 PKD
ROOT
HETATM    1  C   UNL     1     -11.931  12.212  65.293  1.00  0.00    -0.313 C  
HETATM    2  C   UNL     1     -10.957  13.349  65.619  1.00  0.00    -0.281 C  
ENDROOT
BRANCH   2   3
HETATM    3  O   UNL     1     -10.724  14.153  64.439  1.00  0.00    -0.352 OA 
BRANCH   3   4
HETATM    4  C   UNL     1     -11.302  15.371  64.361  1.00  0.00    -0.238 C  
HETATM    5  H2  UNL     1     -12.931  14.407  63.439  1.00  0.00     0.000 HD 
HETATM    6  O   UNL     1     -10.842  16.406  64.809  1.00  0.00    -0.697 OA 
HETATM    7  N   UNL     1     -12.512  15.274  63.775  1.00  0.00    -0.948 N  
HETATM    8  H1  UNL     1     -12.948  16.194  63.717  1.00  0.00     0.000 HD 
ENDBRANCH   3   4
ENDBRANCH   2   3
BRANCH   2   9
HETATM    9  C   UNL     1      -9.673  12.811  66.300  1.00  0.00    -0.262 C  
BRANCH   9  10
HETATM   10  N   UNL     1      -9.552  13.073  67.831  1.00  0.00    -0.208 N  
HETATM   11  C   UNL     1      -9.956  14.532  68.070  1.00  0.00    -0.222 C  
HETATM   12  C   UNL     1      -8.124  12.876  68.321  1.00  0.00    -0.151 C  
HETATM   13  C   UNL     1     -10.493  12.200  68.650  1.00  0.00    -0.216 C  
ENDBRANCH   9  10
ENDBRANCH   2   9
TORSDOF 4
ENDMDL
MODEL       55
REMARK 921   NORMALIZED FREE ENERGY PREDICTED BY IDOCK:   -2.99 KCAL/MOL
REMARK 922        TOTAL FREE ENERGY PREDICTED BY IDOCK:   -4.07 KCAL/MOL
REMARK 923 INTER-LIGAND FREE ENERGY PREDICTED BY IDOCK:   -3.93 KCAL/MOL
REMARK 924 INTRA-LIGAND FREE ENERGY PREDICTED BY IDOCK:   -0.14 KCAL/MOL
REMARK 927      BINDING AFFINITY PREDICTED BY RF-SCORE:    0.00 PKD
ROOT
HETATM    1  C   UNL     1      -9.104  15.303  68.775  1.00  0.00    -0.200 C  
HETATM    2  C   UNL     1     -10.206  16.366  68.837  1.00  0.00    -0.258 C  
ENDROOT
BRANCH   2   3
HETATM    3  O   UNL     1     -11.445  15.766  69.283  1.00  0.00    -0.316 OA 
BRANCH   3   4
HETATM    4  C   UNL     1     -11.597  15.496  70.598  1.00  0.00    -0.349 C  
HETATM    5  H2  UNL     1     -11.471  13.462  70.072  1.00  0.00     0.000 HD 
HETATM    6  O   UNL     1     -11.672  16.322  71.490  1.00  0.00    -0.469 OA 
HETATM    7  N   UNL     1     -11.582  14.164  70.803  1.00  0.00    -0.514 N  
HETATM    8  H1  UNL     1     -11.696  13.960  71.795  1.00  0.00     0.000 HD 
ENDBRANCH   3   4
ENDBRANCH   2   3
BRANCH   2   9
HETATM    9  C   UNL     1     -10.309  17.149  67.504  1.00  0.00    -0.341 C  
BRANCH   9  10
HETATM   10  N   UNL     1      -9.796  18.620  67.536  1.00  0.00    -0.310 N  
HETATM   11  C   UNL     1      -8.291  18.577  67.248  1.00  0.00    -0.253 C  
HETATM   12  C   UNL     1     -10.012  19.258  68.901  1.00  0.00    -0.427 C  
HETATM   13  C   UNL     1     -10.441  19.487  66.464  1.00  0.00    -0.493 C  
ENDBRANCH   9  10
ENDBRANCH   2   9
TORSDOF 4
ENDMDL
MODEL       56
REMARK 921   NORMALIZED FREE ENERGY PREDICTED BY IDOCK:   -2.99 KCAL/MOL
REMARK 922        TOTAL FREE ENERGY PREDICTED BY IDOCK:   -4.06 KCAL/MOL
REMARK 923 INTER-LIGAND FREE ENERGY PREDICTED BY IDOCK:   -3.80 KCAL/MOL
REMARK 924 INTRA-LIGAND FREE ENERGY PREDICTED BY IDOCK:   -0.26 KCAL/MOL
REMARK 927      BINDING AFFINITY PREDICTED BY RF-SCORE:    0.00 PKD
ROOT
HETATM    1  C   UNL     1     -10.581  19.378  65.779  1.00  0.00    -0.490 C  
HETATM    2  C   UNL     1     -10.191  18.222  66.706  1.00  0.00    -0.378 C  
ENDROOT
BRANCH   2   3
HETATM    3  O   UNL     1      -8.894  18.478  67.295  1.00  0.00    -0.265 OA 
BRANCH   3   4
HETATM    4  C   UNL     1      -8.841  19.060  68.513  1.00  0.00    -0.362 C  
HETATM    5  H2  UNL     1      -6.753  19.130  68.256  1.00  0.00     0.000 HD 
HETATM    6  O   UNL     1      -9.800  19.363  69.200  1.00  0.00    -0.426 OA 
HETATM    7  N   UNL     1      -7.562  19.333  68.841  1.00  0.00    -0.355 N  
HETATM    8  H1  UNL     1      -7.522  19.772  69.761  1.00  0.00     0.000 HD 
ENDBRANCH   3   4
ENDBRANCH   2   3
BRANCH   2   9
HETATM    9  C   UNL     1     -10.316  16.856  65.985  1.00  0.00    -0.325 C  
BRANCH   9  10
HETATM   10  N   UNL     1     -10.605  15.627  66.897  1.00  0.00    -0.309 N  
HETATM   11  C   UNL     1      -9.253  14.980  67.221  1.00  0.00    -0.201 C  
HETATM   12  C   UNL     1     -11.479  14.600  66.191  1.00  0.00    -0.339 C  
HETATM   13  C   UNL     1     -11.251  16.018  68.219  1.00  0.00    -0.350 C  
ENDBRANCH   9  10
ENDBRANCH   2   9
TORSDOF 4
ENDMDL
MODEL       57
REMARK 921   NORMALIZED FREE ENERGY PREDICTED BY IDOCK:   -2.99 KCAL/MOL
REMARK 922        TOTAL FREE ENERGY PREDICTED BY IDOCK:   -4.06 KCAL/MOL
REMARK 923 INTER-LIGAND FREE ENERGY PREDICTED BY IDOCK:   -3.80 KCAL/MOL
REMARK 924 INTRA-LIGAND FREE ENERGY PREDICTED BY IDOCK:   -0.26 KCAL/MOL
REMARK 927      BINDING AFFINITY PREDICTED BY RF-SCORE:    0.00 PKD
ROOT
HETATM    1  C   UNL     1      -9.875   9.208  71.215  1.00  0.00    -0.363 C  
HETATM    2  C   UNL     1     -11.059   8.269  71.474  1.00  0.00    -0.259 C  
ENDROOT
BRANCH   2   3
HETATM    3  O   UNL     1     -12.290   9.028  71.518  1.00  0.00    -0.301 OA 
BRANCH   3   4
HETATM    4  C   UNL     1     -13.425   8.399  71.893  1.00  0.00    -0.363 C  
HETATM    5  H2  UNL     1     -13.596   9.862  73.397  1.00  0.00     0.000 HD 
HETATM    6  O   UNL     1     -13.926   7.442  71.332  1.00  0.00    -0.411 OA 
HETATM    7  N   UNL     1     -13.978   9.031  72.948  1.00  0.00    -0.896 N  
HETATM    8  H1  UNL     1     -14.835   8.556  73.231  1.00  0.00     0.000 HD 
ENDBRANCH   3   4
ENDBRANCH   2   3
BRANCH   2   9
HETATM    9  C   UNL     1     -10.806   7.373  72.712  1.00  0.00    -0.326 C  
BRANCH   9  10
HETATM   10  N   UNL     1     -10.356   5.911  72.416  1.00  0.00    -0.192 N  
HETATM   11  C   UNL     1     -11.289   4.985  73.204  1.00  0.00    -0.321 C  
HETATM   12  C   UNL     1      -8.925   5.663  72.871  1.00  0.00    -0.123 C  
HETATM   13  C   UNL     1     -10.489   5.545  70.944  1.00  0.00    -0.249 C  
ENDBRANCH   9  10
ENDBRANCH   2   9
TORSDOF 4
ENDMDL
MODEL       58
REMARK 921   NORMALIZED FREE ENERGY PREDICTED BY IDOCK:   -2.98 KCAL/MOL
REMARK 922        TOTAL FREE ENERGY PREDICTED BY IDOCK:   -4.05 KCAL/MOL
REMARK 923 INTER-LIGAND FREE ENERGY PREDICTED BY IDOCK:   -3.80 KCAL/MOL
REMARK 924 INTRA-LIGAND FREE ENERGY PREDICTED BY IDOCK:   -0.26 KCAL/MOL
REMARK 927      BINDING AFFINITY PREDICTED BY RF-SCORE:    0.00 PKD
ROOT
HETATM    1  C   UNL     1     -11.169   6.491  72.332  1.00  0.00    -0.310 C  
HETATM    2  C   UNL     1     -11.575   7.281  71.083  1.00  0.00    -0.293 C  
ENDROOT
BRANCH   2   3
HETATM    3  O   UNL     1     -12.847   7.935  71.305  1.00  0.00    -0.297 OA 
BRANCH   3   4
HETATM    4  C   UNL     1     -12.856   9.147  71.902  1.00  0.00    -0.393 C  
HETATM    5  H2  UNL     1     -14.404   8.402  73.119  1.00  0.00     0.000 HD 
HETATM    6  O   UNL     1     -12.095  10.066  71.658  1.00  0.00    -0.387 OA 
HETATM    7  N   UNL     1     -13.792   9.180  72.871  1.00  0.00    -0.901 N  
HETATM    8  H1  UNL     1     -13.800  10.094  73.321  1.00  0.00     0.000 HD 
ENDBRANCH   3   4
ENDBRANCH   2   3
BRANCH   2   9
HETATM    9  C   UNL     1     -11.515   6.396  69.813  1.00  0.00    -0.399 C  
BRANCH   9  10
HETATM   10  N   UNL     1     -10.363   6.715  68.813  1.00  0.00    -0.180 N  
HETATM   11  C   UNL     1      -9.335   5.585  68.938  1.00  0.00    -0.125 C  
HETATM   12  C   UNL     1      -9.681   8.034  69.148  1.00  0.00    -0.163 C  
HETATM   13  C   UNL     1     -10.836   6.743  67.366  1.00  0.00    -0.347 C  
ENDBRANCH   9  10
ENDBRANCH   2   9
TORSDOF 4
ENDMDL
MODEL       59
REMARK 921   NORMALIZED FREE ENERGY PREDICTED BY IDOCK:   -2.98 KCAL/MOL
REMARK 922        TOTAL FREE ENERGY PREDICTED BY IDOCK:   -4.05 KCAL/MOL
REMARK 923 INTER-LIGAND FREE ENERGY PREDICTED BY IDOCK:   -3.84 KCAL/MOL
REMARK 924 INTRA-LIGAND FREE ENERGY PREDICTED BY IDOCK:   -0.21 KCAL/MOL
REMARK 927      BINDING AFFINITY PREDICTED BY RF-SCORE:    0.00 PKD
ROOT
HETATM    1  C   UNL     1     -10.707   7.249  73.494  1.00  0.00    -0.367 C  
HETATM    2  C   UNL     1     -11.161   7.170  72.032  1.00  0.00    -0.251 C  
ENDROOT
BRANCH   2   3
HETATM    3  O   UNL     1     -12.538   7.602  71.919  1.00  0.00    -0.310 OA 
BRANCH   3   4
HETATM    4  C   UNL     1     -12.821   8.911  72.097  1.00  0.00    -0.409 C  
HETATM    5  H2  UNL     1     -14.400   8.278  73.337  1.00  0.00     0.000 HD 
HETATM    6  O   UNL     1     -12.181   9.845  71.647  1.00  0.00    -0.382 OA 
HETATM    7  N   UNL     1     -13.884   9.049  72.914  1.00  0.00    -0.923 N  
HETATM    8  H1  UNL     1     -14.098  10.037  73.048  1.00  0.00     0.000 HD 
ENDBRANCH   3   4
ENDBRANCH   2   3
BRANCH   2   9
HETATM    9  C   UNL     1     -10.870   5.773  71.429  1.00  0.00    -0.251 C  
BRANCH   9  10
HETATM   10  N   UNL     1     -10.208   5.764  70.018  1.00  0.00    -0.217 N  
HETATM   11  C   UNL     1      -8.986   6.686  70.090  1.00  0.00    -0.152 C  
HETATM   12  C   UNL     1     -11.157   6.295  68.952  1.00  0.00    -0.362 C  
HETATM   13  C   UNL     1      -9.714   4.383  69.613  1.00  0.00    -0.219 C  
ENDBRANCH   9  10
ENDBRANCH   2   9
TORSDOF 4
ENDMDL
MODEL       60
REMARK 921   NORMALIZED FREE ENERGY PREDICTED BY IDOCK:   -2.98 KCAL/MOL
REMARK 922        TOTAL FREE ENERGY PREDICTED BY IDOCK:   -4.05 KCAL/MOL
REMARK 923 INTER-LIGAND FREE ENERGY PREDICTED BY IDOCK:   -4.32 KCAL/MOL
REMARK 924 INTRA-LIGAND FREE ENERGY PREDICTED BY IDOCK:    0.27 KCAL/MOL
REMARK 927      BINDING AFFINITY PREDICTED BY RF-SCORE:    0.00 PKD
ROOT
HETATM    1  C   UNL     1      -9.977  14.116  66.833  1.00  0.00    -0.261 C  
HETATM    2  C   UNL     1     -11.100  15.103  66.496  1.00  0.00    -0.305 C  
ENDROOT
BRANCH   2   3
HETATM    3  O   UNL     1     -12.124  14.436  65.720  1.00  0.00    -0.385 OA 
BRANCH   3   4
HETATM    4  C   UNL     1     -11.849  14.095  64.442  1.00  0.00    -0.428 C  
HETATM    5  H2  UNL     1     -13.101  15.690  63.874  1.00  0.00     0.000 HD 
HETATM    6  O   UNL     1     -11.081  13.218  64.089  1.00  0.00    -0.378 OA 
HETATM    7  N   UNL     1     -12.494  14.920  63.593  1.00  0.00    -1.008 N  
HETATM    8  H1  UNL     1     -12.286  14.663  62.628  1.00  0.00     0.000 HD 
ENDBRANCH   3   4
ENDBRANCH   2   3
BRANCH   2   9
HETATM    9  C   UNL     1     -10.539  16.395  65.852  1.00  0.00    -0.285 C  
BRANCH   9  10
HETATM   10  N   UNL     1      -9.949  17.448  66.839  1.00  0.00    -0.288 N  
HETATM   11  C   UNL     1     -10.551  18.805  66.459  1.00  0.00    -0.374 C  
HETATM   12  C   UNL     1      -8.434  17.536  66.722  1.00  0.00    -0.250 C  
HETATM   13  C   UNL     1     -10.330  17.170  68.286  1.00  0.00    -0.354 C  
ENDBRANCH   9  10
ENDBRANCH   2   9
TORSDOF 4
ENDMDL
MODEL       61
REMARK 921   NORMALIZED FREE ENERGY PREDICTED BY IDOCK:   -2.98 KCAL/MOL
REMARK 922        TOTAL FREE ENERGY PREDICTED BY IDOCK:   -4.05 KCAL/MOL
REMARK 923 INTER-LIGAND FREE ENERGY PREDICTED BY IDOCK:   -3.80 KCAL/MOL
REMARK 924 INTRA-LIGAND FREE ENERGY PREDICTED BY IDOCK:   -0.25 KCAL/MOL
REMARK 927      BINDING AFFINITY PREDICTED BY RF-SCORE:    0.00 PKD
ROOT
HETATM    1  C   UNL     1      -9.698  14.916  67.842  1.00  0.00    -0.206 C  
HETATM    2  C   UNL     1     -10.348  16.214  68.334  1.00  0.00    -0.257 C  
ENDROOT
BRANCH   2   3
HETATM    3  O   UNL     1     -11.721  15.965  68.715  1.00  0.00    -0.387 OA 
BRANCH   3   4
HETATM    4  C   UNL     1     -11.971  15.462  69.944  1.00  0.00    -0.359 C  
HETATM    5  H2  UNL     1     -11.122  17.231  70.707  1.00  0.00     0.000 HD 
HETATM    6  O   UNL     1     -12.542  14.413  70.181  1.00  0.00    -0.345 OA 
HETATM    7  N   UNL     1     -11.558  16.328  70.891  1.00  0.00    -0.571 N  
HETATM    8  H1  UNL     1     -11.746  15.949  71.819  1.00  0.00     0.000 HD 
ENDBRANCH   3   4
ENDBRANCH   2   3
BRANCH   2   9
HETATM    9  C   UNL     1     -10.158  17.360  67.309  1.00  0.00    -0.310 C  
BRANCH   9  10
HETATM   10  N   UNL     1      -9.319  18.580  67.797  1.00  0.00    -0.287 N  
HETATM   11  C   UNL     1      -9.196  19.544  66.612  1.00  0.00    -0.354 C  
HETATM   12  C   UNL     1      -7.921  18.159  68.229  1.00  0.00    -0.295 C  
HETATM   13  C   UNL     1      -9.993  19.337  68.932  1.00  0.00    -0.427 C  
ENDBRANCH   9  10
ENDBRANCH   2   9
TORSDOF 4
ENDMDL
MODEL       62
REMARK 921   NORMALIZED FREE ENERGY PREDICTED BY IDOCK:   -2.97 KCAL/MOL
REMARK 922        TOTAL FREE ENERGY PREDICTED BY IDOCK:   -4.04 KCAL/MOL
REMARK 923 INTER-LIGAND FREE ENERGY PREDICTED BY IDOCK:   -3.73 KCAL/MOL
REMARK 924 INTRA-LIGAND FREE ENERGY PREDICTED BY IDOCK:   -0.31 KCAL/MOL
REMARK 927      BINDING AFFINITY PREDICTED BY RF-SCORE:    0.00 PKD
ROOT
HETATM    1  C   UNL     1      -6.947  17.288  66.104  1.00  0.00    -0.251 C  
HETATM    2  C   UNL     1      -8.391  17.718  66.385  1.00  0.00    -0.248 C  
ENDROOT
BRANCH   2   3
HETATM    3  O   UNL     1      -8.533  19.141  66.162  1.00  0.00    -0.373 OA 
BRANCH   3   4
HETATM    4  C   UNL     1      -9.772  19.678  66.182  1.00  0.00    -0.406 C  
HETATM    5  H2  UNL     1      -8.957  21.212  67.373  1.00  0.00     0.000 HD 
HETATM    6  O   UNL     1     -10.743  19.250  65.585  1.00  0.00    -0.458 OA 
HETATM    7  N   UNL     1      -9.773  20.815  66.908  1.00  0.00    -0.659 N  
HETATM    8  H1  UNL     1     -10.708  21.221  66.923  1.00  0.00     0.000 HD 
ENDBRANCH   3   4
ENDBRANCH   2   3
BRANCH   2   9
HETATM    9  C   UNL     1      -8.862  17.230  67.777  1.00  0.00    -0.234 C  
BRANCH   9  10
HETATM   10  N   UNL     1      -9.927  16.093  67.777  1.00  0.00    -0.234 N  
HETATM   11  C   UNL     1     -10.398  15.919  66.329  1.00  0.00    -0.314 C  
HETATM   12  C   UNL     1     -11.128  16.451  68.640  1.00  0.00    -0.352 C  
HETATM   13  C   UNL     1      -9.356  14.758  68.234  1.00  0.00    -0.199 C  
ENDBRANCH   9  10
ENDBRANCH   2   9
TORSDOF 4
ENDMDL
MODEL       63
REMARK 921   NORMALIZED FREE ENERGY PREDICTED BY IDOCK:   -2.95 KCAL/MOL
REMARK 922        TOTAL FREE ENERGY PREDICTED BY IDOCK:   -4.01 KCAL/MOL
REMARK 923 INTER-LIGAND FREE ENERGY PREDICTED BY IDOCK:   -4.22 KCAL/MOL
REMARK 924 INTRA-LIGAND FREE ENERGY PREDICTED BY IDOCK:    0.20 KCAL/MOL
REMARK 927      BINDING AFFINITY PREDICTED BY RF-SCORE:    0.00 PKD
ROOT
HETATM    1  C   UNL     1     -12.445  14.215  66.248  1.00  0.00    -0.395 C  
HETATM    2  C   UNL     1     -11.028  13.846  65.794  1.00  0.00    -0.285 C  
ENDROOT
BRANCH   2   3
HETATM    3  O   UNL     1     -11.087  13.089  64.562  1.00  0.00    -0.317 OA 
BRANCH   3   4
HETATM    4  C   UNL     1     -12.262  13.021  63.899  1.00  0.00    -0.437 C  
HETATM    5  H2  UNL     1     -11.717  14.841  62.992  1.00  0.00     0.000 HD 
HETATM    6  O   UNL     1     -13.062  12.105  63.961  1.00  0.00    -0.723 OA 
HETATM    7  N   UNL     1     -12.401  14.090  63.090  1.00  0.00    -1.094 N  
HETATM    8  H1  UNL     1     -13.288  14.040  62.590  1.00  0.00     0.000 HD 
ENDBRANCH   3   4
ENDBRANCH   2   3
BRANCH   2   9
HETATM    9  C   UNL     1     -10.232  13.165  66.935  1.00  0.00    -0.245 C  
BRANCH   9  10
HETATM   10  N   UNL     1      -9.134  14.037  67.615  1.00  0.00    -0.184 N  
HETATM   11  C   UNL     1      -7.913  13.135  67.830  1.00  0.00    -0.162 C  
HETATM   12  C   UNL     1      -9.595  14.562  68.967  1.00  0.00    -0.102 C  
HETATM   13  C   UNL     1      -8.691  15.204  66.743  1.00  0.00    -0.273 C  
ENDBRANCH   9  10
ENDBRANCH   2   9
TORSDOF 4
ENDMDL
MODEL       64
REMARK 921   NORMALIZED FREE ENERGY PREDICTED BY IDOCK:   -2.95 KCAL/MOL
REMARK 922        TOTAL FREE ENERGY PREDICTED BY IDOCK:   -4.01 KCAL/MOL
REMARK 923 INTER-LIGAND FREE ENERGY PREDICTED BY IDOCK:   -3.75 KCAL/MOL
REMARK 924 INTRA-LIGAND FREE ENERGY PREDICTED BY IDOCK:   -0.26 KCAL/MOL
REMARK 927      BINDING AFFINITY PREDICTED BY RF-SCORE:    0.00 PKD
ROOT
HETATM    1  C   UNL     1     -10.523  17.203  67.457  1.00  0.00    -0.348 C  
HETATM    2  C   UNL     1      -9.789  16.382  66.391  1.00  0.00    -0.294 C  
ENDROOT
BRANCH   2   3
HETATM    3  O   UNL     1      -8.781  17.197  65.748  1.00  0.00    -0.527 OA 
BRANCH   3   4
HETATM    4  C   UNL     1      -7.509  17.130  66.200  1.00  0.00    -0.260 C  
HETATM    5  H2  UNL     1      -7.232  19.033  65.342  1.00  0.00     0.000 HD 
HETATM    6  O   UNL     1      -7.040  16.230  66.873  1.00  0.00    -0.212 OA 
HETATM    7  N   UNL     1      -6.838  18.249  65.863  1.00  0.00    -0.278 N  
HETATM    8  H1  UNL     1      -5.878  18.200  66.204  1.00  0.00     0.000 HD 
ENDBRANCH   3   4
ENDBRANCH   2   3
BRANCH   2   9
HETATM    9  C   UNL     1     -10.786  15.700  65.421  1.00  0.00    -0.408 C  
BRANCH   9  10
HETATM   10  N   UNL     1     -10.990  14.168  65.618  1.00  0.00    -0.300 N  
HETATM   11  C   UNL     1     -12.249  13.989  66.474  1.00  0.00    -0.451 C  
HETATM   12  C   UNL     1      -9.812  13.536  66.346  1.00  0.00    -0.295 C  
HETATM   13  C   UNL     1     -11.225  13.436  64.304  1.00  0.00    -0.380 C  
ENDBRANCH   9  10
ENDBRANCH   2   9
TORSDOF 4
ENDMDL
MODEL       65
REMARK 921   NORMALIZED FREE ENERGY PREDICTED BY IDOCK:   -2.95 KCAL/MOL
REMARK 922        TOTAL FREE ENERGY PREDICTED BY IDOCK:   -4.01 KCAL/MOL
REMARK 923 INTER-LIGAND FREE ENERGY PREDICTED BY IDOCK:   -3.97 KCAL/MOL
REMARK 924 INTRA-LIGAND FREE ENERGY PREDICTED BY IDOCK:   -0.04 KCAL/MOL
REMARK 927      BINDING AFFINITY PREDICTED BY RF-SCORE:    0.00 PKD
ROOT
HETATM    1  C   UNL     1     -10.089  19.801  68.926  1.00  0.00    -0.481 C  
HETATM    2  C   UNL     1      -9.364  18.534  68.459  1.00  0.00    -0.338 C  
ENDROOT
BRANCH   2   3
HETATM    3  O   UNL     1      -8.179  18.892  67.709  1.00  0.00    -0.263 OA 
BRANCH   3   4
HETATM    4  C   UNL     1      -8.238  18.874  66.359  1.00  0.00    -0.294 C  
HETATM    5  H2  UNL     1      -8.703  20.925  66.473  1.00  0.00     0.000 HD 
HETATM    6  O   UNL     1      -7.991  17.917  65.649  1.00  0.00    -0.527 OA 
HETATM    7  N   UNL     1      -8.541  20.102  65.892  1.00  0.00    -0.535 N  
HETATM    8  H1  UNL     1      -8.585  20.089  64.874  1.00  0.00     0.000 HD 
ENDBRANCH   3   4
ENDBRANCH   2   3
BRANCH   2   9
HETATM    9  C   UNL     1     -10.330  17.573  67.722  1.00  0.00    -0.367 C  
BRANCH   9  10
HETATM   10  N   UNL     1     -10.413  16.123  68.288  1.00  0.00    -0.265 N  
HETATM   11  C   UNL     1     -10.305  15.168  67.093  1.00  0.00    -0.263 C  
HETATM   12  C   UNL     1     -11.739  15.873  68.992  1.00  0.00    -0.370 C  
HETATM   13  C   UNL     1      -9.268  15.799  69.236  1.00  0.00    -0.266 C  
ENDBRANCH   9  10
ENDBRANCH   2   9
TORSDOF 4
ENDMDL
MODEL       66
REMARK 921   NORMALIZED FREE ENERGY PREDICTED BY IDOCK:   -2.94 KCAL/MOL
REMARK 922        TOTAL FREE ENERGY PREDICTED BY IDOCK:   -4.00 KCAL/MOL
REMARK 923 INTER-LIGAND FREE ENERGY PREDICTED BY IDOCK:   -4.29 KCAL/MOL
REMARK 924 INTRA-LIGAND FREE ENERGY PREDICTED BY IDOCK:    0.28 KCAL/MOL
REMARK 927      BINDING AFFINITY PREDICTED BY RF-SCORE:    0.00 PKD
ROOT
HETATM    1  C   UNL     1     -11.608  12.646  69.502  1.00  0.00    -0.348 C  
HETATM    2  C   UNL     1     -12.258  14.008  69.770  1.00  0.00    -0.341 C  
ENDROOT
BRANCH   2   3
HETATM    3  O   UNL     1     -11.880  14.947  68.735  1.00  0.00    -0.314 OA 
BRANCH   3   4
HETATM    4  C   UNL     1     -11.650  14.477  67.489  1.00  0.00    -0.381 C  
HETATM    5  H2  UNL     1      -9.910  15.664  67.494  1.00  0.00     0.000 HD 
HETATM    6  O   UNL     1     -12.324  13.649  66.905  1.00  0.00    -0.365 OA 
HETATM    7  N   UNL     1     -10.511  15.006  66.997  1.00  0.00    -0.273 N  
HETATM    8  H1  UNL     1     -10.337  14.652  66.057  1.00  0.00     0.000 HD 
ENDBRANCH   3   4
ENDBRANCH   2   3
BRANCH   2   9
HETATM    9  C   UNL     1     -11.977  14.491  71.215  1.00  0.00    -0.333 C  
BRANCH   9  10
HETATM   10  N   UNL     1     -13.198  14.490  72.184  1.00  0.00    -0.341 N  
HETATM   11  C   UNL     1     -14.291  15.341  71.528  1.00  0.00    -0.527 C  
HETATM   12  C   UNL     1     -12.843  15.105  73.530  1.00  0.00    -0.526 C  
HETATM   13  C   UNL     1     -13.772  13.097  72.399  1.00  0.00    -0.540 C  
ENDBRANCH   9  10
ENDBRANCH   2   9
TORSDOF 4
ENDMDL
MODEL       67
REMARK 921   NORMALIZED FREE ENERGY PREDICTED BY IDOCK:   -2.93 KCAL/MOL
REMARK 922        TOTAL FREE ENERGY PREDICTED BY IDOCK:   -3.99 KCAL/MOL
REMARK 923 INTER-LIGAND FREE ENERGY PREDICTED BY IDOCK:   -3.79 KCAL/MOL
REMARK 924 INTRA-LIGAND FREE ENERGY PREDICTED BY IDOCK:   -0.19 KCAL/MOL
REMARK 927      BINDING AFFINITY PREDICTED BY RF-SCORE:    0.00 PKD
ROOT
HETATM    1  C   UNL     1      -9.794  15.094  69.002  1.00  0.00    -0.238 C  
HETATM    2  C   UNL     1     -10.413  15.029  67.601  1.00  0.00    -0.247 C  
ENDROOT
BRANCH   2   3
HETATM    3  O   UNL     1     -10.759  16.361  67.153  1.00  0.00    -0.307 OA 
BRANCH   3   4
HETATM    4  C   UNL     1     -10.140  16.856  66.059  1.00  0.00    -0.319 C  
HETATM    5  H2  UNL     1      -8.414  15.854  66.730  1.00  0.00     0.000 HD 
HETATM    6  O   UNL     1     -10.666  17.520  65.183  1.00  0.00    -0.673 OA 
HETATM    7  N   UNL     1      -8.855  16.449  66.029  1.00  0.00    -0.317 N  
HETATM    8  H1  UNL     1      -8.388  16.823  65.203  1.00  0.00     0.000 HD 
ENDBRANCH   3   4
ENDBRANCH   2   3
BRANCH   2   9
HETATM    9  C   UNL     1     -11.575  14.006  67.547  1.00  0.00    -0.367 C  
BRANCH   9  10
HETATM   10  N   UNL     1     -11.441  12.877  66.481  1.00  0.00    -0.323 N  
HETATM   11  C   UNL     1     -10.063  13.037  65.829  1.00  0.00    -0.287 C  
HETATM   12  C   UNL     1     -12.507  13.000  65.401  1.00  0.00    -0.476 C  
HETATM   13  C   UNL     1     -11.498  11.485  67.093  1.00  0.00    -0.237 C  
ENDBRANCH   9  10
ENDBRANCH   2   9
TORSDOF 4
ENDMDL
MODEL       68
REMARK 921   NORMALIZED FREE ENERGY PREDICTED BY IDOCK:   -2.91 KCAL/MOL
REMARK 922        TOTAL FREE ENERGY PREDICTED BY IDOCK:   -3.97 KCAL/MOL
REMARK 923 INTER-LIGAND FREE ENERGY PREDICTED BY IDOCK:   -3.61 KCAL/MOL
REMARK 924 INTRA-LIGAND FREE ENERGY PREDICTED BY IDOCK:   -0.36 KCAL/MOL
REMARK 927      BINDING AFFINITY PREDICTED BY RF-SCORE:    0.00 PKD
ROOT
HETATM    1  C   UNL     1     -13.945   8.909  72.391  1.00  0.00    -0.516 C  
HETATM    2  C   UNL     1     -12.521   8.793  71.835  1.00  0.00    -0.372 C  
ENDROOT
BRANCH   2   3
HETATM    3  O   UNL     1     -12.322   9.767  70.784  1.00  0.00    -0.286 OA 
BRANCH   3   4
HETATM    4  C   UNL     1     -11.155   9.755  70.104  1.00  0.00    -0.285 C  
HETATM    5  H2  UNL     1     -12.318   9.723  68.349  1.00  0.00     0.000 HD 
HETATM    6  O   UNL     1     -10.043   9.823  70.596  1.00  0.00    -0.272 OA 
HETATM    7  N   UNL     1     -11.392   9.730  68.777  1.00  0.00    -0.482 N  
HETATM    8  H1  UNL     1     -10.512   9.721  68.263  1.00  0.00     0.000 HD 
ENDBRANCH   3   4
ENDBRANCH   2   3
BRANCH   2   9
HETATM    9  C   UNL     1     -12.190   7.333  71.436  1.00  0.00    -0.349 C  
BRANCH   9  10
HETATM   10  N   UNL     1     -10.989   6.677  72.182  1.00  0.00    -0.236 N  
HETATM   11  C   UNL     1     -11.501   5.368  72.793  1.00  0.00    -0.268 C  
HETATM   12  C   UNL     1     -10.473   7.569  73.303  1.00  0.00    -0.371 C  
HETATM   13  C   UNL     1      -9.842   6.325  71.246  1.00  0.00    -0.175 C  
ENDBRANCH   9  10
ENDBRANCH   2   9
TORSDOF 4
ENDMDL
MODEL       69
REMARK 921   NORMALIZED FREE ENERGY PREDICTED BY IDOCK:   -2.90 KCAL/MOL
REMARK 922        TOTAL FREE ENERGY PREDICTED BY IDOCK:   -3.95 KCAL/MOL
REMARK 923 INTER-LIGAND FREE ENERGY PREDICTED BY IDOCK:   -3.58 KCAL/MOL
REMARK 924 INTRA-LIGAND FREE ENERGY PREDICTED BY IDOCK:   -0.37 KCAL/MOL
REMARK 927      BINDING AFFINITY PREDICTED BY RF-SCORE:    0.00 PKD
ROOT
HETATM    1  C   UNL     1     -10.688  10.020  69.863  1.00  0.00    -0.328 C  
HETATM    2  C   UNL     1     -11.608   9.063  70.630  1.00  0.00    -0.224 C  
ENDROOT
BRANCH   2   3
HETATM    3  O   UNL     1     -12.777   9.774  71.101  1.00  0.00    -0.320 OA 
BRANCH   3   4
HETATM    4  C   UNL     1     -13.754   9.075  71.719  1.00  0.00    -0.419 C  
HETATM    5  H2  UNL     1     -14.168   8.225  69.838  1.00  0.00     0.000 HD 
HETATM    6  O   UNL     1     -13.996   9.092  72.912  1.00  0.00    -0.427 OA 
HETATM    7  N   UNL     1     -14.391   8.286  70.831  1.00  0.00    -0.573 N  
HETATM    8  H1  UNL     1     -15.129   7.758  71.296  1.00  0.00     0.000 HD 
ENDBRANCH   3   4
ENDBRANCH   2   3
BRANCH   2   9
HETATM    9  C   UNL     1     -10.830   8.296  71.729  1.00  0.00    -0.267 C  
BRANCH   9  10
HETATM   10  N   UNL     1     -10.670   6.762  71.506  1.00  0.00    -0.223 N  
HETATM   11  C   UNL     1     -11.503   6.062  72.586  1.00  0.00    -0.253 C  
HETATM   12  C   UNL     1      -9.219   6.325  71.651  1.00  0.00    -0.144 C  
HETATM   13  C   UNL     1     -11.202   6.309  70.154  1.00  0.00    -0.403 C  
ENDBRANCH   9  10
ENDBRANCH   2   9
TORSDOF 4
ENDMDL
MODEL       70
REMARK 921   NORMALIZED FREE ENERGY PREDICTED BY IDOCK:   -2.89 KCAL/MOL
REMARK 922        TOTAL FREE ENERGY PREDICTED BY IDOCK:   -3.94 KCAL/MOL
REMARK 923 INTER-LIGAND FREE ENERGY PREDICTED BY IDOCK:   -3.69 KCAL/MOL
REMARK 924 INTRA-LIGAND FREE ENERGY PREDICTED BY IDOCK:   -0.26 KCAL/MOL
REMARK 927      BINDING AFFINITY PREDICTED BY RF-SCORE:    0.00 PKD
ROOT
HETATM    1  C   UNL     1     -13.013  10.963  71.561  1.00  0.00    -0.556 C  
HETATM    2  C   UNL     1     -12.330   9.622  71.270  1.00  0.00    -0.360 C  
ENDROOT
BRANCH   2   3
HETATM    3  O   UNL     1     -12.753   8.633  72.239  1.00  0.00    -0.363 OA 
BRANCH   3   4
HETATM    4  C   UNL     1     -13.026   7.382  71.808  1.00  0.00    -0.325 C  
HETATM    5  H2  UNL     1     -14.651   8.225  70.767  1.00  0.00     0.000 HD 
HETATM    6  O   UNL     1     -12.362   6.388  72.042  1.00  0.00    -0.337 OA 
HETATM    7  N   UNL     1     -14.113   7.393  71.011  1.00  0.00    -0.600 N  
HETATM    8  H1  UNL     1     -14.320   6.449  70.686  1.00  0.00     0.000 HD 
ENDBRANCH   3   4
ENDBRANCH   2   3
BRANCH   2   9
HETATM    9  C   UNL     1     -10.795   9.789  71.143  1.00  0.00    -0.263 C  
BRANCH   9  10
HETATM   10  N   UNL     1     -10.195   9.524  69.730  1.00  0.00    -0.212 N  
HETATM   11  C   UNL     1     -10.317   8.019  69.464  1.00  0.00    -0.221 C  
HETATM   12  C   UNL     1      -8.724   9.912  69.665  1.00  0.00    -0.204 C  
HETATM   13  C   UNL     1     -10.957  10.245  68.627  1.00  0.00    -0.244 C  
ENDBRANCH   9  10
ENDBRANCH   2   9
TORSDOF 4
ENDMDL
MODEL       71
REMARK 921   NORMALIZED FREE ENERGY PREDICTED BY IDOCK:   -2.89 KCAL/MOL
REMARK 922        TOTAL FREE ENERGY PREDICTED BY IDOCK:   -3.94 KCAL/MOL
REMARK 923 INTER-LIGAND FREE ENERGY PREDICTED BY IDOCK:   -3.60 KCAL/MOL
REMARK 924 INTRA-LIGAND FREE ENERGY PREDICTED BY IDOCK:   -0.34 KCAL/MOL
REMARK 927      BINDING AFFINITY PREDICTED BY RF-SCORE:    0.00 PKD
ROOT
HETATM    1  C   UNL     1     -11.039   6.046  69.477  1.00  0.00    -0.468 C  
HETATM    2  C   UNL     1     -11.349   6.497  70.909  1.00  0.00    -0.337 C  
ENDROOT
BRANCH   2   3
HETATM    3  O   UNL     1     -12.114   7.725  70.884  1.00  0.00    -0.274 OA 
BRANCH   3   4
HETATM    4  C   UNL     1     -13.247   7.797  71.617  1.00  0.00    -0.343 C  
HETATM    5  H2  UNL     1     -12.122   8.882  73.028  1.00  0.00     0.000 HD 
HETATM    6  O   UNL     1     -14.338   7.372  71.283  1.00  0.00    -0.421 OA 
HETATM    7  N   UNL     1     -13.019   8.479  72.757  1.00  0.00    -0.621 N  
HETATM    8  H1  UNL     1     -13.873   8.533  73.311  1.00  0.00     0.000 HD 
ENDBRANCH   3   4
ENDBRANCH   2   3
BRANCH   2   9
HETATM    9  C   UNL     1     -10.063   6.552  71.772  1.00  0.00    -0.184 C  
BRANCH   9  10
HETATM   10  N   UNL     1     -10.110   5.767  73.117  1.00  0.00    -0.176 N  
HETATM   11  C   UNL     1     -11.410   4.955  73.118  1.00  0.00    -0.315 C  
HETATM   12  C   UNL     1     -10.121   6.707  74.313  1.00  0.00    -0.351 C  
HETATM   13  C   UNL     1      -8.958   4.781  73.258  1.00  0.00    -0.113 C  
ENDBRANCH   9  10
ENDBRANCH   2   9
TORSDOF 4
ENDMDL
MODEL       72
REMARK 921   NORMALIZED FREE ENERGY PREDICTED BY IDOCK:   -2.86 KCAL/MOL
REMARK 922        TOTAL FREE ENERGY PREDICTED BY IDOCK:   -3.90 KCAL/MOL
REMARK 923 INTER-LIGAND FREE ENERGY PREDICTED BY IDOCK:   -3.55 KCAL/MOL
REMARK 924 INTRA-LIGAND FREE ENERGY PREDICTED BY IDOCK:   -0.35 KCAL/MOL
REMARK 927      BINDING AFFINITY PREDICTED BY RF-SCORE:    0.00 PKD
ROOT
HETATM    1  C   UNL     1     -10.364  17.553  68.781  1.00  0.00    -0.358 C  
HETATM    2  C   UNL     1      -9.064  18.137  68.216  1.00  0.00    -0.300 C  
ENDROOT
BRANCH   2   3
HETATM    3  O   UNL     1      -9.170  18.275  66.780  1.00  0.00    -0.271 OA 
BRANCH   3   4
HETATM    4  C   UNL     1      -9.563  19.463  66.270  1.00  0.00    -0.375 C  
HETATM    5  H2  UNL     1      -7.519  19.953  66.154  1.00  0.00     0.000 HD 
HETATM    6  O   UNL     1     -10.711  19.786  66.024  1.00  0.00    -0.472 OA 
HETATM    7  N   UNL     1      -8.488  20.229  65.999  1.00  0.00    -0.575 N  
HETATM    8  H1  UNL     1      -8.785  21.126  65.614  1.00  0.00     0.000 HD 
ENDBRANCH   3   4
ENDBRANCH   2   3
BRANCH   2   9
HETATM    9  C   UNL     1      -7.830  17.336  68.702  1.00  0.00    -0.272 C  
BRANCH   9  10
HETATM   10  N   UNL     1      -6.533  18.164  68.948  1.00  0.00    -0.221 N  
HETATM   11  C   UNL     1      -6.972  19.573  69.362  1.00  0.00    -0.313 C  
HETATM   12  C   UNL     1      -5.689  18.268  67.686  1.00  0.00    -0.150 C  
HETATM   13  C   UNL     1      -5.686  17.600  70.079  1.00  0.00    -0.246 C  
ENDBRANCH   9  10
ENDBRANCH   2   9
TORSDOF 4
ENDMDL
MODEL       73
REMARK 921   NORMALIZED FREE ENERGY PREDICTED BY IDOCK:   -2.84 KCAL/MOL
REMARK 922        TOTAL FREE ENERGY PREDICTED BY IDOCK:   -3.88 KCAL/MOL
REMARK 923 INTER-LIGAND FREE ENERGY PREDICTED BY IDOCK:   -3.46 KCAL/MOL
REMARK 924 INTRA-LIGAND FREE ENERGY PREDICTED BY IDOCK:   -0.42 KCAL/MOL
REMARK 927      BINDING AFFINITY PREDICTED BY RF-SCORE:    0.00 PKD
ROOT
HETATM    1  C   UNL     1     -10.760  15.660  69.578  1.00  0.00    -0.271 C  
HETATM    2  C   UNL     1     -10.731  14.915  68.239  1.00  0.00    -0.249 C  
ENDROOT
BRANCH   2   3
HETATM    3  O   UNL     1     -10.851  15.858  67.148  1.00  0.00    -0.319 OA 
BRANCH   3   4
HETATM    4  C   UNL     1     -10.610  15.427  65.890  1.00  0.00    -0.339 C  
HETATM    5  H2  UNL     1      -8.638  15.054  66.526  1.00  0.00     0.000 HD 
HETATM    6  O   UNL     1     -11.434  15.339  64.998  1.00  0.00    -0.353 OA 
HETATM    7  N   UNL     1      -9.326  15.032  65.775  1.00  0.00    -0.483 N  
HETATM    8  H1  UNL     1      -9.144  14.706  64.826  1.00  0.00     0.000 HD 
ENDBRANCH   3   4
ENDBRANCH   2   3
BRANCH   2   9
HETATM    9  C   UNL     1     -11.766  13.762  68.215  1.00  0.00    -0.359 C  
BRANCH   9  10
HETATM   10  N   UNL     1     -11.195  12.339  67.937  1.00  0.00    -0.254 N  
HETATM   11  C   UNL     1     -11.918  11.373  68.882  1.00  0.00    -0.304 C  
HETATM   12  C   UNL     1      -9.701  12.271  68.220  1.00  0.00    -0.219 C  
HETATM   13  C   UNL     1     -11.462  11.870  66.513  1.00  0.00    -0.314 C  
ENDBRANCH   9  10
ENDBRANCH   2   9
TORSDOF 4
ENDMDL
MODEL       74
REMARK 921   NORMALIZED FREE ENERGY PREDICTED BY IDOCK:   -2.84 KCAL/MOL
REMARK 922        TOTAL FREE ENERGY PREDICTED BY IDOCK:   -3.88 KCAL/MOL
REMARK 923 INTER-LIGAND FREE ENERGY PREDICTED BY IDOCK:   -3.56 KCAL/MOL
REMARK 924 INTRA-LIGAND FREE ENERGY PREDICTED BY IDOCK:   -0.31 KCAL/MOL
REMARK 927      BINDING AFFINITY PREDICTED BY RF-SCORE:    0.00 PKD
ROOT
HETATM    1  C   UNL     1      -9.573   9.856  69.832  1.00  0.00    -0.265 C  
HETATM    2  C   UNL     1     -10.587   8.956  70.548  1.00  0.00    -0.220 C  
ENDROOT
BRANCH   2   3
HETATM    3  O   UNL     1     -11.344   9.732  71.507  1.00  0.00    -0.367 OA 
BRANCH   3   4
HETATM    4  C   UNL     1     -12.442  10.395  71.082  1.00  0.00    -0.404 C  
HETATM    5  H2  UNL     1     -13.422   8.531  71.092  1.00  0.00     0.000 HD 
HETATM    6  O   UNL     1     -12.530  11.599  70.927  1.00  0.00    -0.376 OA 
HETATM    7  N   UNL     1     -13.467   9.535  70.919  1.00  0.00    -0.592 N  
HETATM    8  H1  UNL     1     -14.296  10.035  70.599  1.00  0.00     0.000 HD 
ENDBRANCH   3   4
ENDBRANCH   2   3
BRANCH   2   9
HETATM    9  C   UNL     1      -9.906   7.693  71.130  1.00  0.00    -0.173 C  
BRANCH   9  10
HETATM   10  N   UNL     1     -10.711   6.365  71.007  1.00  0.00    -0.240 N  
HETATM   11  C   UNL     1     -11.382   6.373  69.629  1.00  0.00    -0.412 C  
HETATM   12  C   UNL     1     -11.792   6.265  72.074  1.00  0.00    -0.318 C  
HETATM   13  C   UNL     1      -9.820   5.133  71.072  1.00  0.00    -0.196 C  
ENDBRANCH   9  10
ENDBRANCH   2   9
TORSDOF 4
ENDMDL
MODEL       75
REMARK 921   NORMALIZED FREE ENERGY PREDICTED BY IDOCK:   -2.83 KCAL/MOL
REMARK 922        TOTAL FREE ENERGY PREDICTED BY IDOCK:   -3.87 KCAL/MOL
REMARK 923 INTER-LIGAND FREE ENERGY PREDICTED BY IDOCK:   -3.63 KCAL/MOL
REMARK 924 INTRA-LIGAND FREE ENERGY PREDICTED BY IDOCK:   -0.24 KCAL/MOL
REMARK 927      BINDING AFFINITY PREDICTED BY RF-SCORE:    0.00 PKD
ROOT
HETATM    1  C   UNL     1     -12.272  14.324  68.782  1.00  0.00    -0.226 C  
HETATM    2  C   UNL     1     -11.255  14.318  67.634  1.00  0.00    -0.304 C  
ENDROOT
BRANCH   2   3
HETATM    3  O   UNL     1     -10.701  12.991  67.474  1.00  0.00    -0.234 OA 
BRANCH   3   4
HETATM    4  C   UNL     1     -11.451  12.046  66.865  1.00  0.00    -0.337 C  
HETATM    5  H2  UNL     1     -10.640  10.682  68.249  1.00  0.00     0.000 HD 
HETATM    6  O   UNL     1     -12.239  12.240  65.956  1.00  0.00    -0.646 OA 
HETATM    7  N   UNL     1     -11.260  10.850  67.456  1.00  0.00    -0.315 N  
HETATM    8  H1  UNL     1     -11.825  10.137  66.997  1.00  0.00     0.000 HD 
ENDBRANCH   3   4
ENDBRANCH   2   3
BRANCH   2   9
HETATM    9  C   UNL     1     -10.204  15.442  67.809  1.00  0.00    -0.241 C  
BRANCH   9  10
HETATM   10  N   UNL     1     -10.003  16.384  66.584  1.00  0.00    -0.260 N  
HETATM   11  C   UNL     1      -8.496  16.449  66.310  1.00  0.00    -0.337 C  
HETATM   12  C   UNL     1     -10.506  17.791  66.873  1.00  0.00    -0.307 C  
HETATM   13  C   UNL     1     -10.672  15.856  65.323  1.00  0.00    -0.424 C  
ENDBRANCH   9  10
ENDBRANCH   2   9
TORSDOF 4
ENDMDL
MODEL       76
REMARK 921   NORMALIZED FREE ENERGY PREDICTED BY IDOCK:   -2.83 KCAL/MOL
REMARK 922        TOTAL FREE ENERGY PREDICTED BY IDOCK:   -3.87 KCAL/MOL
REMARK 923 INTER-LIGAND FREE ENERGY PREDICTED BY IDOCK:   -3.53 KCAL/MOL
REMARK 924 INTRA-LIGAND FREE ENERGY PREDICTED BY IDOCK:   -0.34 KCAL/MOL
REMARK 927      BINDING AFFINITY PREDICTED BY RF-SCORE:    0.00 PKD
ROOT
HETATM    1  C   UNL     1     -10.443   9.883  66.995  1.00  0.00    -0.296 C  
HETATM    2  C   UNL     1     -10.449  10.883  65.833  1.00  0.00    -0.221 C  
ENDROOT
BRANCH   2   3
HETATM    3  O   UNL     1      -9.122  10.984  65.264  1.00  0.00    -0.202 OA 
BRANCH   3   4
HETATM    4  C   UNL     1      -8.882  10.391  64.074  1.00  0.00    -0.212 C  
HETATM    5  H2  UNL     1      -8.868  12.328  63.248  1.00  0.00     0.000 HD 
HETATM    6  O   UNL     1      -8.715   9.198  63.894  1.00  0.00    -0.197 OA 
HETATM    7  N   UNL     1      -8.779  11.322  63.104  1.00  0.00    -0.466 N  
HETATM    8  H1  UNL     1      -8.598  10.875  62.206  1.00  0.00     0.000 HD 
ENDBRANCH   3   4
ENDBRANCH   2   3
BRANCH   2   9
HETATM    9  C   UNL     1     -11.076  12.234  66.258  1.00  0.00    -0.302 C  
BRANCH   9  10
HETATM   10  N   UNL     1     -11.729  13.072  65.117  1.00  0.00    -0.327 N  
HETATM   11  C   UNL     1     -10.655  14.034  64.596  1.00  0.00    -0.395 C  
HETATM   12  C   UNL     1     -12.907  13.888  65.628  1.00  0.00    -0.424 C  
HETATM   13  C   UNL     1     -12.179  12.212  63.945  1.00  0.00    -0.489 C  
ENDBRANCH   9  10
ENDBRANCH   2   9
TORSDOF 4
ENDMDL
MODEL       77
REMARK 921   NORMALIZED FREE ENERGY PREDICTED BY IDOCK:   -2.81 KCAL/MOL
REMARK 922        TOTAL FREE ENERGY PREDICTED BY IDOCK:   -3.85 KCAL/MOL
REMARK 923 INTER-LIGAND FREE ENERGY PREDICTED BY IDOCK:   -3.62 KCAL/MOL
REMARK 924 INTRA-LIGAND FREE ENERGY PREDICTED BY IDOCK:   -0.23 KCAL/MOL
REMARK 927      BINDING AFFINITY PREDICTED BY RF-SCORE:    0.00 PKD
ROOT
HETATM    1  C   UNL     1     -11.994  11.262  70.348  1.00  0.00    -0.471 C  
HETATM    2  C   UNL     1     -11.429   9.849  70.528  1.00  0.00    -0.318 C  
ENDROOT
BRANCH   2   3
HETATM    3  O   UNL     1     -11.783   9.339  71.835  1.00  0.00    -0.370 OA 
BRANCH   3   4
HETATM    4  C   UNL     1     -12.820   8.479  71.935  1.00  0.00    -0.363 C  
HETATM    5  H2  UNL     1     -13.706   9.888  73.225  1.00  0.00     0.000 HD 
HETATM    6  O   UNL     1     -12.933   7.427  71.332  1.00  0.00    -0.360 OA 
HETATM    7  N   UNL     1     -13.765   8.986  72.752  1.00  0.00    -0.876 N  
HETATM    8  H1  UNL     1     -14.549   8.338  72.827  1.00  0.00     0.000 HD 
ENDBRANCH   3   4
ENDBRANCH   2   3
BRANCH   2   9
HETATM    9  C   UNL     1      -9.914   9.803  70.203  1.00  0.00    -0.263 C  
BRANCH   9  10
HETATM   10  N   UNL     1      -9.538   9.330  68.767  1.00  0.00    -0.153 N  
HETATM   11  C   UNL     1      -8.181   8.624  68.868  1.00  0.00    -0.123 C  
HETATM   12  C   UNL     1      -9.406  10.505  67.808  1.00  0.00    -0.149 C  
HETATM   13  C   UNL     1     -10.533   8.326  68.203  1.00  0.00    -0.171 C  
ENDBRANCH   9  10
ENDBRANCH   2   9
TORSDOF 4
ENDMDL
MODEL       78
REMARK 921   NORMALIZED FREE ENERGY PREDICTED BY IDOCK:   -2.80 KCAL/MOL
REMARK 922        TOTAL FREE ENERGY PREDICTED BY IDOCK:   -3.83 KCAL/MOL
REMARK 923 INTER-LIGAND FREE ENERGY PREDICTED BY IDOCK:   -3.51 KCAL/MOL
REMARK 924 INTRA-LIGAND FREE ENERGY PREDICTED BY IDOCK:   -0.32 KCAL/MOL
REMARK 927      BINDING AFFINITY PREDICTED BY RF-SCORE:    0.00 PKD
ROOT
HETATM    1  C   UNL     1     -11.256   6.329  69.464  1.00  0.00    -0.500 C  
HETATM    2  C   UNL     1     -11.406   6.816  70.909  1.00  0.00    -0.315 C  
ENDROOT
BRANCH   2   3
HETATM    3  O   UNL     1     -11.931   8.165  70.923  1.00  0.00    -0.275 OA 
BRANCH   3   4
HETATM    4  C   UNL     1     -13.019   8.428  71.680  1.00  0.00    -0.334 C  
HETATM    5  H2  UNL     1     -14.161   7.634  70.099  1.00  0.00     0.000 HD 
HETATM    6  O   UNL     1     -13.006   8.875  72.812  1.00  0.00    -0.359 OA 
HETATM    7  N   UNL     1     -14.138   8.054  71.028  1.00  0.00    -0.632 N  
HETATM    8  H1  UNL     1     -14.959   8.252  71.599  1.00  0.00     0.000 HD 
ENDBRANCH   3   4
ENDBRANCH   2   3
BRANCH   2   9
HETATM    9  C   UNL     1     -10.091   6.626  71.706  1.00  0.00    -0.183 C  
BRANCH   9  10
HETATM   10  N   UNL     1     -10.200   5.784  73.012  1.00  0.00    -0.180 N  
HETATM   11  C   UNL     1     -10.201   6.771  74.184  1.00  0.00    -0.339 C  
HETATM   12  C   UNL     1      -9.016   4.841  73.170  1.00  0.00    -0.114 C  
HETATM   13  C   UNL     1     -11.495   4.987  73.087  1.00  0.00    -0.282 C  
ENDBRANCH   9  10
ENDBRANCH   2   9
TORSDOF 4
ENDMDL
MODEL       79
REMARK 921   NORMALIZED FREE ENERGY PREDICTED BY IDOCK:   -2.79 KCAL/MOL
REMARK 922        TOTAL FREE ENERGY PREDICTED BY IDOCK:   -3.82 KCAL/MOL
REMARK 923 INTER-LIGAND FREE ENERGY PREDICTED BY IDOCK:   -3.63 KCAL/MOL
REMARK 924 INTRA-LIGAND FREE ENERGY PREDICTED BY IDOCK:   -0.19 KCAL/MOL
REMARK 927      BINDING AFFINITY PREDICTED BY RF-SCORE:    0.00 PKD
ROOT
HETATM    1  C   UNL     1     -10.982  15.770  64.846  1.00  0.00    -0.443 C  
HETATM    2  C   UNL     1     -10.949  15.341  66.317  1.00  0.00    -0.300 C  
ENDROOT
BRANCH   2   3
HETATM    3  O   UNL     1     -12.045  14.437  66.591  1.00  0.00    -0.419 OA 
BRANCH   3   4
HETATM    4  C   UNL     1     -11.881  13.122  66.326  1.00  0.00    -0.401 C  
HETATM    5  H2  UNL     1     -10.453  13.112  67.873  1.00  0.00     0.000 HD 
HETATM    6  O   UNL     1     -12.513  12.476  65.510  1.00  0.00    -0.646 OA 
HETATM    7  N   UNL     1     -10.956  12.595  67.152  1.00  0.00    -0.253 N  
HETATM    8  H1  UNL     1     -10.832  11.602  66.953  1.00  0.00     0.000 HD 
ENDBRANCH   3   4
ENDBRANCH   2   3
BRANCH   2   9
HETATM    9  C   UNL     1     -10.871  16.568  67.259  1.00  0.00    -0.173 C  
BRANCH   9  10
HETATM   10  N   UNL     1      -9.529  16.754  68.028  1.00  0.00    -0.230 N  
HETATM   11  C   UNL     1      -9.577  18.137  68.688  1.00  0.00    -0.331 C  
HETATM   12  C   UNL     1      -8.334  16.705  67.087  1.00  0.00    -0.177 C  
HETATM   13  C   UNL     1      -9.343  15.727  69.136  1.00  0.00    -0.258 C  
ENDBRANCH   9  10
ENDBRANCH   2   9
TORSDOF 4
ENDMDL
MODEL       80
REMARK 921   NORMALIZED FREE ENERGY PREDICTED BY IDOCK:   -2.79 KCAL/MOL
REMARK 922        TOTAL FREE ENERGY PREDICTED BY IDOCK:   -3.82 KCAL/MOL
REMARK 923 INTER-LIGAND FREE ENERGY PREDICTED BY IDOCK:   -3.95 KCAL/MOL
REMARK 924 INTRA-LIGAND FREE ENERGY PREDICTED BY IDOCK:    0.13 KCAL/MOL
REMARK 927      BINDING AFFINITY PREDICTED BY RF-SCORE:    0.00 PKD
ROOT
HETATM    1  C   UNL     1     -12.839  11.733  71.540  1.00  0.00    -0.450 C  
HETATM    2  C   UNL     1     -12.610  10.650  70.481  1.00  0.00    -0.348 C  
ENDROOT
BRANCH   2   3
HETATM    3  O   UNL     1     -13.081   9.373  70.972  1.00  0.00    -0.265 OA 
BRANCH   3   4
HETATM    4  C   UNL     1     -12.679   8.962  72.195  1.00  0.00    -0.405 C  
HETATM    5  H2  UNL     1     -14.702   9.081  72.767  1.00  0.00     0.000 HD 
HETATM    6  O   UNL     1     -11.543   8.651  72.503  1.00  0.00    -0.356 OA 
HETATM    7  N   UNL     1     -13.738   8.871  73.024  1.00  0.00    -0.894 N  
HETATM    8  H1  UNL     1     -13.435   8.560  73.947  1.00  0.00     0.000 HD 
ENDBRANCH   3   4
ENDBRANCH   2   3
BRANCH   2   9
HETATM    9  C   UNL     1     -11.143  10.651  69.983  1.00  0.00    -0.289 C  
BRANCH   9  10
HETATM   10  N   UNL     1     -10.905  11.247  68.563  1.00  0.00    -0.190 N  
HETATM   11  C   UNL     1      -9.436  11.679  68.498  1.00  0.00    -0.173 C  
HETATM   12  C   UNL     1     -11.783  12.464  68.313  1.00  0.00    -0.345 C  
HETATM   13  C   UNL     1     -11.129  10.226  67.456  1.00  0.00    -0.232 C  
ENDBRANCH   9  10
ENDBRANCH   2   9
TORSDOF 4
ENDMDL
MODEL       81
REMARK 921   NORMALIZED FREE ENERGY PREDICTED BY IDOCK:   -2.79 KCAL/MOL
REMARK 922        TOTAL FREE ENERGY PREDICTED BY IDOCK:   -3.82 KCAL/MOL
REMARK 923 INTER-LIGAND FREE ENERGY PREDICTED BY IDOCK:   -3.47 KCAL/MOL
REMARK 924 INTRA-LIGAND FREE ENERGY PREDICTED BY IDOCK:   -0.35 KCAL/MOL
REMARK 927      BINDING AFFINITY PREDICTED BY RF-SCORE:    0.00 PKD
ROOT
HETATM    1  C   UNL     1     -11.311  11.803  63.587  1.00  0.00    -0.525 C  
HETATM    2  C   UNL     1     -10.809  11.617  65.024  1.00  0.00    -0.288 C  
ENDROOT
BRANCH   2   3
HETATM    3  O   UNL     1     -10.938  12.859  65.756  1.00  0.00    -0.274 OA 
BRANCH   3   4
HETATM    4  C   UNL     1     -11.787  12.906  66.806  1.00  0.00    -0.385 C  
HETATM    5  H2  UNL     1     -12.105  14.926  66.303  1.00  0.00     0.000 HD 
HETATM    6  O   UNL     1     -12.094  11.965  67.515  1.00  0.00    -0.573 OA 
HETATM    7  N   UNL     1     -12.315  14.141  66.919  1.00  0.00    -0.565 N  
HETATM    8  H1  UNL     1     -12.956  14.177  67.712  1.00  0.00     0.000 HD 
ENDBRANCH   3   4
ENDBRANCH   2   3
BRANCH   2   9
HETATM    9  C   UNL     1      -9.390  10.996  65.047  1.00  0.00    -0.221 C  
BRANCH   9  10
HETATM   10  N   UNL     1      -9.068  10.076  66.263  1.00  0.00    -0.147 N  
HETATM   11  C   UNL     1      -7.882   9.195  65.858  1.00  0.00    -0.105 C  
HETATM   12  C   UNL     1     -10.246   9.177  66.611  1.00  0.00    -0.258 C  
HETATM   13  C   UNL     1      -8.650  10.863  67.497  1.00  0.00    -0.127 C  
ENDBRANCH   9  10
ENDBRANCH   2   9
TORSDOF 4
ENDMDL
MODEL       82
REMARK 921   NORMALIZED FREE ENERGY PREDICTED BY IDOCK:   -2.79 KCAL/MOL
REMARK 922        TOTAL FREE ENERGY PREDICTED BY IDOCK:   -3.81 KCAL/MOL
REMARK 923 INTER-LIGAND FREE ENERGY PREDICTED BY IDOCK:   -3.42 KCAL/MOL
REMARK 924 INTRA-LIGAND FREE ENERGY PREDICTED BY IDOCK:   -0.39 KCAL/MOL
REMARK 927      BINDING AFFINITY PREDICTED BY RF-SCORE:    0.00 PKD
ROOT
HETATM    1  C   UNL     1     -10.464   5.489  70.444  1.00  0.00    -0.356 C  
HETATM    2  C   UNL     1     -11.053   6.880  70.706  1.00  0.00    -0.275 C  
ENDROOT
BRANCH   2   3
HETATM    3  O   UNL     1     -12.418   6.757  71.171  1.00  0.00    -0.367 OA 
BRANCH   3   4
HETATM    4  C   UNL     1     -13.042   7.858  71.643  1.00  0.00    -0.332 C  
HETATM    5  H2  UNL     1     -14.695   7.274  70.478  1.00  0.00     0.000 HD 
HETATM    6  O   UNL     1     -12.589   8.636  72.464  1.00  0.00    -0.392 OA 
HETATM    7  N   UNL     1     -14.285   7.943  71.129  1.00  0.00    -0.664 N  
HETATM    8  H1  UNL     1     -14.756   8.774  71.485  1.00  0.00     0.000 HD 
ENDBRANCH   3   4
ENDBRANCH   2   3
BRANCH   2   9
HETATM    9  C   UNL     1     -10.867   7.810  69.481  1.00  0.00    -0.153 C  
BRANCH   9  10
HETATM   10  N   UNL     1     -10.107   9.144  69.747  1.00  0.00    -0.191 N  
HETATM   11  C   UNL     1      -9.114   9.332  68.594  1.00  0.00    -0.132 C  
HETATM   12  C   UNL     1      -9.332   9.095  71.055  1.00  0.00    -0.263 C  
HETATM   13  C   UNL     1     -11.033  10.353  69.752  1.00  0.00    -0.293 C  
ENDBRANCH   9  10
ENDBRANCH   2   9
TORSDOF 4
ENDMDL
MODEL       83
REMARK 921   NORMALIZED FREE ENERGY PREDICTED BY IDOCK:   -2.76 KCAL/MOL
REMARK 922        TOTAL FREE ENERGY PREDICTED BY IDOCK:   -3.78 KCAL/MOL
REMARK 923 INTER-LIGAND FREE ENERGY PREDICTED BY IDOCK:   -3.47 KCAL/MOL
REMARK 924 INTRA-LIGAND FREE ENERGY PREDICTED BY IDOCK:   -0.31 KCAL/MOL
REMARK 927      BINDING AFFINITY PREDICTED BY RF-SCORE:    0.00 PKD
ROOT
HETATM    1  C   UNL     1     -11.285  15.778  70.517  1.00  0.00    -0.392 C  
HETATM    2  C   UNL     1     -10.832  15.807  69.052  1.00  0.00    -0.248 C  
ENDROOT
BRANCH   2   3
HETATM    3  O   UNL     1     -11.017  14.503  68.453  1.00  0.00    -0.232 OA 
BRANCH   3   4
HETATM    4  C   UNL     1     -11.189  14.425  67.115  1.00  0.00    -0.328 C  
HETATM    5  H2  UNL     1     -13.259  14.491  67.499  1.00  0.00     0.000 HD 
HETATM    6  O   UNL     1     -10.300  14.415  66.283  1.00  0.00    -0.281 OA 
HETATM    7  N   UNL     1     -12.504  14.433  66.816  1.00  0.00    -0.516 N  
HETATM    8  H1  UNL     1     -12.634  14.374  65.806  1.00  0.00     0.000 HD 
ENDBRANCH   3   4
ENDBRANCH   2   3
BRANCH   2   9
HETATM    9  C   UNL     1      -9.400  16.384  68.918  1.00  0.00    -0.249 C  
BRANCH   9  10
HETATM   10  N   UNL     1      -9.240  17.593  67.948  1.00  0.00    -0.262 N  
HETATM   11  C   UNL     1      -8.460  18.675  68.703  1.00  0.00    -0.306 C  
HETATM   12  C   UNL     1     -10.590  18.163  67.537  1.00  0.00    -0.401 C  
HETATM   13  C   UNL     1      -8.440  17.240  66.702  1.00  0.00    -0.260 C  
ENDBRANCH   9  10
ENDBRANCH   2   9
TORSDOF 4
ENDMDL
MODEL       84
REMARK 921   NORMALIZED FREE ENERGY PREDICTED BY IDOCK:   -2.75 KCAL/MOL
REMARK 922        TOTAL FREE ENERGY PREDICTED BY IDOCK:   -3.77 KCAL/MOL
REMARK 923 INTER-LIGAND FREE ENERGY PREDICTED BY IDOCK:   -3.53 KCAL/MOL
REMARK 924 INTRA-LIGAND FREE ENERGY PREDICTED BY IDOCK:   -0.24 KCAL/MOL
REMARK 927      BINDING AFFINITY PREDICTED BY RF-SCORE:    0.00 PKD
ROOT
HETATM    1  C   UNL     1     -10.431  18.468  66.118  1.00  0.00    -0.447 C  
HETATM    2  C   UNL     1     -10.478  17.191  66.964  1.00  0.00    -0.282 C  
ENDROOT
BRANCH   2   3
HETATM    3  O   UNL     1      -9.898  17.441  68.266  1.00  0.00    -0.280 OA 
BRANCH   3   4
HETATM    4  C   UNL     1     -10.043  16.506  69.230  1.00  0.00    -0.270 C  
HETATM    5  H2  UNL     1     -11.972  17.292  69.535  1.00  0.00     0.000 HD 
HETATM    6  O   UNL     1      -9.229  15.645  69.515  1.00  0.00    -0.272 OA 
HETATM    7  N   UNL     1     -11.262  16.608  69.796  1.00  0.00    -0.367 N  
HETATM    8  H1  UNL     1     -11.372  15.902  70.523  1.00  0.00     0.000 HD 
ENDBRANCH   3   4
ENDBRANCH   2   3
BRANCH   2   9
HETATM    9  C   UNL     1      -9.866  15.989  66.203  1.00  0.00    -0.325 C  
BRANCH   9  10
HETATM   10  N   UNL     1     -10.873  14.903  65.718  1.00  0.00    -0.326 N  
HETATM   11  C   UNL     1     -10.047  13.698  65.256  1.00  0.00    -0.275 C  
HETATM   12  C   UNL     1     -11.708  15.400  64.546  1.00  0.00    -0.277 C  
HETATM   13  C   UNL     1     -11.796  14.424  66.830  1.00  0.00    -0.410 C  
ENDBRANCH   9  10
ENDBRANCH   2   9
TORSDOF 4
ENDMDL
MODEL       85
REMARK 921   NORMALIZED FREE ENERGY PREDICTED BY IDOCK:   -2.75 KCAL/MOL
REMARK 922        TOTAL FREE ENERGY PREDICTED BY IDOCK:   -3.76 KCAL/MOL
REMARK 923 INTER-LIGAND FREE ENERGY PREDICTED BY IDOCK:   -3.43 KCAL/MOL
REMARK 924 INTRA-LIGAND FREE ENERGY PREDICTED BY IDOCK:   -0.34 KCAL/MOL
REMARK 927      BINDING AFFINITY PREDICTED BY RF-SCORE:    0.00 PKD
ROOT
HETATM    1  C   UNL     1      -8.051   9.232  69.593  1.00  0.00    -0.116 C  
HETATM    2  C   UNL     1      -9.566   9.344  69.796  1.00  0.00    -0.201 C  
ENDROOT
BRANCH   2   3
HETATM    3  O   UNL     1     -10.048  10.587  69.231  1.00  0.00    -0.213 OA 
BRANCH   3   4
HETATM    4  C   UNL     1     -11.046  10.540  68.321  1.00  0.00    -0.284 C  
HETATM    5  H2  UNL     1     -10.269   8.670  67.744  1.00  0.00     0.000 HD 
HETATM    6  O   UNL     1     -11.928  11.369  68.189  1.00  0.00    -0.594 OA 
HETATM    7  N   UNL     1     -10.973   9.396  67.613  1.00  0.00    -0.475 N  
HETATM    8  H1  UNL     1     -11.726   9.360  66.926  1.00  0.00     0.000 HD 
ENDBRANCH   3   4
ENDBRANCH   2   3
BRANCH   2   9
HETATM    9  C   UNL     1      -9.954   9.113  71.278  1.00  0.00    -0.303 C  
BRANCH   9  10
HETATM   10  N   UNL     1     -11.173   8.174  71.526  1.00  0.00    -0.251 N  
HETATM   11  C   UNL     1     -12.434   9.038  71.418  1.00  0.00    -0.317 C  
HETATM   12  C   UNL     1     -11.125   7.552  72.914  1.00  0.00    -0.375 C  
HETATM   13  C   UNL     1     -11.284   7.073  70.481  1.00  0.00    -0.295 C  
ENDBRANCH   9  10
ENDBRANCH   2   9
TORSDOF 4
ENDMDL
MODEL       86
REMARK 921   NORMALIZED FREE ENERGY PREDICTED BY IDOCK:   -2.74 KCAL/MOL
REMARK 922        TOTAL FREE ENERGY PREDICTED BY IDOCK:   -3.75 KCAL/MOL
REMARK 923 INTER-LIGAND FREE ENERGY PREDICTED BY IDOCK:   -3.49 KCAL/MOL
REMARK 924 INTRA-LIGAND FREE ENERGY PREDICTED BY IDOCK:   -0.26 KCAL/MOL
REMARK 927      BINDING AFFINITY PREDICTED BY RF-SCORE:    0.00 PKD
ROOT
HETATM    1  C   UNL     1     -10.924   7.689  73.056  1.00  0.00    -0.457 C  
HETATM    2  C   UNL     1     -11.251   8.414  71.746  1.00  0.00    -0.293 C  
ENDROOT
BRANCH   2   3
HETATM    3  O   UNL     1     -12.639   8.826  71.743  1.00  0.00    -0.317 OA 
BRANCH   3   4
HETATM    4  C   UNL     1     -12.934  10.100  71.402  1.00  0.00    -0.429 C  
HETATM    5  H2  UNL     1     -12.787   9.470  69.399  1.00  0.00     0.000 HD 
HETATM    6  O   UNL     1     -13.204  11.000  72.177  1.00  0.00    -0.481 OA 
HETATM    7  N   UNL     1     -12.963  10.225  70.060  1.00  0.00    -0.521 N  
HETATM    8  H1  UNL     1     -13.186  11.186  69.802  1.00  0.00     0.000 HD 
ENDBRANCH   3   4
ENDBRANCH   2   3
BRANCH   2   9
HETATM    9  C   UNL     1     -10.824   7.573  70.517  1.00  0.00    -0.240 C  
BRANCH   9  10
HETATM   10  N   UNL     1      -9.697   8.184  69.630  1.00  0.00    -0.169 N  
HETATM   11  C   UNL     1     -10.271   8.336  68.217  1.00  0.00    -0.208 C  
HETATM   12  C   UNL     1      -8.480   7.273  69.567  1.00  0.00    -0.133 C  
HETATM   13  C   UNL     1      -9.270   9.568  70.100  1.00  0.00    -0.244 C  
ENDBRANCH   9  10
ENDBRANCH   2   9
TORSDOF 4
ENDMDL
MODEL       87
REMARK 921   NORMALIZED FREE ENERGY PREDICTED BY IDOCK:   -2.74 KCAL/MOL
REMARK 922        TOTAL FREE ENERGY PREDICTED BY IDOCK:   -3.75 KCAL/MOL
REMARK 923 INTER-LIGAND FREE ENERGY PREDICTED BY IDOCK:   -3.83 KCAL/MOL
REMARK 924 INTRA-LIGAND FREE ENERGY PREDICTED BY IDOCK:    0.08 KCAL/MOL
REMARK 927      BINDING AFFINITY PREDICTED BY RF-SCORE:    0.00 PKD
ROOT
HETATM    1  C   UNL     1      -8.560  14.123  67.019  1.00  0.00    -0.204 C  
HETATM    2  C   UNL     1      -9.792  15.012  66.818  1.00  0.00    -0.243 C  
ENDROOT
BRANCH   2   3
HETATM    3  O   UNL     1     -10.850  14.253  66.186  1.00  0.00    -0.301 OA 
BRANCH   3   4
HETATM    4  C   UNL     1     -10.800  14.064  64.849  1.00  0.00    -0.410 C  
HETATM    5  H2  UNL     1     -12.141  15.680  64.692  1.00  0.00     0.000 HD 
HETATM    6  O   UNL     1     -10.102  13.251  64.271  1.00  0.00    -0.338 OA 
HETATM    7  N   UNL     1     -11.588  14.962  64.224  1.00  0.00    -0.662 N  
HETATM    8  H1  UNL     1     -11.551  14.820  63.215  1.00  0.00     0.000 HD 
ENDBRANCH   3   4
ENDBRANCH   2   3
BRANCH   2   9
HETATM    9  C   UNL     1      -9.422  16.332  66.096  1.00  0.00    -0.339 C  
BRANCH   9  10
HETATM   10  N   UNL     1      -9.720  17.645  66.881  1.00  0.00    -0.280 N  
HETATM   11  C   UNL     1      -8.379  18.164  67.412  1.00  0.00    -0.239 C  
HETATM   12  C   UNL     1     -10.647  17.393  68.061  1.00  0.00    -0.389 C  
HETATM   13  C   UNL     1     -10.312  18.733  65.996  1.00  0.00    -0.422 C  
ENDBRANCH   9  10
ENDBRANCH   2   9
TORSDOF 4
ENDMDL
MODEL       88
REMARK 921   NORMALIZED FREE ENERGY PREDICTED BY IDOCK:   -2.74 KCAL/MOL
REMARK 922        TOTAL FREE ENERGY PREDICTED BY IDOCK:   -3.75 KCAL/MOL
REMARK 923 INTER-LIGAND FREE ENERGY PREDICTED BY IDOCK:   -3.49 KCAL/MOL
REMARK 924 INTRA-LIGAND FREE ENERGY PREDICTED BY IDOCK:   -0.26 KCAL/MOL
REMARK 927      BINDING AFFINITY PREDICTED BY RF-SCORE:    0.00 PKD
ROOT
HETATM    1  C   UNL     1     -11.327  10.525  69.204  1.00  0.00    -0.319 C  
HETATM    2  C   UNL     1     -11.459   9.419  70.257  1.00  0.00    -0.180 C  
ENDROOT
BRANCH   2   3
HETATM    3  O   UNL     1     -11.748  10.002  71.550  1.00  0.00    -0.365 OA 
BRANCH   3   4
HETATM    4  C   UNL     1     -13.038  10.142  71.923  1.00  0.00    -0.466 C  
HETATM    5  H2  UNL     1     -12.664  12.212  72.006  1.00  0.00     0.000 HD 
HETATM    6  O   UNL     1     -13.856   9.243  72.009  1.00  0.00    -0.403 OA 
HETATM    7  N   UNL     1     -13.325  11.444  72.122  1.00  0.00    -0.568 N  
HETATM    8  H1  UNL     1     -14.299  11.550  72.403  1.00  0.00     0.000 HD 
ENDBRANCH   3   4
ENDBRANCH   2   3
BRANCH   2   9
HETATM    9  C   UNL     1     -10.235   8.470  70.233  1.00  0.00    -0.193 C  
BRANCH   9  10
HETATM   10  N   UNL     1     -10.551   6.953  70.068  1.00  0.00    -0.217 N  
HETATM   11  C   UNL     1      -9.304   6.183  70.516  1.00  0.00    -0.161 C  
HETATM   12  C   UNL     1     -10.848   6.598  68.618  1.00  0.00    -0.262 C  
HETATM   13  C   UNL     1     -11.708   6.498  70.947  1.00  0.00    -0.356 C  
ENDBRANCH   9  10
ENDBRANCH   2   9
TORSDOF 4
ENDMDL
MODEL       89
REMARK 921   NORMALIZED FREE ENERGY PREDICTED BY IDOCK:   -2.74 KCAL/MOL
REMARK 922        TOTAL FREE ENERGY PREDICTED BY IDOCK:   -3.75 KCAL/MOL
REMARK 923 INTER-LIGAND FREE ENERGY PREDICTED BY IDOCK:   -3.69 KCAL/MOL
REMARK 924 INTRA-LIGAND FREE ENERGY PREDICTED BY IDOCK:   -0.06 KCAL/MOL
REMARK 927      BINDING AFFINITY PREDICTED BY RF-SCORE:    0.00 PKD
ROOT
HETATM    1  C   UNL     1     -10.390   9.972  67.019  1.00  0.00    -0.305 C  
HETATM    2  C   UNL     1     -10.568  11.332  67.703  1.00  0.00    -0.213 C  
ENDROOT
BRANCH   2   3
HETATM    3  O   UNL     1     -10.630  11.157  69.138  1.00  0.00    -0.213 OA 
BRANCH   3   4
HETATM    4  C   UNL     1     -11.806  11.377  69.767  1.00  0.00    -0.364 C  
HETATM    5  H2  UNL     1     -12.251   9.355  69.385  1.00  0.00     0.000 HD 
HETATM    6  O   UNL     1     -12.142  12.419  70.302  1.00  0.00    -0.348 OA 
HETATM    7  N   UNL     1     -12.541  10.247  69.786  1.00  0.00    -0.539 N  
HETATM    8  H1  UNL     1     -13.428  10.413  70.260  1.00  0.00     0.000 HD 
ENDBRANCH   3   4
ENDBRANCH   2   3
BRANCH   2   9
HETATM    9  C   UNL     1     -11.757  12.116  67.094  1.00  0.00    -0.302 C  
BRANCH   9  10
HETATM   10  N   UNL     1     -11.399  13.460  66.390  1.00  0.00    -0.305 N  
HETATM   11  C   UNL     1     -10.968  14.441  67.486  1.00  0.00    -0.293 C  
HETATM   12  C   UNL     1     -12.598  14.044  65.657  1.00  0.00    -0.512 C  
HETATM   13  C   UNL     1     -10.233  13.319  65.421  1.00  0.00    -0.293 C  
ENDBRANCH   9  10
ENDBRANCH   2   9
TORSDOF 4
ENDMDL
MODEL       90
REMARK 921   NORMALIZED FREE ENERGY PREDICTED BY IDOCK:   -2.73 KCAL/MOL
REMARK 922        TOTAL FREE ENERGY PREDICTED BY IDOCK:   -3.74 KCAL/MOL
REMARK 923 INTER-LIGAND FREE ENERGY PREDICTED BY IDOCK:   -3.39 KCAL/MOL
REMARK 924 INTRA-LIGAND FREE ENERGY PREDICTED BY IDOCK:   -0.35 KCAL/MOL
REMARK 927      BINDING AFFINITY PREDICTED BY RF-SCORE:    0.00 PKD
ROOT
HETATM    1  C   UNL     1     -11.032   6.292  68.417  1.00  0.00    -0.409 C  
HETATM    2  C   UNL     1     -10.984   7.245  69.616  1.00  0.00    -0.186 C  
ENDROOT
BRANCH   2   3
HETATM    3  O   UNL     1     -10.305   8.468  69.247  1.00  0.00    -0.214 OA 
BRANCH   3   4
HETATM    4  C   UNL     1     -10.905   9.649  69.516  1.00  0.00    -0.231 C  
HETATM    5  H2  UNL     1     -11.581   9.623  67.522  1.00  0.00     0.000 HD 
HETATM    6  O   UNL     1     -10.927  10.205  70.599  1.00  0.00    -0.308 OA 
HETATM    7  N   UNL     1     -11.550  10.101  68.422  1.00  0.00    -0.514 N  
HETATM    8  H1  UNL     1     -12.003  10.992  68.625  1.00  0.00     0.000 HD 
ENDBRANCH   3   4
ENDBRANCH   2   3
BRANCH   2   9
HETATM    9  C   UNL     1     -10.412   6.541  70.872  1.00  0.00    -0.223 C  
BRANCH   9  10
HETATM   10  N   UNL     1     -11.311   6.579  72.144  1.00  0.00    -0.268 N  
HETATM   11  C   UNL     1     -12.728   6.937  71.682  1.00  0.00    -0.352 C  
HETATM   12  C   UNL     1     -10.838   7.637  73.131  1.00  0.00    -0.382 C  
HETATM   13  C   UNL     1     -11.388   5.231  72.846  1.00  0.00    -0.301 C  
ENDBRANCH   9  10
ENDBRANCH   2   9
TORSDOF 4
ENDMDL
MODEL       91
REMARK 921   NORMALIZED FREE ENERGY PREDICTED BY IDOCK:   -2.73 KCAL/MOL
REMARK 922        TOTAL FREE ENERGY PREDICTED BY IDOCK:   -3.74 KCAL/MOL
REMARK 923 INTER-LIGAND FREE ENERGY PREDICTED BY IDOCK:   -3.39 KCAL/MOL
REMARK 924 INTRA-LIGAND FREE ENERGY PREDICTED BY IDOCK:   -0.34 KCAL/MOL
REMARK 927      BINDING AFFINITY PREDICTED BY RF-SCORE:    0.00 PKD
ROOT
HETATM    1  C   UNL     1     -12.573  14.208  64.885  1.00  0.00    -0.362 C  
HETATM    2  C   UNL     1     -11.655  13.322  65.735  1.00  0.00    -0.337 C  
ENDROOT
BRANCH   2   3
HETATM    3  O   UNL     1     -11.488  12.032  65.099  1.00  0.00    -0.324 OA 
BRANCH   3   4
HETATM    4  C   UNL     1     -10.391  11.823  64.339  1.00  0.00    -0.307 C  
HETATM    5  H2  UNL     1      -9.312  11.705  66.143  1.00  0.00     0.000 HD 
HETATM    6  O   UNL     1     -10.375  11.719  63.126  1.00  0.00    -0.386 OA 
HETATM    7  N   UNL     1      -9.306  11.669  65.124  1.00  0.00    -0.397 N  
HETATM    8  H1  UNL     1      -8.478  11.510  64.551  1.00  0.00     0.000 HD 
ENDBRANCH   3   4
ENDBRANCH   2   3
BRANCH   2   9
HETATM    9  C   UNL     1     -12.137  13.261  67.206  1.00  0.00    -0.289 C  
BRANCH   9  10
HETATM   10  N   UNL     1     -11.022  13.335  68.292  1.00  0.00    -0.246 N  
HETATM   11  C   UNL     1      -9.844  14.097  67.675  1.00  0.00    -0.229 C  
HETATM   12  C   UNL     1     -10.545  11.948  68.699  1.00  0.00    -0.234 C  
HETATM   13  C   UNL     1     -11.462  14.103  69.531  1.00  0.00    -0.281 C  
ENDBRANCH   9  10
ENDBRANCH   2   9
TORSDOF 4
ENDMDL
MODEL       92
REMARK 921   NORMALIZED FREE ENERGY PREDICTED BY IDOCK:   -2.72 KCAL/MOL
REMARK 922        TOTAL FREE ENERGY PREDICTED BY IDOCK:   -3.72 KCAL/MOL
REMARK 923 INTER-LIGAND FREE ENERGY PREDICTED BY IDOCK:   -3.43 KCAL/MOL
REMARK 924 INTRA-LIGAND FREE ENERGY PREDICTED BY IDOCK:   -0.29 KCAL/MOL
REMARK 927      BINDING AFFINITY PREDICTED BY RF-SCORE:    0.00 PKD
ROOT
HETATM    1  C   UNL     1     -13.520   9.301  71.902  1.00  0.00    -0.497 C  
HETATM    2  C   UNL     1     -12.098   8.784  71.652  1.00  0.00    -0.337 C  
ENDROOT
BRANCH   2   3
HETATM    3  O   UNL     1     -11.562   8.208  72.866  1.00  0.00    -0.386 OA 
BRANCH   3   4
HETATM    4  C   UNL     1     -10.950   7.006  72.796  1.00  0.00    -0.294 C  
HETATM    5  H2  UNL     1     -12.874   6.172  72.610  1.00  0.00     0.000 HD 
HETATM    6  O   UNL     1      -9.746   6.820  72.791  1.00  0.00    -0.152 OA 
HETATM    7  N   UNL     1     -11.865   6.027  72.657  1.00  0.00    -0.520 N  
HETATM    8  H1  UNL     1     -11.404   5.119  72.604  1.00  0.00     0.000 HD 
ENDBRANCH   3   4
ENDBRANCH   2   3
BRANCH   2   9
HETATM    9  C   UNL     1     -11.209   9.876  71.005  1.00  0.00    -0.364 C  
BRANCH   9  10
HETATM   10  N   UNL     1     -10.375   9.431  69.766  1.00  0.00    -0.209 N  
HETATM   11  C   UNL     1     -10.799  10.326  68.596  1.00  0.00    -0.234 C  
HETATM   12  C   UNL     1     -10.654   7.981  69.396  1.00  0.00    -0.205 C  
HETATM   13  C   UNL     1      -8.879   9.624  69.969  1.00  0.00    -0.232 C  
ENDBRANCH   9  10
ENDBRANCH   2   9
TORSDOF 4
ENDMDL
MODEL       93
REMARK 921   NORMALIZED FREE ENERGY PREDICTED BY IDOCK:   -2.71 KCAL/MOL
REMARK 922        TOTAL FREE ENERGY PREDICTED BY IDOCK:   -3.72 KCAL/MOL
REMARK 923 INTER-LIGAND FREE ENERGY PREDICTED BY IDOCK:   -3.46 KCAL/MOL
REMARK 924 INTRA-LIGAND FREE ENERGY PREDICTED BY IDOCK:   -0.25 KCAL/MOL
REMARK 927      BINDING AFFINITY PREDICTED BY RF-SCORE:    0.00 PKD
ROOT
HETATM    1  C   UNL     1     -10.987  12.506  68.648  1.00  0.00    -0.291 C  
HETATM    2  C   UNL     1     -10.723  12.188  67.172  1.00  0.00    -0.232 C  
ENDROOT
BRANCH   2   3
HETATM    3  O   UNL     1      -9.768  11.106  67.064  1.00  0.00    -0.182 OA 
BRANCH   3   4
HETATM    4  C   UNL     1     -10.212   9.887  66.685  1.00  0.00    -0.226 C  
HETATM    5  H2  UNL     1      -9.574  10.392  64.743  1.00  0.00     0.000 HD 
HETATM    6  O   UNL     1     -10.674   9.037  67.425  1.00  0.00    -0.271 OA 
HETATM    7  N   UNL     1     -10.004   9.708  65.365  1.00  0.00    -0.397 N  
HETATM    8  H1  UNL     1     -10.339   8.788  65.079  1.00  0.00     0.000 HD 
ENDBRANCH   3   4
ENDBRANCH   2   3
BRANCH   2   9
HETATM    9  C   UNL     1     -10.345  13.466  66.381  1.00  0.00    -0.288 C  
BRANCH   9  10
HETATM   10  N   UNL     1     -11.293  13.843  65.203  1.00  0.00    -0.308 N  
HETATM   11  C   UNL     1     -10.969  12.894  64.044  1.00  0.00    -0.411 C  
HETATM   12  C   UNL     1     -11.064  15.275  64.738  1.00  0.00    -0.394 C  
HETATM   13  C   UNL     1     -12.763  13.653  65.550  1.00  0.00    -0.466 C  
ENDBRANCH   9  10
ENDBRANCH   2   9
TORSDOF 4
ENDMDL
MODEL       94
REMARK 921   NORMALIZED FREE ENERGY PREDICTED BY IDOCK:   -2.71 KCAL/MOL
REMARK 922        TOTAL FREE ENERGY PREDICTED BY IDOCK:   -3.72 KCAL/MOL
REMARK 923 INTER-LIGAND FREE ENERGY PREDICTED BY IDOCK:   -3.43 KCAL/MOL
REMARK 924 INTRA-LIGAND FREE ENERGY PREDICTED BY IDOCK:   -0.29 KCAL/MOL
REMARK 927      BINDING AFFINITY PREDICTED BY RF-SCORE:    0.00 PKD
ROOT
HETATM    1  C   UNL     1      -6.980  19.948  65.626  1.00  0.00    -0.331 C  
HETATM    2  C   UNL     1      -7.350  19.388  67.004  1.00  0.00    -0.213 C  
ENDROOT
BRANCH   2   3
HETATM    3  O   UNL     1      -6.150  19.013  67.721  1.00  0.00    -0.201 OA 
BRANCH   3   4
HETATM    4  C   UNL     1      -6.001  19.434  68.996  1.00  0.00    -0.238 C  
HETATM    5  H2  UNL     1      -6.129  21.394  68.237  1.00  0.00     0.000 HD 
HETATM    6  O   UNL     1      -5.926  18.718  69.978  1.00  0.00    -0.255 OA 
HETATM    7  N   UNL     1      -6.019  20.781  69.044  1.00  0.00    -0.348 N  
HETATM    8  H1  UNL     1      -5.906  21.100  70.006  1.00  0.00     0.000 HD 
ENDBRANCH   3   4
ENDBRANCH   2   3
BRANCH   2   9
HETATM    9  C   UNL     1      -8.412  18.266  66.888  1.00  0.00    -0.258 C  
BRANCH   9  10
HETATM   10  N   UNL     1      -9.834  18.616  67.421  1.00  0.00    -0.308 N  
HETATM   11  C   UNL     1      -9.644  19.411  68.717  1.00  0.00    -0.432 C  
HETATM   12  C   UNL     1     -10.638  17.361  67.732  1.00  0.00    -0.371 C  
HETATM   13  C   UNL     1     -10.620  19.494  66.458  1.00  0.00    -0.476 C  
ENDBRANCH   9  10
ENDBRANCH   2   9
TORSDOF 4
ENDMDL
MODEL       95
REMARK 921   NORMALIZED FREE ENERGY PREDICTED BY IDOCK:   -2.71 KCAL/MOL
REMARK 922        TOTAL FREE ENERGY PREDICTED BY IDOCK:   -3.72 KCAL/MOL
REMARK 923 INTER-LIGAND FREE ENERGY PREDICTED BY IDOCK:   -3.40 KCAL/MOL
REMARK 924 INTRA-LIGAND FREE ENERGY PREDICTED BY IDOCK:   -0.32 KCAL/MOL
REMARK 927      BINDING AFFINITY PREDICTED BY RF-SCORE:    0.00 PKD
ROOT
HETATM    1  C   UNL     1      -9.987   9.354  70.058  1.00  0.00    -0.253 C  
HETATM    2  C   UNL     1     -10.945   8.630  71.010  1.00  0.00    -0.260 C  
ENDROOT
BRANCH   2   3
HETATM    3  O   UNL     1     -12.222   9.311  71.038  1.00  0.00    -0.291 OA 
BRANCH   3   4
HETATM    4  C   UNL     1     -13.257   8.721  71.675  1.00  0.00    -0.357 C  
HETATM    5  H2  UNL     1     -13.262   7.314  70.109  1.00  0.00     0.000 HD 
HETATM    6  O   UNL     1     -13.719   9.062  72.749  1.00  0.00    -0.434 OA 
HETATM    7  N   UNL     1     -13.670   7.640  70.985  1.00  0.00    -0.616 N  
HETATM    8  H1  UNL     1     -14.451   7.194  71.465  1.00  0.00     0.000 HD 
ENDBRANCH   3   4
ENDBRANCH   2   3
BRANCH   2   9
HETATM    9  C   UNL     1     -10.298   8.411  72.401  1.00  0.00    -0.329 C  
BRANCH   9  10
HETATM   10  N   UNL     1      -9.847   6.954  72.721  1.00  0.00    -0.164 N  
HETATM   11  C   UNL     1      -8.319   6.920  72.599  1.00  0.00    -0.109 C  
HETATM   12  C   UNL     1     -10.437   5.956  71.735  1.00  0.00    -0.227 C  
HETATM   13  C   UNL     1     -10.200   6.532  74.140  1.00  0.00    -0.358 C  
ENDBRANCH   9  10
ENDBRANCH   2   9
TORSDOF 4
ENDMDL
MODEL       96
REMARK 921   NORMALIZED FREE ENERGY PREDICTED BY IDOCK:   -2.70 KCAL/MOL
REMARK 922        TOTAL FREE ENERGY PREDICTED BY IDOCK:   -3.71 KCAL/MOL
REMARK 923 INTER-LIGAND FREE ENERGY PREDICTED BY IDOCK:   -3.72 KCAL/MOL
REMARK 924 INTRA-LIGAND FREE ENERGY PREDICTED BY IDOCK:    0.01 KCAL/MOL
REMARK 927      BINDING AFFINITY PREDICTED BY RF-SCORE:    0.00 PKD
ROOT
HETATM    1  C   UNL     1     -10.493   8.577  72.228  1.00  0.00    -0.402 C  
HETATM    2  C   UNL     1     -11.140   9.362  71.081  1.00  0.00    -0.362 C  
ENDROOT
BRANCH   2   3
HETATM    3  O   UNL     1     -12.546   9.565  71.354  1.00  0.00    -0.320 OA 
BRANCH   3   4
HETATM    4  C   UNL     1     -13.260   8.539  71.868  1.00  0.00    -0.369 C  
HETATM    5  H2  UNL     1     -13.764   9.839  73.446  1.00  0.00     0.000 HD 
HETATM    6  O   UNL     1     -13.417   7.450  71.346  1.00  0.00    -0.375 OA 
HETATM    7  N   UNL     1     -13.847   8.915  73.022  1.00  0.00    -0.907 N  
HETATM    8  H1  UNL     1     -14.386   8.141  73.410  1.00  0.00     0.000 HD 
ENDBRANCH   3   4
ENDBRANCH   2   3
BRANCH   2   9
HETATM    9  C   UNL     1     -10.834   8.708  69.710  1.00  0.00    -0.183 C  
BRANCH   9  10
HETATM   10  N   UNL     1     -10.132   9.621  68.660  1.00  0.00    -0.172 N  
HETATM   11  C   UNL     1      -9.817   8.745  67.443  1.00  0.00    -0.194 C  
HETATM   12  C   UNL     1      -8.829  10.193  69.199  1.00  0.00    -0.175 C  
HETATM   13  C   UNL     1     -11.025  10.759  68.185  1.00  0.00    -0.257 C  
ENDBRANCH   9  10
ENDBRANCH   2   9
TORSDOF 4
ENDMDL
MODEL       97
REMARK 921   NORMALIZED FREE ENERGY PREDICTED BY IDOCK:   -2.67 KCAL/MOL
REMARK 922        TOTAL FREE ENERGY PREDICTED BY IDOCK:   -3.67 KCAL/MOL
REMARK 923 INTER-LIGAND FREE ENERGY PREDICTED BY IDOCK:   -3.44 KCAL/MOL
REMARK 924 INTRA-LIGAND FREE ENERGY PREDICTED BY IDOCK:   -0.24 KCAL/MOL
REMARK 927      BINDING AFFINITY PREDICTED BY RF-SCORE:    0.00 PKD
ROOT
HETATM    1  C   UNL     1     -11.984  12.809  67.323  1.00  0.00    -0.345 C  
HETATM    2  C   UNL     1     -10.906  12.259  66.382  1.00  0.00    -0.264 C  
ENDROOT
BRANCH   2   3
HETATM    3  O   UNL     1     -11.496  11.915  65.106  1.00  0.00    -0.311 OA 
BRANCH   3   4
HETATM    4  C   UNL     1     -11.606  12.878  64.164  1.00  0.00    -0.398 C  
HETATM    5  H2  UNL     1      -9.750  13.596  64.852  1.00  0.00     0.000 HD 
HETATM    6  O   UNL     1     -12.504  12.974  63.346  1.00  0.00    -0.710 OA 
HETATM    7  N   UNL     1     -10.533  13.692  64.205  1.00  0.00    -0.603 N  
HETATM    8  H1  UNL     1     -10.616  14.419  63.495  1.00  0.00     0.000 HD 
ENDBRANCH   3   4
ENDBRANCH   2   3
BRANCH   2   9
HETATM    9  C   UNL     1     -10.104  11.116  67.053  1.00  0.00    -0.200 C  
BRANCH   9  10
HETATM   10  N   UNL     1      -8.581  11.381  67.258  1.00  0.00    -0.142 N  
HETATM   11  C   UNL     1      -7.847  10.700  66.098  1.00  0.00    -0.152 C  
HETATM   12  C   UNL     1      -8.082  10.787  68.567  1.00  0.00    -0.133 C  
HETATM   13  C   UNL     1      -8.234  12.862  67.210  1.00  0.00    -0.176 C  
ENDBRANCH   9  10
ENDBRANCH   2   9
TORSDOF 4
ENDMDL
MODEL       98
REMARK 921   NORMALIZED FREE ENERGY PREDICTED BY IDOCK:   -2.66 KCAL/MOL
REMARK 922        TOTAL FREE ENERGY PREDICTED BY IDOCK:   -3.66 KCAL/MOL
REMARK 923 INTER-LIGAND FREE ENERGY PREDICTED BY IDOCK:   -3.57 KCAL/MOL
REMARK 924 INTRA-LIGAND FREE ENERGY PREDICTED BY IDOCK:   -0.09 KCAL/MOL
REMARK 927      BINDING AFFINITY PREDICTED BY RF-SCORE:    0.00 PKD
ROOT
HETATM    1  C   UNL     1      -9.995  10.462  65.017  1.00  0.00    -0.399 C  
HETATM    2  C   UNL     1     -10.106  11.562  66.079  1.00  0.00    -0.232 C  
ENDROOT
BRANCH   2   3
HETATM    3  O   UNL     1      -9.751  11.032  67.378  1.00  0.00    -0.167 OA 
BRANCH   3   4
HETATM    4  C   UNL     1     -10.723  10.883  68.304  1.00  0.00    -0.204 C  
HETATM    5  H2  UNL     1     -11.091   8.998  67.440  1.00  0.00     0.000 HD 
HETATM    6  O   UNL     1     -10.983  11.671  69.195  1.00  0.00    -0.227 OA 
HETATM    7  N   UNL     1     -11.330   9.689  68.151  1.00  0.00    -0.500 N  
HETATM    8  H1  UNL     1     -12.064   9.576  68.850  1.00  0.00     0.000 HD 
ENDBRANCH   3   4
ENDBRANCH   2   3
BRANCH   2   9
HETATM    9  C   UNL     1     -11.487  12.262  66.021  1.00  0.00    -0.381 C  
BRANCH   9  10
HETATM   10  N   UNL     1     -11.461  13.820  65.980  1.00  0.00    -0.318 N  
HETATM   11  C   UNL     1     -12.357  14.253  64.815  1.00  0.00    -0.426 C  
HETATM   12  C   UNL     1     -10.055  14.349  65.736  1.00  0.00    -0.340 C  
HETATM   13  C   UNL     1     -12.024  14.448  67.247  1.00  0.00    -0.377 C  
ENDBRANCH   9  10
ENDBRANCH   2   9
TORSDOF 4
ENDMDL
MODEL       99
REMARK 921   NORMALIZED FREE ENERGY PREDICTED BY IDOCK:   -2.65 KCAL/MOL
REMARK 922        TOTAL FREE ENERGY PREDICTED BY IDOCK:   -3.65 KCAL/MOL
REMARK 923 INTER-LIGAND FREE ENERGY PREDICTED BY IDOCK:   -3.31 KCAL/MOL
REMARK 924 INTRA-LIGAND FREE ENERGY PREDICTED BY IDOCK:   -0.34 KCAL/MOL
REMARK 927      BINDING AFFINITY PREDICTED BY RF-SCORE:    0.00 PKD
ROOT
HETATM    1  C   UNL     1      -6.259  20.561  68.820  1.00  0.00    -0.353 C  
HETATM    2  C   UNL     1      -7.185  19.405  68.425  1.00  0.00    -0.310 C  
ENDROOT
BRANCH   2   3
HETATM    3  O   UNL     1      -6.420  18.183  68.294  1.00  0.00    -0.188 OA 
BRANCH   3   4
HETATM    4  C   UNL     1      -6.431  17.300  69.316  1.00  0.00    -0.243 C  
HETATM    5  H2  UNL     1      -8.256  16.600  68.533  1.00  0.00     0.000 HD 
HETATM    6  O   UNL     1      -5.551  17.161  70.146  1.00  0.00    -0.220 OA 
HETATM    7  N   UNL     1      -7.534  16.528  69.250  1.00  0.00    -0.226 N  
HETATM    8  H1  UNL     1      -7.543  15.861  70.021  1.00  0.00     0.000 HD 
ENDBRANCH   3   4
ENDBRANCH   2   3
BRANCH   2   9
HETATM    9  C   UNL     1      -8.042  19.769  67.187  1.00  0.00    -0.292 C  
BRANCH   9  10
HETATM   10  N   UNL     1      -9.477  19.162  67.148  1.00  0.00    -0.308 N  
HETATM   11  C   UNL     1     -10.325  20.072  66.253  1.00  0.00    -0.455 C  
HETATM   12  C   UNL     1     -10.104  19.121  68.534  1.00  0.00    -0.422 C  
HETATM   13  C   UNL     1      -9.506  17.768  66.538  1.00  0.00    -0.290 C  
ENDBRANCH   9  10
ENDBRANCH   2   9
TORSDOF 4
ENDMDL
MODEL      100
REMARK 921   NORMALIZED FREE ENERGY PREDICTED BY IDOCK:   -2.64 KCAL/MOL
REMARK 922        TOTAL FREE ENERGY PREDICTED BY IDOCK:   -3.63 KCAL/MOL
REMARK 923 INTER-LIGAND FREE ENERGY PREDICTED BY IDOCK:   -3.31 KCAL/MOL
REMARK 924 INTRA-LIGAND FREE ENERGY PREDICTED BY IDOCK:   -0.32 KCAL/MOL
REMARK 927      BINDING AFFINITY PREDICTED BY RF-SCORE:    0.00 PKD
ROOT
HETATM    1  C   UNL     1     -13.470   7.941  71.630  1.00  0.00    -0.386 C  
HETATM    2  C   UNL     1     -11.976   7.601  71.656  1.00  0.00    -0.299 C  
ENDROOT
BRANCH   2   3
HETATM    3  O   UNL     1     -11.444   7.822  72.984  1.00  0.00    -0.372 OA 
BRANCH   3   4
HETATM    4  C   UNL     1     -10.776   6.816  73.589  1.00  0.00    -0.254 C  
HETATM    5  H2  UNL     1     -12.117   5.508  72.626  1.00  0.00     0.000 HD 
HETATM    6  O   UNL     1      -9.787   6.938  74.289  1.00  0.00    -0.293 OA 
HETATM    7  N   UNL     1     -11.319   5.629  73.250  1.00  0.00    -0.492 N  
HETATM    8  H1  UNL     1     -10.815   4.869  73.706  1.00  0.00     0.000 HD 
ENDBRANCH   3   4
ENDBRANCH   2   3
BRANCH   2   9
HETATM    9  C   UNL     1     -11.213   8.331  70.523  1.00  0.00    -0.239 C  
BRANCH   9  10
HETATM   10  N   UNL     1     -10.323   7.433  69.612  1.00  0.00    -0.217 N  
HETATM   11  C   UNL     1     -11.062   6.103  69.432  1.00  0.00    -0.409 C  
HETATM   12  C   UNL     1      -8.970   7.156  70.251  1.00  0.00    -0.152 C  
HETATM   13  C   UNL     1     -10.116   8.030  68.227  1.00  0.00    -0.196 C  
ENDBRANCH   9  10
ENDBRANCH   2   9
TORSDOF 4
ENDMDL
MODEL      101
REMARK 921   NORMALIZED FREE ENERGY PREDICTED BY IDOCK:   -2.64 KCAL/MOL
REMARK 922        TOTAL FREE ENERGY PREDICTED BY IDOCK:   -3.63 KCAL/MOL
REMARK 923 INTER-LIGAND FREE ENERGY PREDICTED BY IDOCK:   -3.32 KCAL/MOL
REMARK 924 INTRA-LIGAND FREE ENERGY PREDICTED BY IDOCK:   -0.31 KCAL/MOL
REMARK 927      BINDING AFFINITY PREDICTED BY RF-SCORE:    0.00 PKD
ROOT
HETATM    1  C   UNL     1      -8.540  13.004  66.705  1.00  0.00    -0.061 C  
HETATM    2  C   UNL     1      -9.438  14.193  67.065  1.00  0.00    -0.251 C  
ENDROOT
BRANCH   2   3
HETATM    3  O   UNL     1     -10.782  13.959  66.583  1.00  0.00    -0.279 OA 
BRANCH   3   4
HETATM    4  C   UNL     1     -11.678  13.386  67.417  1.00  0.00    -0.373 C  
HETATM    5  H2  UNL     1     -12.135  15.334  68.070  1.00  0.00     0.000 HD 
HETATM    6  O   UNL     1     -11.938  12.198  67.473  1.00  0.00    -0.544 OA 
HETATM    7  N   UNL     1     -12.308  14.332  68.141  1.00  0.00    -0.565 N  
HETATM    8  H1  UNL     1     -12.984  13.900  68.770  1.00  0.00     0.000 HD 
ENDBRANCH   3   4
ENDBRANCH   2   3
BRANCH   2   9
HETATM    9  C   UNL     1      -8.809  15.532  66.604  1.00  0.00    -0.290 C  
BRANCH   9  10
HETATM   10  N   UNL     1      -8.863  16.701  67.633  1.00  0.00    -0.200 N  
HETATM   11  C   UNL     1      -9.162  16.080  69.003  1.00  0.00    -0.244 C  
HETATM   12  C   UNL     1      -9.968  17.692  67.296  1.00  0.00    -0.322 C  
HETATM   13  C   UNL     1      -7.538  17.441  67.748  1.00  0.00    -0.194 C  
ENDBRANCH   9  10
ENDBRANCH   2   9
TORSDOF 4
ENDMDL
MODEL      102
REMARK 921   NORMALIZED FREE ENERGY PREDICTED BY IDOCK:   -2.63 KCAL/MOL
REMARK 922        TOTAL FREE ENERGY PREDICTED BY IDOCK:   -3.62 KCAL/MOL
REMARK 923 INTER-LIGAND FREE ENERGY PREDICTED BY IDOCK:   -3.37 KCAL/MOL
REMARK 924 INTRA-LIGAND FREE ENERGY PREDICTED BY IDOCK:   -0.26 KCAL/MOL
REMARK 927      BINDING AFFINITY PREDICTED BY RF-SCORE:    0.00 PKD
ROOT
HETATM    1  C   UNL     1     -10.173   9.714  66.302  1.00  0.00    -0.286 C  
HETATM    2  C   UNL     1     -10.022  11.239  66.301  1.00  0.00    -0.221 C  
ENDROOT
BRANCH   2   3
HETATM    3  O   UNL     1      -9.085  11.643  67.327  1.00  0.00    -0.162 OA 
BRANCH   3   4
HETATM    4  C   UNL     1      -7.813  11.922  66.969  1.00  0.00    -0.152 C  
HETATM    5  H2  UNL     1      -8.250  13.928  67.437  1.00  0.00     0.000 HD 
HETATM    6  O   UNL     1      -6.974  11.107  66.630  1.00  0.00    -0.133 OA 
HETATM    7  N   UNL     1      -7.571  13.241  67.108  1.00  0.00    -0.373 N  
HETATM    8  H1  UNL     1      -6.611  13.452  66.838  1.00  0.00     0.000 HD 
ENDBRANCH   3   4
ENDBRANCH   2   3
BRANCH   2   9
HETATM    9  C   UNL     1     -11.402  11.940  66.371  1.00  0.00    -0.339 C  
BRANCH   9  10
HETATM   10  N   UNL     1     -11.716  12.944  65.221  1.00  0.00    -0.344 N  
HETATM   11  C   UNL     1     -12.268  12.126  64.049  1.00  0.00    -0.446 C  
HETATM   12  C   UNL     1     -10.463  13.674  64.759  1.00  0.00    -0.418 C  
HETATM   13  C   UNL     1     -12.780  13.962  65.608  1.00  0.00    -0.495 C  
ENDBRANCH   9  10
ENDBRANCH   2   9
TORSDOF 4
ENDMDL
MODEL      103
REMARK 921   NORMALIZED FREE ENERGY PREDICTED BY IDOCK:   -2.62 KCAL/MOL
REMARK 922        TOTAL FREE ENERGY PREDICTED BY IDOCK:   -3.61 KCAL/MOL
REMARK 923 INTER-LIGAND FREE ENERGY PREDICTED BY IDOCK:   -3.33 KCAL/MOL
REMARK 924 INTRA-LIGAND FREE ENERGY PREDICTED BY IDOCK:   -0.28 KCAL/MOL
REMARK 927      BINDING AFFINITY PREDICTED BY RF-SCORE:    0.00 PKD
ROOT
HETATM    1  C   UNL     1      -7.999  11.882  67.283  1.00  0.00    -0.171 C  
HETATM    2  C   UNL     1      -9.421  11.874  66.709  1.00  0.00    -0.201 C  
ENDROOT
BRANCH   2   3
HETATM    3  O   UNL     1      -9.475  11.025  65.539  1.00  0.00    -0.200 OA 
BRANCH   3   4
HETATM    4  C   UNL     1      -9.760   9.714  65.703  1.00  0.00    -0.293 C  
HETATM    5  H2  UNL     1      -8.595   9.369  63.983  1.00  0.00     0.000 HD 
HETATM    6  O   UNL     1     -10.397   9.235  66.623  1.00  0.00    -0.259 OA 
HETATM    7  N   UNL     1      -9.172   8.987  64.732  1.00  0.00    -0.440 N  
HETATM    8  H1  UNL     1      -9.386   7.998  64.856  1.00  0.00     0.000 HD 
ENDBRANCH   3   4
ENDBRANCH   2   3
BRANCH   2   9
HETATM    9  C   UNL     1      -9.946  13.315  66.488  1.00  0.00    -0.280 C  
BRANCH   9  10
HETATM   10  N   UNL     1     -11.381  13.607  67.021  1.00  0.00    -0.312 N  
HETATM   11  C   UNL     1     -11.778  12.424  67.912  1.00  0.00    -0.360 C  
HETATM   12  C   UNL     1     -12.387  13.719  65.884  1.00  0.00    -0.476 C  
HETATM   13  C   UNL     1     -11.442  14.864  67.877  1.00  0.00    -0.340 C  
ENDBRANCH   9  10
ENDBRANCH   2   9
TORSDOF 4
ENDMDL
MODEL      104
REMARK 921   NORMALIZED FREE ENERGY PREDICTED BY IDOCK:   -2.62 KCAL/MOL
REMARK 922        TOTAL FREE ENERGY PREDICTED BY IDOCK:   -3.60 KCAL/MOL
REMARK 923 INTER-LIGAND FREE ENERGY PREDICTED BY IDOCK:   -3.62 KCAL/MOL
REMARK 924 INTRA-LIGAND FREE ENERGY PREDICTED BY IDOCK:    0.02 KCAL/MOL
REMARK 927      BINDING AFFINITY PREDICTED BY RF-SCORE:    0.00 PKD
ROOT
HETATM    1  C   UNL     1      -9.677   5.375  69.401  1.00  0.00    -0.226 C  
HETATM    2  C   UNL     1     -10.914   6.266  69.562  1.00  0.00    -0.379 C  
ENDROOT
BRANCH   2   3
HETATM    3  O   UNL     1     -11.596   6.395  68.292  1.00  0.00    -0.029 OA 
BRANCH   3   4
HETATM    4  C   UNL     1     -10.866   6.673  67.190  1.00  0.00    -0.401 C  
HETATM    5  H2  UNL     1     -11.769   4.986  66.312  1.00  0.00     0.000 HD 
HETATM    6  O   UNL     1     -10.131   7.634  67.048  1.00  0.00    -0.214 OA 
HETATM    7  N   UNL     1     -11.119   5.767  66.225  1.00  0.00    -0.755 N  
HETATM    8  H1  UNL     1     -10.568   5.977  65.393  1.00  0.00     0.000 HD 
ENDBRANCH   3   4
ENDBRANCH   2   3
BRANCH   2   9
HETATM    9  C   UNL     1     -10.555   7.610  70.244  1.00  0.00    -0.230 C  
BRANCH   9  10
HETATM   10  N   UNL     1     -11.463   8.033  71.438  1.00  0.00    -0.252 N  
HETATM   11  C   UNL     1     -10.631   7.870  72.714  1.00  0.00    -0.353 C  
HETATM   12  C   UNL     1     -12.696   7.146  71.544  1.00  0.00    -0.393 C  
HETATM   13  C   UNL     1     -11.894   9.490  71.357  1.00  0.00    -0.389 C  
ENDBRANCH   9  10
ENDBRANCH   2   9
TORSDOF 4
ENDMDL
MODEL      105
REMARK 921   NORMALIZED FREE ENERGY PREDICTED BY IDOCK:   -2.61 KCAL/MOL
REMARK 922        TOTAL FREE ENERGY PREDICTED BY IDOCK:   -3.60 KCAL/MOL
REMARK 923 INTER-LIGAND FREE ENERGY PREDICTED BY IDOCK:   -3.48 KCAL/MOL
REMARK 924 INTRA-LIGAND FREE ENERGY PREDICTED BY IDOCK:   -0.12 KCAL/MOL
REMARK 927      BINDING AFFINITY PREDICTED BY RF-SCORE:    0.00 PKD
ROOT
HETATM    1  C   UNL     1     -10.992  13.560  64.621  1.00  0.00    -0.395 C  
HETATM    2  C   UNL     1     -10.235  13.795  65.933  1.00  0.00    -0.313 C  
ENDROOT
BRANCH   2   3
HETATM    3  O   UNL     1      -9.993  12.532  66.596  1.00  0.00    -0.226 OA 
BRANCH   3   4
HETATM    4  C   UNL     1     -10.852  12.131  67.558  1.00  0.00    -0.243 C  
HETATM    5  H2  UNL     1      -9.284  12.457  68.925  1.00  0.00     0.000 HD 
HETATM    6  O   UNL     1     -12.022  11.838  67.390  1.00  0.00    -0.617 OA 
HETATM    7  N   UNL     1     -10.248  12.168  68.763  1.00  0.00    -0.381 N  
HETATM    8  H1  UNL     1     -10.897  11.865  69.490  1.00  0.00     0.000 HD 
ENDBRANCH   3   4
ENDBRANCH   2   3
BRANCH   2   9
HETATM    9  C   UNL     1     -10.944  14.859  66.808  1.00  0.00    -0.326 C  
BRANCH   9  10
HETATM   10  N   UNL     1     -10.043  16.013  67.342  1.00  0.00    -0.253 N  
HETATM   11  C   UNL     1      -9.952  15.844  68.863  1.00  0.00    -0.225 C  
HETATM   12  C   UNL     1     -10.645  17.378  67.039  1.00  0.00    -0.238 C  
HETATM   13  C   UNL     1      -8.626  15.952  66.790  1.00  0.00    -0.266 C  
ENDBRANCH   9  10
ENDBRANCH   2   9
TORSDOF 4
ENDMDL
MODEL      106
REMARK 921   NORMALIZED FREE ENERGY PREDICTED BY IDOCK:   -2.59 KCAL/MOL
REMARK 922        TOTAL FREE ENERGY PREDICTED BY IDOCK:   -3.56 KCAL/MOL
REMARK 923 INTER-LIGAND FREE ENERGY PREDICTED BY IDOCK:   -3.33 KCAL/MOL
REMARK 924 INTRA-LIGAND FREE ENERGY PREDICTED BY IDOCK:   -0.23 KCAL/MOL
REMARK 927      BINDING AFFINITY PREDICTED BY RF-SCORE:    0.00 PKD
ROOT
HETATM    1  C   UNL     1     -12.733   6.851  71.173  1.00  0.00    -0.331 C  
HETATM    2  C   UNL     1     -11.336   6.818  70.545  1.00  0.00    -0.343 C  
ENDROOT
BRANCH   2   3
HETATM    3  O   UNL     1     -11.411   6.279  69.204  1.00  0.00    -0.394 OA 
BRANCH   3   4
HETATM    4  C   UNL     1     -10.758   6.921  68.211  1.00  0.00    -0.214 C  
HETATM    5  H2  UNL     1     -12.066   5.944  66.882  1.00  0.00     0.000 HD 
HETATM    6  O   UNL     1      -9.865   7.736  68.357  1.00  0.00    -0.160 OA 
HETATM    7  N   UNL     1     -11.287   6.587  67.016  1.00  0.00    -0.780 N  
HETATM    8  H1  UNL     1     -10.794   7.072  66.267  1.00  0.00     0.000 HD 
ENDBRANCH   3   4
ENDBRANCH   2   3
BRANCH   2   9
HETATM    9  C   UNL     1     -10.319   6.106  71.472  1.00  0.00    -0.209 C  
BRANCH   9  10
HETATM   10  N   UNL     1      -9.545   7.023  72.466  1.00  0.00    -0.145 N  
HETATM   11  C   UNL     1      -8.105   6.501  72.530  1.00  0.00    -0.104 C  
HETATM   12  C   UNL     1     -10.146   6.965  73.863  1.00  0.00    -0.357 C  
HETATM   13  C   UNL     1      -9.485   8.471  72.001  1.00  0.00    -0.294 C  
ENDBRANCH   9  10
ENDBRANCH   2   9
TORSDOF 4
ENDMDL
MODEL      107
REMARK 921   NORMALIZED FREE ENERGY PREDICTED BY IDOCK:   -2.58 KCAL/MOL
REMARK 922        TOTAL FREE ENERGY PREDICTED BY IDOCK:   -3.55 KCAL/MOL
REMARK 923 INTER-LIGAND FREE ENERGY PREDICTED BY IDOCK:   -3.16 KCAL/MOL
REMARK 924 INTRA-LIGAND FREE ENERGY PREDICTED BY IDOCK:   -0.39 KCAL/MOL
REMARK 927      BINDING AFFINITY PREDICTED BY RF-SCORE:    0.00 PKD
ROOT
HETATM    1  C   UNL     1      -7.147  19.743  68.741  1.00  0.00    -0.365 C  
HETATM    2  C   UNL     1      -7.844  18.454  68.291  1.00  0.00    -0.298 C  
ENDROOT
BRANCH   2   3
HETATM    3  O   UNL     1      -6.967  17.322  68.495  1.00  0.00    -0.190 OA 
BRANCH   3   4
HETATM    4  C   UNL     1      -7.431  16.084  68.215  1.00  0.00    -0.136 C  
HETATM    5  H2  UNL     1      -8.647  16.285  69.922  1.00  0.00     0.000 HD 
HETATM    6  O   UNL     1      -7.128  15.414  67.245  1.00  0.00    -0.196 OA 
HETATM    7  N   UNL     1      -8.347  15.714  69.132  1.00  0.00    -0.234 N  
HETATM    8  H1  UNL     1      -8.698  14.780  68.920  1.00  0.00     0.000 HD 
ENDBRANCH   3   4
ENDBRANCH   2   3
BRANCH   2   9
HETATM    9  C   UNL     1      -8.402  18.590  66.852  1.00  0.00    -0.263 C  
BRANCH   9  10
HETATM   10  N   UNL     1      -9.948  18.457  66.704  1.00  0.00    -0.347 N  
HETATM   11  C   UNL     1     -10.216  17.145  65.958  1.00  0.00    -0.321 C  
HETATM   12  C   UNL     1     -10.533  19.606  65.896  1.00  0.00    -0.493 C  
HETATM   13  C   UNL     1     -10.658  18.370  68.048  1.00  0.00    -0.318 C  
ENDBRANCH   9  10
ENDBRANCH   2   9
TORSDOF 4
ENDMDL
MODEL      108
REMARK 921   NORMALIZED FREE ENERGY PREDICTED BY IDOCK:   -2.56 KCAL/MOL
REMARK 922        TOTAL FREE ENERGY PREDICTED BY IDOCK:   -3.54 KCAL/MOL
REMARK 923 INTER-LIGAND FREE ENERGY PREDICTED BY IDOCK:   -3.22 KCAL/MOL
REMARK 924 INTRA-LIGAND FREE ENERGY PREDICTED BY IDOCK:   -0.32 KCAL/MOL
REMARK 927      BINDING AFFINITY PREDICTED BY RF-SCORE:    0.00 PKD
ROOT
HETATM    1  C   UNL     1     -12.002  11.938  70.145  1.00  0.00    -0.413 C  
HETATM    2  C   UNL     1     -11.182  11.551  68.910  1.00  0.00    -0.247 C  
ENDROOT
BRANCH   2   3
HETATM    3  O   UNL     1     -10.362  10.395  69.206  1.00  0.00    -0.204 OA 
BRANCH   3   4
HETATM    4  C   UNL     1      -9.903   9.648  68.178  1.00  0.00    -0.150 C  
HETATM    5  H2  UNL     1     -11.875   8.942  67.968  1.00  0.00     0.000 HD 
HETATM    6  O   UNL     1      -8.766   9.660  67.742  1.00  0.00    -0.122 OA 
HETATM    7  N   UNL     1     -10.909   8.926  67.644  1.00  0.00    -0.487 N  
HETATM    8  H1  UNL     1     -10.562   8.362  66.868  1.00  0.00     0.000 HD 
ENDBRANCH   3   4
ENDBRANCH   2   3
BRANCH   2   9
HETATM    9  C   UNL     1     -10.406  12.767  68.346  1.00  0.00    -0.243 C  
BRANCH   9  10
HETATM   10  N   UNL     1     -10.932  13.346  66.998  1.00  0.00    -0.283 N  
HETATM   11  C   UNL     1     -11.947  14.441  67.346  1.00  0.00    -0.373 C  
HETATM   12  C   UNL     1     -11.631  12.280  66.167  1.00  0.00    -0.390 C  
HETATM   13  C   UNL     1      -9.830  13.992  66.170  1.00  0.00    -0.303 C  
ENDBRANCH   9  10
ENDBRANCH   2   9
TORSDOF 4
ENDMDL
MODEL      109
REMARK 921   NORMALIZED FREE ENERGY PREDICTED BY IDOCK:   -2.48 KCAL/MOL
REMARK 922        TOTAL FREE ENERGY PREDICTED BY IDOCK:   -3.43 KCAL/MOL
REMARK 923 INTER-LIGAND FREE ENERGY PREDICTED BY IDOCK:   -3.17 KCAL/MOL
REMARK 924 INTRA-LIGAND FREE ENERGY PREDICTED BY IDOCK:   -0.26 KCAL/MOL
REMARK 927      BINDING AFFINITY PREDICTED BY RF-SCORE:    0.00 PKD
ROOT
HETATM    1  C   UNL     1      -9.976   8.804  67.431  1.00  0.00    -0.267 C  
HETATM    2  C   UNL     1     -10.363   9.665  68.639  1.00  0.00    -0.203 C  
ENDROOT
BRANCH   2   3
HETATM    3  O   UNL     1     -10.168  11.065  68.328  1.00  0.00    -0.165 OA 
BRANCH   3   4
HETATM    4  C   UNL     1     -11.248  11.876  68.289  1.00  0.00    -0.261 C  
HETATM    5  H2  UNL     1     -10.758  12.421  70.263  1.00  0.00     0.000 HD 
HETATM    6  O   UNL     1     -11.967  12.057  67.324  1.00  0.00    -0.591 OA 
HETATM    7  N   UNL     1     -11.382  12.526  69.463  1.00  0.00    -0.452 N  
HETATM    8  H1  UNL     1     -12.196  13.138  69.434  1.00  0.00     0.000 HD 
ENDBRANCH   3   4
ENDBRANCH   2   3
BRANCH   2   9
HETATM    9  C   UNL     1      -9.649   9.182  69.926  1.00  0.00    -0.192 C  
BRANCH   9  10
HETATM   10  N   UNL     1     -10.552   8.478  70.983  1.00  0.00    -0.208 N  
HETATM   11  C   UNL     1     -10.713   7.021  70.538  1.00  0.00    -0.238 C  
HETATM   12  C   UNL     1     -11.930   9.120  71.057  1.00  0.00    -0.282 C  
HETATM   13  C   UNL     1      -9.925   8.464  72.370  1.00  0.00    -0.310 C  
ENDBRANCH   9  10
ENDBRANCH   2   9
TORSDOF 4
ENDMDL
MODEL      110
REMARK 921   NORMALIZED FREE ENERGY PREDICTED BY IDOCK:   -2.47 KCAL/MOL
REMARK 922        TOTAL FREE ENERGY PREDICTED BY IDOCK:   -3.42 KCAL/MOL
REMARK 923 INTER-LIGAND FREE ENERGY PREDICTED BY IDOCK:   -3.06 KCAL/MOL
REMARK 924 INTRA-LIGAND FREE ENERGY PREDICTED BY IDOCK:   -0.36 KCAL/MOL
REMARK 927      BINDING AFFINITY PREDICTED BY RF-SCORE:    0.00 PKD
ROOT
HETATM    1  C   UNL     1     -10.956   6.134  68.480  1.00  0.00    -0.404 C  
HETATM    2  C   UNL     1     -10.999   6.552  69.954  1.00  0.00    -0.335 C  
ENDROOT
BRANCH   2   3
HETATM    3  O   UNL     1     -12.373   6.691  70.387  1.00  0.00    -0.274 OA 
BRANCH   3   4
HETATM    4  C   UNL     1     -12.615   7.054  71.666  1.00  0.00    -0.380 C  
HETATM    5  H2  UNL     1     -11.904   5.149  72.215  1.00  0.00     0.000 HD 
HETATM    6  O   UNL     1     -13.011   8.145  72.032  1.00  0.00    -0.323 OA 
HETATM    7  N   UNL     1     -12.283   6.051  72.503  1.00  0.00    -0.532 N  
HETATM    8  H1  UNL     1     -12.465   6.325  73.468  1.00  0.00     0.000 HD 
ENDBRANCH   3   4
ENDBRANCH   2   3
BRANCH   2   9
HETATM    9  C   UNL     1     -10.110   7.794  70.212  1.00  0.00    -0.195 C  
BRANCH   9  10
HETATM   10  N   UNL     1      -8.966   7.611  71.255  1.00  0.00    -0.133 N  
HETATM   11  C   UNL     1      -9.333   8.458  72.478  1.00  0.00    -0.275 C  
HETATM   12  C   UNL     1      -7.631   8.095  70.709  1.00  0.00    -0.071 C  
HETATM   13  C   UNL     1      -8.829   6.169  71.723  1.00  0.00    -0.138 C  
ENDBRANCH   9  10
ENDBRANCH   2   9
TORSDOF 4
ENDMDL
MODEL      111
REMARK 921   NORMALIZED FREE ENERGY PREDICTED BY IDOCK:   -2.43 KCAL/MOL
REMARK 922        TOTAL FREE ENERGY PREDICTED BY IDOCK:   -3.37 KCAL/MOL
REMARK 923 INTER-LIGAND FREE ENERGY PREDICTED BY IDOCK:   -3.05 KCAL/MOL
REMARK 924 INTRA-LIGAND FREE ENERGY PREDICTED BY IDOCK:   -0.32 KCAL/MOL
REMARK 927      BINDING AFFINITY PREDICTED BY RF-SCORE:    0.00 PKD
ROOT
HETATM    1  C   UNL     1      -8.802  15.313  66.863  1.00  0.00    -0.281 C  
HETATM    2  C   UNL     1      -9.593  14.024  67.112  1.00  0.00    -0.245 C  
ENDROOT
BRANCH   2   3
HETATM    3  O   UNL     1     -10.401  14.165  68.304  1.00  0.00    -0.232 OA 
BRANCH   3   4
HETATM    4  C   UNL     1     -11.568  14.840  68.219  1.00  0.00    -0.323 C  
HETATM    5  H2  UNL     1     -12.135  13.437  66.755  1.00  0.00     0.000 HD 
HETATM    6  O   UNL     1     -11.891  15.792  68.906  1.00  0.00    -0.393 OA 
HETATM    7  N   UNL     1     -12.372  14.264  67.304  1.00  0.00    -0.592 N  
HETATM    8  H1  UNL     1     -13.253  14.773  67.239  1.00  0.00     0.000 HD 
ENDBRANCH   3   4
ENDBRANCH   2   3
BRANCH   2   9
HETATM    9  C   UNL     1      -8.665  12.784  67.101  1.00  0.00    -0.202 C  
BRANCH   9  10
HETATM   10  N   UNL     1      -9.274  11.481  66.502  1.00  0.00    -0.189 N  
HETATM   11  C   UNL     1     -10.272  11.908  65.420  1.00  0.00    -0.263 C  
HETATM   12  C   UNL     1     -10.016  10.674  67.558  1.00  0.00    -0.171 C  
HETATM   13  C   UNL     1      -8.227  10.600  65.835  1.00  0.00    -0.159 C  
ENDBRANCH   9  10
ENDBRANCH   2   9
TORSDOF 4
ENDMDL
MODEL      112
REMARK 921   NORMALIZED FREE ENERGY PREDICTED BY IDOCK:   -2.41 KCAL/MOL
REMARK 922        TOTAL FREE ENERGY PREDICTED BY IDOCK:   -3.35 KCAL/MOL
REMARK 923 INTER-LIGAND FREE ENERGY PREDICTED BY IDOCK:   -3.33 KCAL/MOL
REMARK 924 INTRA-LIGAND FREE ENERGY PREDICTED BY IDOCK:   -0.02 KCAL/MOL
REMARK 927      BINDING AFFINITY PREDICTED BY RF-SCORE:    0.00 PKD
ROOT
HETATM    1  C   UNL     1     -12.763   9.415  71.591  1.00  0.00    -0.459 C  
HETATM    2  C   UNL     1     -11.367   9.113  71.035  1.00  0.00    -0.309 C  
ENDROOT
BRANCH   2   3
HETATM    3  O   UNL     1     -10.801  10.308  70.447  1.00  0.00    -0.294 OA 
BRANCH   3   4
HETATM    4  C   UNL     1     -11.608  11.122  69.732  1.00  0.00    -0.334 C  
HETATM    5  H2  UNL     1     -11.274  12.566  71.228  1.00  0.00     0.000 HD 
HETATM    6  O   UNL     1     -12.110  10.859  68.655  1.00  0.00    -0.527 OA 
HETATM    7  N   UNL     1     -11.728  12.315  70.349  1.00  0.00    -0.534 N  
HETATM    8  H1  UNL     1     -12.337  12.929  69.810  1.00  0.00     0.000 HD 
ENDBRANCH   3   4
ENDBRANCH   2   3
BRANCH   2   9
HETATM    9  C   UNL     1     -11.390   7.879  70.099  1.00  0.00    -0.092 C  
BRANCH   9  10
HETATM   10  N   UNL     1     -10.115   6.983  70.120  1.00  0.00    -0.186 N  
HETATM   11  C   UNL     1      -9.257   7.394  68.918  1.00  0.00    -0.142 C  
HETATM   12  C   UNL     1     -10.466   5.508  69.985  1.00  0.00    -0.303 C  
HETATM   13  C   UNL     1      -9.275   7.191  71.372  1.00  0.00    -0.150 C  
ENDBRANCH   9  10
ENDBRANCH   2   9
TORSDOF 4
ENDMDL
MODEL      113
REMARK 921   NORMALIZED FREE ENERGY PREDICTED BY IDOCK:   -2.38 KCAL/MOL
REMARK 922        TOTAL FREE ENERGY PREDICTED BY IDOCK:   -3.30 KCAL/MOL
REMARK 923 INTER-LIGAND FREE ENERGY PREDICTED BY IDOCK:   -3.29 KCAL/MOL
REMARK 924 INTRA-LIGAND FREE ENERGY PREDICTED BY IDOCK:   -0.02 KCAL/MOL
REMARK 927      BINDING AFFINITY PREDICTED BY RF-SCORE:    0.00 PKD
ROOT
HETATM    1  C   UNL     1      -9.406   8.955  71.162  1.00  0.00    -0.326 C  
HETATM    2  C   UNL     1     -10.665   9.670  70.658  1.00  0.00    -0.322 C  
ENDROOT
BRANCH   2   3
HETATM    3  O   UNL     1     -11.839   9.099  71.283  1.00  0.00    -0.288 OA 
BRANCH   3   4
HETATM    4  C   UNL     1     -11.912   7.757  71.419  1.00  0.00    -0.306 C  
HETATM    5  H2  UNL     1     -11.907   8.087  73.498  1.00  0.00     0.000 HD 
HETATM    6  O   UNL     1     -12.008   6.954  70.508  1.00  0.00    -0.355 OA 
HETATM    7  N   UNL     1     -11.938   7.423  72.725  1.00  0.00    -0.556 N  
HETATM    8  H1  UNL     1     -11.993   6.410  72.827  1.00  0.00     0.000 HD 
ENDBRANCH   3   4
ENDBRANCH   2   3
BRANCH   2   9
HETATM    9  C   UNL     1     -10.710   9.707  69.110  1.00  0.00    -0.217 C  
BRANCH   9  10
HETATM   10  N   UNL     1     -10.606  11.119  68.459  1.00  0.00    -0.181 N  
HETATM   11  C   UNL     1     -11.522  12.051  69.259  1.00  0.00    -0.301 C  
HETATM   12  C   UNL     1     -11.073  11.102  67.011  1.00  0.00    -0.273 C  
HETATM   13  C   UNL     1      -9.198  11.693  68.530  1.00  0.00    -0.163 C  
ENDBRANCH   9  10
ENDBRANCH   2   9
TORSDOF 4
ENDMDL
MODEL      114
REMARK 921   NORMALIZED FREE ENERGY PREDICTED BY IDOCK:   -2.37 KCAL/MOL
REMARK 922        TOTAL FREE ENERGY PREDICTED BY IDOCK:   -3.30 KCAL/MOL
REMARK 923 INTER-LIGAND FREE ENERGY PREDICTED BY IDOCK:   -2.92 KCAL/MOL
REMARK 924 INTRA-LIGAND FREE ENERGY PREDICTED BY IDOCK:   -0.37 KCAL/MOL
REMARK 927      BINDING AFFINITY PREDICTED BY RF-SCORE:    0.00 PKD
ROOT
HETATM    1  C   UNL     1      -9.770   7.229  73.304  1.00  0.00    -0.277 C  
HETATM    2  C   UNL     1     -10.004   7.397  71.798  1.00  0.00    -0.171 C  
ENDROOT
BRANCH   2   3
HETATM    3  O   UNL     1     -10.790   6.291  71.295  1.00  0.00    -0.244 OA 
BRANCH   3   4
HETATM    4  C   UNL     1     -11.600   6.503  70.235  1.00  0.00    -0.409 C  
HETATM    5  H2  UNL     1     -12.887   7.500  71.570  1.00  0.00     0.000 HD 
HETATM    6  O   UNL     1     -11.361   6.188  69.083  1.00  0.00    -0.399 OA 
HETATM    7  N   UNL     1     -12.697   7.187  70.618  1.00  0.00    -0.597 N  
HETATM    8  H1  UNL     1     -13.308   7.347  69.818  1.00  0.00     0.000 HD 
ENDBRANCH   3   4
ENDBRANCH   2   3
BRANCH   2   9
HETATM    9  C   UNL     1      -8.671   7.639  71.046  1.00  0.00    -0.137 C  
BRANCH   9  10
HETATM   10  N   UNL     1      -8.651   8.850  70.065  1.00  0.00    -0.132 N  
HETATM   11  C   UNL     1      -8.548   8.278  68.647  1.00  0.00    -0.133 C  
HETATM   12  C   UNL     1      -7.452   9.752  70.316  1.00  0.00    -0.164 C  
HETATM   13  C   UNL     1      -9.928   9.676  70.131  1.00  0.00    -0.261 C  
ENDBRANCH   9  10
ENDBRANCH   2   9
TORSDOF 4
ENDMDL
MODEL      115
REMARK 921   NORMALIZED FREE ENERGY PREDICTED BY IDOCK:   -2.36 KCAL/MOL
REMARK 922        TOTAL FREE ENERGY PREDICTED BY IDOCK:   -3.29 KCAL/MOL
REMARK 923 INTER-LIGAND FREE ENERGY PREDICTED BY IDOCK:   -3.12 KCAL/MOL
REMARK 924 INTRA-LIGAND FREE ENERGY PREDICTED BY IDOCK:   -0.17 KCAL/MOL
REMARK 927      BINDING AFFINITY PREDICTED BY RF-SCORE:    0.00 PKD
ROOT
HETATM    1  C   UNL     1      -7.450  13.503  67.562  1.00  0.00    -0.177 C  
HETATM    2  C   UNL     1      -8.825  14.054  67.169  1.00  0.00    -0.228 C  
ENDROOT
BRANCH   2   3
HETATM    3  O   UNL     1      -8.740  15.482  66.950  1.00  0.00    -0.209 OA 
BRANCH   3   4
HETATM    4  C   UNL     1      -9.758  16.100  66.311  1.00  0.00    -0.307 C  
HETATM    5  H2  UNL     1     -10.013  17.233  68.067  1.00  0.00     0.000 HD 
HETATM    6  O   UNL     1     -10.094  15.908  65.157  1.00  0.00    -0.451 OA 
HETATM    7  N   UNL     1     -10.315  17.027  67.115  1.00  0.00    -0.307 N  
HETATM    8  H1  UNL     1     -11.082  17.494  66.633  1.00  0.00     0.000 HD 
ENDBRANCH   3   4
ENDBRANCH   2   3
BRANCH   2   9
HETATM    9  C   UNL     1      -9.915  13.616  68.178  1.00  0.00    -0.246 C  
BRANCH   9  10
HETATM   10  N   UNL     1     -11.064  12.734  67.603  1.00  0.00    -0.247 N  
HETATM   11  C   UNL     1     -11.865  12.205  68.797  1.00  0.00    -0.303 C  
HETATM   12  C   UNL     1     -10.518  11.549  66.819  1.00  0.00    -0.239 C  
HETATM   13  C   UNL     1     -12.023  13.523  66.724  1.00  0.00    -0.404 C  
ENDBRANCH   9  10
ENDBRANCH   2   9
TORSDOF 4
ENDMDL
MODEL      116
REMARK 921   NORMALIZED FREE ENERGY PREDICTED BY IDOCK:   -2.36 KCAL/MOL
REMARK 922        TOTAL FREE ENERGY PREDICTED BY IDOCK:   -3.29 KCAL/MOL
REMARK 923 INTER-LIGAND FREE ENERGY PREDICTED BY IDOCK:   -2.93 KCAL/MOL
REMARK 924 INTRA-LIGAND FREE ENERGY PREDICTED BY IDOCK:   -0.35 KCAL/MOL
REMARK 927      BINDING AFFINITY PREDICTED BY RF-SCORE:    0.00 PKD
ROOT
HETATM    1  C   UNL     1     -10.334  11.057  67.052  1.00  0.00    -0.269 C  
HETATM    2  C   UNL     1      -9.947  10.670  65.620  1.00  0.00    -0.268 C  
ENDROOT
BRANCH   2   3
HETATM    3  O   UNL     1     -11.010  11.031  64.707  1.00  0.00    -0.224 OA 
BRANCH   3   4
HETATM    4  C   UNL     1     -10.713  11.812  63.645  1.00  0.00    -0.440 C  
HETATM    5  H2  UNL     1     -12.769  12.256  63.550  1.00  0.00     0.000 HD 
HETATM    6  O   UNL     1      -9.596  12.028  63.211  1.00  0.00    -0.327 OA 
HETATM    7  N   UNL     1     -11.833  12.389  63.166  1.00  0.00    -0.722 N  
HETATM    8  H1  UNL     1     -11.610  12.979  62.365  1.00  0.00     0.000 HD 
ENDBRANCH   3   4
ENDBRANCH   2   3
BRANCH   2   9
HETATM    9  C   UNL     1      -9.500   9.189  65.540  1.00  0.00    -0.206 C  
BRANCH   9  10
HETATM   10  N   UNL     1      -8.090   8.934  64.926  1.00  0.00    -0.135 N  
HETATM   11  C   UNL     1      -8.293   8.667  63.431  1.00  0.00    -0.129 C  
HETATM   12  C   UNL     1      -7.421   7.718  65.551  1.00  0.00    -0.076 C  
HETATM   13  C   UNL     1      -7.171  10.140  65.054  1.00  0.00    -0.139 C  
ENDBRANCH   9  10
ENDBRANCH   2   9
TORSDOF 4
ENDMDL
MODEL      117
REMARK 921   NORMALIZED FREE ENERGY PREDICTED BY IDOCK:   -2.35 KCAL/MOL
REMARK 922        TOTAL FREE ENERGY PREDICTED BY IDOCK:   -3.27 KCAL/MOL
REMARK 923 INTER-LIGAND FREE ENERGY PREDICTED BY IDOCK:   -2.96 KCAL/MOL
REMARK 924 INTRA-LIGAND FREE ENERGY PREDICTED BY IDOCK:   -0.30 KCAL/MOL
REMARK 927      BINDING AFFINITY PREDICTED BY RF-SCORE:    0.00 PKD
ROOT
HETATM    1  C   UNL     1      -7.036  20.362  65.075  1.00  0.00    -0.178 C  
HETATM    2  C   UNL     1      -7.416  19.237  66.043  1.00  0.00    -0.276 C  
ENDROOT
BRANCH   2   3
HETATM    3  O   UNL     1      -6.854  17.984  65.587  1.00  0.00    -0.391 OA 
BRANCH   3   4
HETATM    4  C   UNL     1      -6.325  17.141  66.502  1.00  0.00    -0.218 C  
HETATM    5  H2  UNL     1      -8.076  15.994  66.280  1.00  0.00     0.000 HD 
HETATM    6  O   UNL     1      -5.221  17.240  67.006  1.00  0.00    -0.127 OA 
HETATM    7  N   UNL     1      -7.170  16.116  66.731  1.00  0.00    -0.197 N  
HETATM    8  H1  UNL     1      -6.771  15.480  67.421  1.00  0.00     0.000 HD 
ENDBRANCH   3   4
ENDBRANCH   2   3
BRANCH   2   9
HETATM    9  C   UNL     1      -8.944  19.206  66.298  1.00  0.00    -0.309 C  
BRANCH   9  10
HETATM   10  N   UNL     1      -9.385  19.121  67.790  1.00  0.00    -0.299 N  
HETATM   11  C   UNL     1     -10.286  20.330  68.062  1.00  0.00    -0.242 C  
HETATM   12  C   UNL     1      -8.190  19.182  68.731  1.00  0.00    -0.347 C  
HETATM   13  C   UNL     1     -10.199  17.870  68.088  1.00  0.00    -0.382 C  
ENDBRANCH   9  10
ENDBRANCH   2   9
TORSDOF 4
ENDMDL
MODEL      118
REMARK 921   NORMALIZED FREE ENERGY PREDICTED BY IDOCK:   -2.33 KCAL/MOL
REMARK 922        TOTAL FREE ENERGY PREDICTED BY IDOCK:   -3.25 KCAL/MOL
REMARK 923 INTER-LIGAND FREE ENERGY PREDICTED BY IDOCK:   -3.50 KCAL/MOL
REMARK 924 INTRA-LIGAND FREE ENERGY PREDICTED BY IDOCK:    0.25 KCAL/MOL
REMARK 927      BINDING AFFINITY PREDICTED BY RF-SCORE:    0.00 PKD
ROOT
HETATM    1  C   UNL     1     -11.971  13.906  69.446  1.00  0.00    -0.402 C  
HETATM    2  C   UNL     1     -11.006  14.158  68.283  1.00  0.00    -0.251 C  
ENDROOT
BRANCH   2   3
HETATM    3  O   UNL     1     -10.777  12.927  67.557  1.00  0.00    -0.223 OA 
BRANCH   3   4
HETATM    4  C   UNL     1     -11.079  11.756  68.158  1.00  0.00    -0.243 C  
HETATM    5  H2  UNL     1      -9.194  11.886  69.088  1.00  0.00     0.000 HD 
HETATM    6  O   UNL     1     -12.134  11.156  68.058  1.00  0.00    -0.635 OA 
HETATM    7  N   UNL     1     -10.064  11.369  68.956  1.00  0.00    -0.379 N  
HETATM    8  H1  UNL     1     -10.292  10.485  69.410  1.00  0.00     0.000 HD 
ENDBRANCH   3   4
ENDBRANCH   2   3
BRANCH   2   9
HETATM    9  C   UNL     1      -9.719  14.874  68.765  1.00  0.00    -0.225 C  
BRANCH   9  10
HETATM   10  N   UNL     1      -9.318  16.159  67.979  1.00  0.00    -0.202 N  
HETATM   11  C   UNL     1     -10.572  17.036  67.884  1.00  0.00    -0.365 C  
HETATM   12  C   UNL     1      -8.847  15.828  66.571  1.00  0.00    -0.310 C  
HETATM   13  C   UNL     1      -8.247  16.971  68.694  1.00  0.00    -0.261 C  
ENDBRANCH   9  10
ENDBRANCH   2   9
TORSDOF 4
ENDMDL
MODEL      119
REMARK 921   NORMALIZED FREE ENERGY PREDICTED BY IDOCK:   -2.32 KCAL/MOL
REMARK 922        TOTAL FREE ENERGY PREDICTED BY IDOCK:   -3.23 KCAL/MOL
REMARK 923 INTER-LIGAND FREE ENERGY PREDICTED BY IDOCK:   -2.90 KCAL/MOL
REMARK 924 INTRA-LIGAND FREE ENERGY PREDICTED BY IDOCK:   -0.33 KCAL/MOL
REMARK 927      BINDING AFFINITY PREDICTED BY RF-SCORE:    0.00 PKD
ROOT
HETATM    1  C   UNL     1      -9.278  16.087  65.927  1.00  0.00    -0.321 C  
HETATM    2  C   UNL     1      -9.133  16.870  67.236  1.00  0.00    -0.218 C  
ENDROOT
BRANCH   2   3
HETATM    3  O   UNL     1      -9.306  15.981  68.365  1.00  0.00    -0.198 OA 
BRANCH   3   4
HETATM    4  C   UNL     1      -8.219  15.632  69.086  1.00  0.00    -0.248 C  
HETATM    5  H2  UNL     1      -9.107  13.732  69.280  1.00  0.00     0.000 HD 
HETATM    6  O   UNL     1      -7.248  16.336  69.296  1.00  0.00    -0.212 OA 
HETATM    7  N   UNL     1      -8.322  14.349  69.490  1.00  0.00    -0.339 N  
HETATM    8  H1  UNL     1      -7.502  14.085  70.034  1.00  0.00     0.000 HD 
ENDBRANCH   3   4
ENDBRANCH   2   3
BRANCH   2   9
HETATM    9  C   UNL     1     -10.049  18.119  67.249  1.00  0.00    -0.347 C  
BRANCH   9  10
HETATM   10  N   UNL     1      -9.398  19.438  67.765  1.00  0.00    -0.309 N  
HETATM   11  C   UNL     1      -7.904  19.361  67.432  1.00  0.00    -0.255 C  
HETATM   12  C   UNL     1      -9.555  19.586  69.271  1.00  0.00    -0.206 C  
HETATM   13  C   UNL     1      -9.956  20.674  67.073  1.00  0.00    -0.246 C  
ENDBRANCH   9  10
ENDBRANCH   2   9
TORSDOF 4
ENDMDL
MODEL      120
REMARK 921   NORMALIZED FREE ENERGY PREDICTED BY IDOCK:   -2.31 KCAL/MOL
REMARK 922        TOTAL FREE ENERGY PREDICTED BY IDOCK:   -3.23 KCAL/MOL
REMARK 923 INTER-LIGAND FREE ENERGY PREDICTED BY IDOCK:   -3.05 KCAL/MOL
REMARK 924 INTRA-LIGAND FREE ENERGY PREDICTED BY IDOCK:   -0.18 KCAL/MOL
REMARK 927      BINDING AFFINITY PREDICTED BY RF-SCORE:    0.00 PKD
ROOT
HETATM    1  C   UNL     1      -8.036  12.924  67.776  1.00  0.00    -0.166 C  
HETATM    2  C   UNL     1      -9.404  13.378  67.254  1.00  0.00    -0.233 C  
ENDROOT
BRANCH   2   3
HETATM    3  O   UNL     1      -9.790  12.573  66.116  1.00  0.00    -0.251 OA 
BRANCH   3   4
HETATM    4  C   UNL     1     -11.069  12.145  66.029  1.00  0.00    -0.313 C  
HETATM    5  H2  UNL     1     -10.991  11.871  68.115  1.00  0.00     0.000 HD 
HETATM    6  O   UNL     1     -11.744  12.122  65.016  1.00  0.00    -0.351 OA 
HETATM    7  N   UNL     1     -11.529  11.810  67.251  1.00  0.00    -0.316 N  
HETATM    8  H1  UNL     1     -12.495  11.488  67.186  1.00  0.00     0.000 HD 
ENDBRANCH   3   4
ENDBRANCH   2   3
BRANCH   2   9
HETATM    9  C   UNL     1      -9.431  14.907  67.005  1.00  0.00    -0.229 C  
BRANCH   9  10
HETATM   10  N   UNL     1     -10.245  15.751  68.031  1.00  0.00    -0.226 N  
HETATM   11  C   UNL     1      -9.477  15.708  69.357  1.00  0.00    -0.279 C  
HETATM   12  C   UNL     1     -11.635  15.172  68.254  1.00  0.00    -0.339 C  
HETATM   13  C   UNL     1     -10.365  17.212  67.622  1.00  0.00    -0.344 C  
ENDBRANCH   9  10
ENDBRANCH   2   9
TORSDOF 4
ENDMDL
MODEL      121
REMARK 921   NORMALIZED FREE ENERGY PREDICTED BY IDOCK:   -2.31 KCAL/MOL
REMARK 922        TOTAL FREE ENERGY PREDICTED BY IDOCK:   -3.23 KCAL/MOL
REMARK 923 INTER-LIGAND FREE ENERGY PREDICTED BY IDOCK:   -3.21 KCAL/MOL
REMARK 924 INTRA-LIGAND FREE ENERGY PREDICTED BY IDOCK:   -0.02 KCAL/MOL
REMARK 927      BINDING AFFINITY PREDICTED BY RF-SCORE:    0.00 PKD
ROOT
HETATM    1  C   UNL     1      -9.643   9.502  68.759  1.00  0.00    -0.159 C  
HETATM    2  C   UNL     1     -10.679   9.235  69.857  1.00  0.00    -0.234 C  
ENDROOT
BRANCH   2   3
HETATM    3  O   UNL     1     -11.203  10.489  70.355  1.00  0.00    -0.304 OA 
BRANCH   3   4
HETATM    4  C   UNL     1     -11.755  11.354  69.476  1.00  0.00    -0.348 C  
HETATM    5  H2  UNL     1     -10.737  12.874  70.518  1.00  0.00     0.000 HD 
HETATM    6  O   UNL     1     -12.455  11.053  68.526  1.00  0.00    -0.440 OA 
HETATM    7  N   UNL     1     -11.362  12.612  69.755  1.00  0.00    -0.496 N  
HETATM    8  H1  UNL     1     -11.778  13.265  69.092  1.00  0.00     0.000 HD 
ENDBRANCH   3   4
ENDBRANCH   2   3
BRANCH   2   9
HETATM    9  C   UNL     1     -10.112   8.292  70.948  1.00  0.00    -0.190 C  
BRANCH   9  10
HETATM   10  N   UNL     1     -10.509   6.790  70.824  1.00  0.00    -0.211 N  
HETATM   11  C   UNL     1     -11.330   6.438  72.070  1.00  0.00    -0.294 C  
HETATM   12  C   UNL     1      -9.283   5.890  70.778  1.00  0.00    -0.153 C  
HETATM   13  C   UNL     1     -11.385   6.515  69.610  1.00  0.00    -0.380 C  
ENDBRANCH   9  10
ENDBRANCH   2   9
TORSDOF 4
ENDMDL
MODEL      122
REMARK 921   NORMALIZED FREE ENERGY PREDICTED BY IDOCK:   -2.29 KCAL/MOL
REMARK 922        TOTAL FREE ENERGY PREDICTED BY IDOCK:   -3.21 KCAL/MOL
REMARK 923 INTER-LIGAND FREE ENERGY PREDICTED BY IDOCK:   -3.16 KCAL/MOL
REMARK 924 INTRA-LIGAND FREE ENERGY PREDICTED BY IDOCK:   -0.05 KCAL/MOL
REMARK 927      BINDING AFFINITY PREDICTED BY RF-SCORE:    0.00 PKD
ROOT
HETATM    1  C   UNL     1     -11.126  14.732  68.656  1.00  0.00    -0.274 C  
HETATM    2  C   UNL     1     -10.174  14.887  67.464  1.00  0.00    -0.233 C  
ENDROOT
BRANCH   2   3
HETATM    3  O   UNL     1     -10.453  13.869  66.475  1.00  0.00    -0.276 OA 
BRANCH   3   4
HETATM    4  C   UNL     1     -10.295  14.175  65.169  1.00  0.00    -0.405 C  
HETATM    5  H2  UNL     1      -9.590  12.207  64.916  1.00  0.00     0.000 HD 
HETATM    6  O   UNL     1     -10.604  15.229  64.643  1.00  0.00    -0.335 OA 
HETATM    7  N   UNL     1      -9.808  13.112  64.498  1.00  0.00    -0.608 N  
HETATM    8  H1  UNL     1      -9.689  13.343  63.512  1.00  0.00     0.000 HD 
ENDBRANCH   3   4
ENDBRANCH   2   3
BRANCH   2   9
HETATM    9  C   UNL     1      -8.698  14.952  67.929  1.00  0.00    -0.164 C  
BRANCH   9  10
HETATM   10  N   UNL     1      -8.045  16.367  67.932  1.00  0.00    -0.156 N  
HETATM   11  C   UNL     1      -9.041  17.319  68.603  1.00  0.00    -0.260 C  
HETATM   12  C   UNL     1      -7.776  16.861  66.518  1.00  0.00    -0.291 C  
HETATM   13  C   UNL     1      -6.755  16.414  68.739  1.00  0.00    -0.158 C  
ENDBRANCH   9  10
ENDBRANCH   2   9
TORSDOF 4
ENDMDL
MODEL      123
REMARK 921   NORMALIZED FREE ENERGY PREDICTED BY IDOCK:   -2.29 KCAL/MOL
REMARK 922        TOTAL FREE ENERGY PREDICTED BY IDOCK:   -3.20 KCAL/MOL
REMARK 923 INTER-LIGAND FREE ENERGY PREDICTED BY IDOCK:   -2.94 KCAL/MOL
REMARK 924 INTRA-LIGAND FREE ENERGY PREDICTED BY IDOCK:   -0.26 KCAL/MOL
REMARK 927      BINDING AFFINITY PREDICTED BY RF-SCORE:    0.00 PKD
ROOT
HETATM    1  C   UNL     1      -8.339  12.029  67.983  1.00  0.00    -0.162 C  
HETATM    2  C   UNL     1      -9.379  10.904  67.943  1.00  0.00    -0.156 C  
ENDROOT
BRANCH   2   3
HETATM    3  O   UNL     1     -10.181  10.930  69.147  1.00  0.00    -0.213 OA 
BRANCH   3   4
HETATM    4  C   UNL     1     -11.448  11.393  69.070  1.00  0.00    -0.300 C  
HETATM    5  H2  UNL     1     -11.192  12.071  71.047  1.00  0.00     0.000 HD 
HETATM    6  O   UNL     1     -12.163  11.350  68.085  1.00  0.00    -0.602 OA 
HETATM    7  N   UNL     1     -11.797  11.984  70.231  1.00  0.00    -0.502 N  
HETATM    8  H1  UNL     1     -12.753  12.333  70.173  1.00  0.00     0.000 HD 
ENDBRANCH   3   4
ENDBRANCH   2   3
BRANCH   2   9
HETATM    9  C   UNL     1      -8.718   9.537  67.635  1.00  0.00    -0.122 C  
BRANCH   9  10
HETATM   10  N   UNL     1      -9.310   8.748  66.429  1.00  0.00    -0.187 N  
HETATM   11  C   UNL     1      -8.159   7.949  65.807  1.00  0.00    -0.123 C  
HETATM   12  C   UNL     1      -9.878   9.686  65.373  1.00  0.00    -0.252 C  
HETATM   13  C   UNL     1     -10.381   7.753  66.850  1.00  0.00    -0.326 C  
ENDBRANCH   9  10
ENDBRANCH   2   9
TORSDOF 4
ENDMDL
MODEL      124
REMARK 921   NORMALIZED FREE ENERGY PREDICTED BY IDOCK:   -2.28 KCAL/MOL
REMARK 922        TOTAL FREE ENERGY PREDICTED BY IDOCK:   -3.19 KCAL/MOL
REMARK 923 INTER-LIGAND FREE ENERGY PREDICTED BY IDOCK:   -3.23 KCAL/MOL
REMARK 924 INTRA-LIGAND FREE ENERGY PREDICTED BY IDOCK:    0.04 KCAL/MOL
REMARK 927      BINDING AFFINITY PREDICTED BY RF-SCORE:    0.00 PKD
ROOT
HETATM    1  C   UNL     1     -11.245   6.211  69.328  1.00  0.00    -0.438 C  
HETATM    2  C   UNL     1     -11.351   6.374  70.848  1.00  0.00    -0.338 C  
ENDROOT
BRANCH   2   3
HETATM    3  O   UNL     1     -11.888   7.679  71.168  1.00  0.00    -0.286 OA 
BRANCH   3   4
HETATM    4  C   UNL     1     -11.131   8.770  70.918  1.00  0.00    -0.268 C  
HETATM    5  H2  UNL     1     -12.436   9.158  69.312  1.00  0.00     0.000 HD 
HETATM    6  O   UNL     1     -10.186   9.148  71.586  1.00  0.00    -0.336 OA 
HETATM    7  N   UNL     1     -11.616   9.436  69.851  1.00  0.00    -0.443 N  
HETATM    8  H1  UNL     1     -11.045  10.259  69.662  1.00  0.00     0.000 HD 
ENDBRANCH   3   4
ENDBRANCH   2   3
BRANCH   2   9
HETATM    9  C   UNL     1     -10.008   6.038  71.544  1.00  0.00    -0.177 C  
BRANCH   9  10
HETATM   10  N   UNL     1     -10.106   5.571  73.027  1.00  0.00    -0.175 N  
HETATM   11  C   UNL     1      -8.922   4.632  73.281  1.00  0.00    -0.112 C  
HETATM   12  C   UNL     1     -11.397   4.808  73.288  1.00  0.00    -0.322 C  
HETATM   13  C   UNL     1      -9.992   6.725  74.013  1.00  0.00    -0.336 C  
ENDBRANCH   9  10
ENDBRANCH   2   9
TORSDOF 4
ENDMDL
MODEL      125
REMARK 921   NORMALIZED FREE ENERGY PREDICTED BY IDOCK:   -2.27 KCAL/MOL
REMARK 922        TOTAL FREE ENERGY PREDICTED BY IDOCK:   -3.18 KCAL/MOL
REMARK 923 INTER-LIGAND FREE ENERGY PREDICTED BY IDOCK:   -2.92 KCAL/MOL
REMARK 924 INTRA-LIGAND FREE ENERGY PREDICTED BY IDOCK:   -0.26 KCAL/MOL
REMARK 927      BINDING AFFINITY PREDICTED BY RF-SCORE:    0.00 PKD
ROOT
HETATM    1  C   UNL     1      -9.230   8.557  72.068  1.00  0.00    -0.326 C  
HETATM    2  C   UNL     1     -10.229   8.216  70.957  1.00  0.00    -0.188 C  
ENDROOT
BRANCH   2   3
HETATM    3  O   UNL     1     -10.592   6.817  71.032  1.00  0.00    -0.217 OA 
BRANCH   3   4
HETATM    4  C   UNL     1     -11.815   6.491  71.504  1.00  0.00    -0.333 C  
HETATM    5  H2  UNL     1     -12.598   7.647  69.927  1.00  0.00     0.000 HD 
HETATM    6  O   UNL     1     -12.041   5.743  72.438  1.00  0.00    -0.249 OA 
HETATM    7  N   UNL     1     -12.772   7.058  70.742  1.00  0.00    -0.570 N  
HETATM    8  H1  UNL     1     -13.695   6.811  71.097  1.00  0.00     0.000 HD 
ENDBRANCH   3   4
ENDBRANCH   2   3
BRANCH   2   9
HETATM    9  C   UNL     1      -9.708   8.676  69.572  1.00  0.00    -0.179 C  
BRANCH   9  10
HETATM   10  N   UNL     1     -10.370   9.959  68.986  1.00  0.00    -0.198 N  
HETATM   11  C   UNL     1      -9.278  11.032  68.907  1.00  0.00    -0.129 C  
HETATM   12  C   UNL     1     -11.489  10.470  69.882  1.00  0.00    -0.310 C  
HETATM   13  C   UNL     1     -10.906   9.749  67.577  1.00  0.00    -0.220 C  
ENDBRANCH   9  10
ENDBRANCH   2   9
TORSDOF 4
ENDMDL
MODEL      126
REMARK 921   NORMALIZED FREE ENERGY PREDICTED BY IDOCK:   -2.26 KCAL/MOL
REMARK 922        TOTAL FREE ENERGY PREDICTED BY IDOCK:   -3.16 KCAL/MOL
REMARK 923 INTER-LIGAND FREE ENERGY PREDICTED BY IDOCK:   -3.01 KCAL/MOL
REMARK 924 INTRA-LIGAND FREE ENERGY PREDICTED BY IDOCK:   -0.15 KCAL/MOL
REMARK 927      BINDING AFFINITY PREDICTED BY RF-SCORE:    0.00 PKD
ROOT
HETATM    1  C   UNL     1     -12.542  10.076  71.172  1.00  0.00    -0.480 C  
HETATM    2  C   UNL     1     -11.174   9.443  70.891  1.00  0.00    -0.325 C  
ENDROOT
BRANCH   2   3
HETATM    3  O   UNL     1     -10.711   9.833  69.576  1.00  0.00    -0.213 OA 
BRANCH   3   4
HETATM    4  C   UNL     1     -10.118   8.903  68.797  1.00  0.00    -0.200 C  
HETATM    5  H2  UNL     1     -11.911   8.857  67.695  1.00  0.00     0.000 HD 
HETATM    6  O   UNL     1      -8.968   8.515  68.901  1.00  0.00    -0.144 OA 
HETATM    7  N   UNL     1     -10.963   8.506  67.824  1.00  0.00    -0.486 N  
HETATM    8  H1  UNL     1     -10.515   7.804  67.235  1.00  0.00     0.000 HD 
ENDBRANCH   3   4
ENDBRANCH   2   3
BRANCH   2   9
HETATM    9  C   UNL     1     -11.200   7.915  71.141  1.00  0.00    -0.261 C  
BRANCH   9  10
HETATM   10  N   UNL     1     -10.111   7.363  72.110  1.00  0.00    -0.186 N  
HETATM   11  C   UNL     1      -9.511   6.117  71.449  1.00  0.00    -0.156 C  
HETATM   12  C   UNL     1     -10.708   6.963  73.452  1.00  0.00    -0.324 C  
HETATM   13  C   UNL     1      -8.975   8.351  72.336  1.00  0.00    -0.239 C  
ENDBRANCH   9  10
ENDBRANCH   2   9
TORSDOF 4
ENDMDL
MODEL      127
REMARK 921   NORMALIZED FREE ENERGY PREDICTED BY IDOCK:   -2.26 KCAL/MOL
REMARK 922        TOTAL FREE ENERGY PREDICTED BY IDOCK:   -3.16 KCAL/MOL
REMARK 923 INTER-LIGAND FREE ENERGY PREDICTED BY IDOCK:   -2.78 KCAL/MOL
REMARK 924 INTRA-LIGAND FREE ENERGY PREDICTED BY IDOCK:   -0.38 KCAL/MOL
REMARK 927      BINDING AFFINITY PREDICTED BY RF-SCORE:    0.00 PKD
ROOT
HETATM    1  C   UNL     1     -10.976   6.615  68.500  1.00  0.00    -0.314 C  
HETATM    2  C   UNL     1     -10.796   6.360  70.001  1.00  0.00    -0.307 C  
ENDROOT
BRANCH   2   3
HETATM    3  O   UNL     1     -11.956   6.834  70.725  1.00  0.00    -0.374 OA 
BRANCH   3   4
HETATM    4  C   UNL     1     -11.984   6.692  72.068  1.00  0.00    -0.319 C  
HETATM    5  H2  UNL     1     -12.337   8.766  72.158  1.00  0.00     0.000 HD 
HETATM    6  O   UNL     1     -11.889   5.641  72.675  1.00  0.00    -0.283 OA 
HETATM    7  N   UNL     1     -12.207   7.885  72.655  1.00  0.00    -0.597 N  
HETATM    8  H1  UNL     1     -12.228   7.779  73.669  1.00  0.00     0.000 HD 
ENDBRANCH   3   4
ENDBRANCH   2   3
BRANCH   2   9
HETATM    9  C   UNL     1      -9.444   6.921  70.508  1.00  0.00    -0.169 C  
BRANCH   9  10
HETATM   10  N   UNL     1      -8.454   5.876  71.108  1.00  0.00    -0.123 N  
HETATM   11  C   UNL     1      -7.140   6.005  70.329  1.00  0.00    -0.074 C  
HETATM   12  C   UNL     1      -8.977   4.456  70.949  1.00  0.00    -0.112 C  
HETATM   13  C   UNL     1      -8.143   6.141  72.574  1.00  0.00    -0.104 C  
ENDBRANCH   9  10
ENDBRANCH   2   9
TORSDOF 4
ENDMDL
MODEL      128
REMARK 921   NORMALIZED FREE ENERGY PREDICTED BY IDOCK:   -2.25 KCAL/MOL
REMARK 922        TOTAL FREE ENERGY PREDICTED BY IDOCK:   -3.14 KCAL/MOL
REMARK 923 INTER-LIGAND FREE ENERGY PREDICTED BY IDOCK:   -2.84 KCAL/MOL
REMARK 924 INTRA-LIGAND FREE ENERGY PREDICTED BY IDOCK:   -0.31 KCAL/MOL
REMARK 927      BINDING AFFINITY PREDICTED BY RF-SCORE:    0.00 PKD
ROOT
HETATM    1  C   UNL     1     -10.850  15.282  65.535  1.00  0.00    -0.382 C  
HETATM    2  C   UNL     1      -9.906  15.379  66.738  1.00  0.00    -0.245 C  
ENDROOT
BRANCH   2   3
HETATM    3  O   UNL     1     -10.279  14.401  67.738  1.00  0.00    -0.228 OA 
BRANCH   3   4
HETATM    4  C   UNL     1      -9.382  13.451  68.081  1.00  0.00    -0.217 C  
HETATM    5  H2  UNL     1     -10.932  12.556  69.189  1.00  0.00     0.000 HD 
HETATM    6  O   UNL     1      -8.234  13.378  67.680  1.00  0.00    -0.151 OA 
HETATM    7  N   UNL     1      -9.959  12.535  68.884  1.00  0.00    -0.425 N  
HETATM    8  H1  UNL     1      -9.283  11.818  69.143  1.00  0.00     0.000 HD 
ENDBRANCH   3   4
ENDBRANCH   2   3
BRANCH   2   9
HETATM    9  C   UNL     1      -9.808  16.833  67.261  1.00  0.00    -0.260 C  
BRANCH   9  10
HETATM   10  N   UNL     1      -8.370  17.427  67.361  1.00  0.00    -0.203 N  
HETATM   11  C   UNL     1      -7.736  16.855  68.634  1.00  0.00    -0.235 C  
HETATM   12  C   UNL     1      -8.399  18.945  67.471  1.00  0.00    -0.273 C  
HETATM   13  C   UNL     1      -7.487  17.021  66.190  1.00  0.00    -0.220 C  
ENDBRANCH   9  10
ENDBRANCH   2   9
TORSDOF 4
ENDMDL
MODEL      129
REMARK 921   NORMALIZED FREE ENERGY PREDICTED BY IDOCK:   -2.24 KCAL/MOL
REMARK 922        TOTAL FREE ENERGY PREDICTED BY IDOCK:   -3.13 KCAL/MOL
REMARK 923 INTER-LIGAND FREE ENERGY PREDICTED BY IDOCK:   -3.00 KCAL/MOL
REMARK 924 INTRA-LIGAND FREE ENERGY PREDICTED BY IDOCK:   -0.14 KCAL/MOL
REMARK 927      BINDING AFFINITY PREDICTED BY RF-SCORE:    0.00 PKD
ROOT
HETATM    1  C   UNL     1      -8.424   8.070  73.707  1.00  0.00    -0.317 C  
HETATM    2  C   UNL     1      -9.494   7.246  72.983  1.00  0.00    -0.168 C  
ENDROOT
BRANCH   2   3
HETATM    3  O   UNL     1     -10.811   7.737  73.326  1.00  0.00    -0.383 OA 
BRANCH   3   4
HETATM    4  C   UNL     1     -11.515   8.409  72.389  1.00  0.00    -0.380 C  
HETATM    5  H2  UNL     1     -13.246   7.739  73.383  1.00  0.00     0.000 HD 
HETATM    6  O   UNL     1     -11.043   9.098  71.502  1.00  0.00    -0.313 OA 
HETATM    7  N   UNL     1     -12.837   8.272  72.616  1.00  0.00    -0.608 N  
HETATM    8  H1  UNL     1     -13.369   8.780  71.910  1.00  0.00     0.000 HD 
ENDBRANCH   3   4
ENDBRANCH   2   3
BRANCH   2   9
HETATM    9  C   UNL     1      -9.288   5.728  73.215  1.00  0.00    -0.135 C  
BRANCH   9  10
HETATM   10  N   UNL     1     -10.248   4.781  72.434  1.00  0.00    -0.189 N  
HETATM   11  C   UNL     1      -9.603   3.391  72.431  1.00  0.00    -0.133 C  
HETATM   12  C   UNL     1     -10.431   5.237  70.993  1.00  0.00    -0.203 C  
HETATM   13  C   UNL     1     -11.610   4.651  73.101  1.00  0.00    -0.165 C  
ENDBRANCH   9  10
ENDBRANCH   2   9
TORSDOF 4
ENDMDL
MODEL      130
REMARK 921   NORMALIZED FREE ENERGY PREDICTED BY IDOCK:   -2.23 KCAL/MOL
REMARK 922        TOTAL FREE ENERGY PREDICTED BY IDOCK:   -3.13 KCAL/MOL
REMARK 923 INTER-LIGAND FREE ENERGY PREDICTED BY IDOCK:   -2.87 KCAL/MOL
REMARK 924 INTRA-LIGAND FREE ENERGY PREDICTED BY IDOCK:   -0.25 KCAL/MOL
REMARK 927      BINDING AFFINITY PREDICTED BY RF-SCORE:    0.00 PKD
ROOT
HETATM    1  C   UNL     1      -9.691  16.488  65.975  1.00  0.00    -0.331 C  
HETATM    2  C   UNL     1      -9.032  17.430  66.989  1.00  0.00    -0.242 C  
ENDROOT
BRANCH   2   3
HETATM    3  O   UNL     1      -9.835  17.500  68.191  1.00  0.00    -0.279 OA 
BRANCH   3   4
HETATM    4  C   UNL     1      -9.779  16.473  69.067  1.00  0.00    -0.258 C  
HETATM    5  H2  UNL     1      -7.687  16.562  68.852  1.00  0.00     0.000 HD 
HETATM    6  O   UNL     1     -10.731  15.972  69.637  1.00  0.00    -0.265 OA 
HETATM    7  N   UNL     1      -8.497  16.119  69.285  1.00  0.00    -0.232 N  
HETATM    8  H1  UNL     1      -8.454  15.345  69.947  1.00  0.00     0.000 HD 
ENDBRANCH   3   4
ENDBRANCH   2   3
BRANCH   2   9
HETATM    9  C   UNL     1      -8.703  18.802  66.349  1.00  0.00    -0.286 C  
BRANCH   9  10
HETATM   10  N   UNL     1      -7.307  19.400  66.699  1.00  0.00    -0.221 N  
HETATM   11  C   UNL     1      -6.805  20.130  65.448  1.00  0.00    -0.306 C  
HETATM   12  C   UNL     1      -6.307  18.311  67.062  1.00  0.00    -0.173 C  
HETATM   13  C   UNL     1      -7.374  20.421  67.826  1.00  0.00    -0.281 C  
ENDBRANCH   9  10
ENDBRANCH   2   9
TORSDOF 4
ENDMDL
MODEL      131
REMARK 921   NORMALIZED FREE ENERGY PREDICTED BY IDOCK:   -2.19 KCAL/MOL
REMARK 922        TOTAL FREE ENERGY PREDICTED BY IDOCK:   -3.07 KCAL/MOL
REMARK 923 INTER-LIGAND FREE ENERGY PREDICTED BY IDOCK:   -4.05 KCAL/MOL
REMARK 924 INTRA-LIGAND FREE ENERGY PREDICTED BY IDOCK:    0.97 KCAL/MOL
REMARK 927      BINDING AFFINITY PREDICTED BY RF-SCORE:    0.00 PKD
ROOT
HETATM    1  C   UNL     1     -12.381  13.606  69.630  1.00  0.00    -0.257 C  
HETATM    2  C   UNL     1     -12.386  12.777  70.919  1.00  0.00    -0.265 C  
ENDROOT
BRANCH   2   3
HETATM    3  O   UNL     1     -12.713  11.400  70.618  1.00  0.00    -0.272 OA 
BRANCH   3   4
HETATM    4  C   UNL     1     -12.214  10.428  71.412  1.00  0.00    -0.362 C  
HETATM    5  H2  UNL     1     -14.093  10.406  72.362  1.00  0.00     0.000 HD 
HETATM    6  O   UNL     1     -11.108   9.927  71.314  1.00  0.00    -0.351 OA 
HETATM    7  N   UNL     1     -13.147  10.030  72.300  1.00  0.00    -0.509 N  
HETATM    8  H1  UNL     1     -12.770   9.296  72.899  1.00  0.00     0.000 HD 
ENDBRANCH   3   4
ENDBRANCH   2   3
BRANCH   2   9
HETATM    9  C   UNL     1     -13.277  13.432  72.004  1.00  0.00    -0.438 C  
BRANCH   9  10
HETATM   10  N   UNL     1     -12.966  14.923  72.334  1.00  0.00    -0.328 N  
HETATM   11  C   UNL     1     -12.467  14.968  73.782  1.00  0.00    -0.533 C  
HETATM   12  C   UNL     1     -14.211  15.791  72.221  1.00  0.00    -0.330 C  
HETATM   13  C   UNL     1     -11.866  15.499  71.454  1.00  0.00    -0.401 C  
ENDBRANCH   9  10
ENDBRANCH   2   9
TORSDOF 4
ENDMDL
MODEL      132
REMARK 921   NORMALIZED FREE ENERGY PREDICTED BY IDOCK:   -2.18 KCAL/MOL
REMARK 922        TOTAL FREE ENERGY PREDICTED BY IDOCK:   -3.06 KCAL/MOL
REMARK 923 INTER-LIGAND FREE ENERGY PREDICTED BY IDOCK:   -2.73 KCAL/MOL
REMARK 924 INTRA-LIGAND FREE ENERGY PREDICTED BY IDOCK:   -0.33 KCAL/MOL
REMARK 927      BINDING AFFINITY PREDICTED BY RF-SCORE:    0.00 PKD
ROOT
HETATM    1  C   UNL     1      -8.091   8.087  72.616  1.00  0.00    -0.197 C  
HETATM    2  C   UNL     1      -9.284   7.334  72.017  1.00  0.00    -0.132 C  
ENDROOT
BRANCH   2   3
HETATM    3  O   UNL     1      -9.437   6.052  72.673  1.00  0.00    -0.147 OA 
BRANCH   3   4
HETATM    4  C   UNL     1     -10.577   5.806  73.354  1.00  0.00    -0.258 C  
HETATM    5  H2  UNL     1     -11.087   7.816  72.988  1.00  0.00     0.000 HD 
HETATM    6  O   UNL     1     -10.917   4.728  73.806  1.00  0.00    -0.292 OA 
HETATM    7  N   UNL     1     -11.336   6.919  73.404  1.00  0.00    -0.470 N  
HETATM    8  H1  UNL     1     -12.197   6.734  73.918  1.00  0.00     0.000 HD 
ENDBRANCH   3   4
ENDBRANCH   2   3
BRANCH   2   9
HETATM    9  C   UNL     1      -9.186   7.263  70.473  1.00  0.00    -0.158 C  
BRANCH   9  10
HETATM   10  N   UNL     1     -10.472   7.663  69.689  1.00  0.00    -0.231 N  
HETATM   11  C   UNL     1     -11.408   6.450  69.715  1.00  0.00    -0.427 C  
HETATM   12  C   UNL     1     -10.159   8.006  68.239  1.00  0.00    -0.196 C  
HETATM   13  C   UNL     1     -11.213   8.825  70.335  1.00  0.00    -0.223 C  
ENDBRANCH   9  10
ENDBRANCH   2   9
TORSDOF 4
ENDMDL
MODEL      133
REMARK 921   NORMALIZED FREE ENERGY PREDICTED BY IDOCK:   -2.17 KCAL/MOL
REMARK 922        TOTAL FREE ENERGY PREDICTED BY IDOCK:   -3.05 KCAL/MOL
REMARK 923 INTER-LIGAND FREE ENERGY PREDICTED BY IDOCK:   -2.80 KCAL/MOL
REMARK 924 INTRA-LIGAND FREE ENERGY PREDICTED BY IDOCK:   -0.25 KCAL/MOL
REMARK 927      BINDING AFFINITY PREDICTED BY RF-SCORE:    0.00 PKD
ROOT
HETATM    1  C   UNL     1      -8.279   8.948  63.884  1.00  0.00    -0.171 C  
HETATM    2  C   UNL     1      -9.033  10.039  64.652  1.00  0.00    -0.214 C  
ENDROOT
BRANCH   2   3
HETATM    3  O   UNL     1      -9.261  11.180  63.791  1.00  0.00    -0.192 OA 
BRANCH   3   4
HETATM    4  C   UNL     1     -10.488  11.745  63.778  1.00  0.00    -0.416 C  
HETATM    5  H2  UNL     1     -10.991  10.330  62.302  1.00  0.00     0.000 HD 
HETATM    6  O   UNL     1     -10.864  12.646  64.505  1.00  0.00    -0.300 OA 
HETATM    7  N   UNL     1     -11.277  11.118  62.883  1.00  0.00    -0.700 N  
HETATM    8  H1  UNL     1     -12.203  11.544  62.872  1.00  0.00     0.000 HD 
ENDBRANCH   3   4
ENDBRANCH   2   3
BRANCH   2   9
HETATM    9  C   UNL     1      -8.331  10.370  65.993  1.00  0.00    -0.149 C  
BRANCH   9  10
HETATM   10  N   UNL     1      -8.924   9.684  67.261  1.00  0.00    -0.134 N  
HETATM   11  C   UNL     1      -8.826  10.697  68.407  1.00  0.00    -0.145 C  
HETATM   12  C   UNL     1      -8.137   8.439  67.642  1.00  0.00    -0.118 C  
HETATM   13  C   UNL     1     -10.394   9.323  67.097  1.00  0.00    -0.260 C  
ENDBRANCH   9  10
ENDBRANCH   2   9
TORSDOF 4
ENDMDL
MODEL      134
REMARK 921   NORMALIZED FREE ENERGY PREDICTED BY IDOCK:   -2.17 KCAL/MOL
REMARK 922        TOTAL FREE ENERGY PREDICTED BY IDOCK:   -3.05 KCAL/MOL
REMARK 923 INTER-LIGAND FREE ENERGY PREDICTED BY IDOCK:   -2.97 KCAL/MOL
REMARK 924 INTRA-LIGAND FREE ENERGY PREDICTED BY IDOCK:   -0.07 KCAL/MOL
REMARK 927      BINDING AFFINITY PREDICTED BY RF-SCORE:    0.00 PKD
ROOT
HETATM    1  C   UNL     1     -11.890  15.148  69.958  1.00  0.00    -0.361 C  
HETATM    2  C   UNL     1     -11.647  13.818  69.236  1.00  0.00    -0.312 C  
ENDROOT
BRANCH   2   3
HETATM    3  O   UNL     1     -11.447  12.761  70.204  1.00  0.00    -0.116 OA 
BRANCH   3   4
HETATM    4  C   UNL     1     -12.519  12.046  70.612  1.00  0.00    -0.247 C  
HETATM    5  H2  UNL     1     -11.800  10.494  69.385  1.00  0.00     0.000 HD 
HETATM    6  O   UNL     1     -13.344  12.408  71.432  1.00  0.00    -0.196 OA 
HETATM    7  N   UNL     1     -12.511  10.828  70.035  1.00  0.00    -0.416 N  
HETATM    8  H1  UNL     1     -13.320  10.289  70.343  1.00  0.00     0.000 HD 
ENDBRANCH   3   4
ENDBRANCH   2   3
BRANCH   2   9
HETATM    9  C   UNL     1     -10.522  13.949  68.179  1.00  0.00    -0.245 C  
BRANCH   9  10
HETATM   10  N   UNL     1     -10.985  13.992  66.691  1.00  0.00    -0.297 N  
HETATM   11  C   UNL     1     -11.041  12.542  66.197  1.00  0.00    -0.298 C  
HETATM   12  C   UNL     1     -10.004  14.765  65.823  1.00  0.00    -0.347 C  
HETATM   13  C   UNL     1     -12.379  14.583  66.530  1.00  0.00    -0.140 C  
ENDBRANCH   9  10
ENDBRANCH   2   9
TORSDOF 4
ENDMDL
MODEL      135
REMARK 921   NORMALIZED FREE ENERGY PREDICTED BY IDOCK:   -2.17 KCAL/MOL
REMARK 922        TOTAL FREE ENERGY PREDICTED BY IDOCK:   -3.05 KCAL/MOL
REMARK 923 INTER-LIGAND FREE ENERGY PREDICTED BY IDOCK:   -3.10 KCAL/MOL
REMARK 924 INTRA-LIGAND FREE ENERGY PREDICTED BY IDOCK:    0.06 KCAL/MOL
REMARK 927      BINDING AFFINITY PREDICTED BY RF-SCORE:    0.00 PKD
ROOT
HETATM    1  C   UNL     1      -7.544  17.306  66.156  1.00  0.00    -0.318 C  
HETATM    2  C   UNL     1      -8.798  16.792  66.873  1.00  0.00    -0.218 C  
ENDROOT
BRANCH   2   3
HETATM    3  O   UNL     1      -8.882  17.373  68.195  1.00  0.00    -0.238 OA 
BRANCH   3   4
HETATM    4  C   UNL     1      -7.738  17.721  68.823  1.00  0.00    -0.252 C  
HETATM    5  H2  UNL     1      -8.467  19.696  68.801  1.00  0.00     0.000 HD 
HETATM    6  O   UNL     1      -6.866  16.954  69.190  1.00  0.00    -0.219 OA 
HETATM    7  N   UNL     1      -7.723  19.048  69.058  1.00  0.00    -0.296 N  
HETATM    8  H1  UNL     1      -6.859  19.311  69.533  1.00  0.00     0.000 HD 
ENDBRANCH   3   4
ENDBRANCH   2   3
BRANCH   2   9
HETATM    9  C   UNL     1      -8.871  15.245  66.839  1.00  0.00    -0.254 C  
BRANCH   9  10
HETATM   10  N   UNL     1     -10.257  14.636  66.469  1.00  0.00    -0.271 N  
HETATM   11  C   UNL     1     -10.742  15.357  65.207  1.00  0.00    -0.421 C  
HETATM   12  C   UNL     1     -11.277  14.853  67.578  1.00  0.00    -0.328 C  
HETATM   13  C   UNL     1     -10.174  13.151  66.142  1.00  0.00    -0.290 C  
ENDBRANCH   9  10
ENDBRANCH   2   9
TORSDOF 4
ENDMDL
MODEL      136
REMARK 921   NORMALIZED FREE ENERGY PREDICTED BY IDOCK:   -2.15 KCAL/MOL
REMARK 922        TOTAL FREE ENERGY PREDICTED BY IDOCK:   -3.03 KCAL/MOL
REMARK 923 INTER-LIGAND FREE ENERGY PREDICTED BY IDOCK:   -2.73 KCAL/MOL
REMARK 924 INTRA-LIGAND FREE ENERGY PREDICTED BY IDOCK:   -0.29 KCAL/MOL
REMARK 927      BINDING AFFINITY PREDICTED BY RF-SCORE:    0.00 PKD
ROOT
HETATM    1  C   UNL     1      -8.733   8.642  70.149  1.00  0.00    -0.144 C  
HETATM    2  C   UNL     1      -9.538   7.805  71.150  1.00  0.00    -0.158 C  
ENDROOT
BRANCH   2   3
HETATM    3  O   UNL     1     -10.955   8.014  70.940  1.00  0.00    -0.234 OA 
BRANCH   3   4
HETATM    4  C   UNL     1     -11.709   6.969  70.532  1.00  0.00    -0.312 C  
HETATM    5  H2  UNL     1     -13.378   8.075  71.183  1.00  0.00     0.000 HD 
HETATM    6  O   UNL     1     -11.296   5.968  69.975  1.00  0.00    -0.384 OA 
HETATM    7  N   UNL     1     -13.013   7.221  70.763  1.00  0.00    -0.592 N  
HETATM    8  H1  UNL     1     -13.582   6.433  70.455  1.00  0.00     0.000 HD 
ENDBRANCH   3   4
ENDBRANCH   2   3
BRANCH   2   9
HETATM    9  C   UNL     1      -9.057   8.049  72.602  1.00  0.00    -0.227 C  
BRANCH   9  10
HETATM   10  N   UNL     1      -8.791   6.773  73.456  1.00  0.00    -0.126 N  
HETATM   11  C   UNL     1      -9.985   6.609  74.403  1.00  0.00    -0.332 C  
HETATM   12  C   UNL     1      -7.525   6.912  74.290  1.00  0.00    -0.100 C  
HETATM   13  C   UNL     1      -8.703   5.511  72.610  1.00  0.00    -0.123 C  
ENDBRANCH   9  10
ENDBRANCH   2   9
TORSDOF 4
ENDMDL
MODEL      137
REMARK 921   NORMALIZED FREE ENERGY PREDICTED BY IDOCK:   -2.15 KCAL/MOL
REMARK 922        TOTAL FREE ENERGY PREDICTED BY IDOCK:   -3.02 KCAL/MOL
REMARK 923 INTER-LIGAND FREE ENERGY PREDICTED BY IDOCK:   -2.96 KCAL/MOL
REMARK 924 INTRA-LIGAND FREE ENERGY PREDICTED BY IDOCK:   -0.06 KCAL/MOL
REMARK 927      BINDING AFFINITY PREDICTED BY RF-SCORE:    0.00 PKD
ROOT
HETATM    1  C   UNL     1     -11.719   6.499  70.215  1.00  0.00    -0.430 C  
HETATM    2  C   UNL     1     -10.544   7.465  70.402  1.00  0.00    -0.228 C  
ENDROOT
BRANCH   2   3
HETATM    3  O   UNL     1      -9.729   7.038  71.519  1.00  0.00    -0.166 OA 
BRANCH   3   4
HETATM    4  C   UNL     1      -9.754   7.769  72.655  1.00  0.00    -0.218 C  
HETATM    5  H2  UNL     1     -11.344   6.534  73.272  1.00  0.00     0.000 HD 
HETATM    6  O   UNL     1      -8.982   8.667  72.941  1.00  0.00    -0.343 OA 
HETATM    7  N   UNL     1     -10.722   7.316  73.477  1.00  0.00    -0.473 N  
HETATM    8  H1  UNL     1     -10.741   7.867  74.334  1.00  0.00     0.000 HD 
ENDBRANCH   3   4
ENDBRANCH   2   3
BRANCH   2   9
HETATM    9  C   UNL     1     -11.030   8.933  70.479  1.00  0.00    -0.241 C  
BRANCH   9  10
HETATM   10  N   UNL     1     -10.444   9.903  69.409  1.00  0.00    -0.216 N  
HETATM   11  C   UNL     1     -10.595   9.214  68.048  1.00  0.00    -0.197 C  
HETATM   12  C   UNL     1      -8.968  10.179  69.654  1.00  0.00    -0.169 C  
HETATM   13  C   UNL     1     -11.201  11.222  69.338  1.00  0.00    -0.280 C  
ENDBRANCH   9  10
ENDBRANCH   2   9
TORSDOF 4
ENDMDL
MODEL      138
REMARK 921   NORMALIZED FREE ENERGY PREDICTED BY IDOCK:   -2.13 KCAL/MOL
REMARK 922        TOTAL FREE ENERGY PREDICTED BY IDOCK:   -3.00 KCAL/MOL
REMARK 923 INTER-LIGAND FREE ENERGY PREDICTED BY IDOCK:   -3.01 KCAL/MOL
REMARK 924 INTRA-LIGAND FREE ENERGY PREDICTED BY IDOCK:    0.01 KCAL/MOL
REMARK 927      BINDING AFFINITY PREDICTED BY RF-SCORE:    0.00 PKD
ROOT
HETATM    1  C   UNL     1     -12.680  11.141  70.541  1.00  0.00    -0.302 C  
HETATM    2  C   UNL     1     -11.247  11.049  70.003  1.00  0.00    -0.224 C  
ENDROOT
BRANCH   2   3
HETATM    3  O   UNL     1     -10.923  12.246  69.258  1.00  0.00    -0.195 OA 
BRANCH   3   4
HETATM    4  C   UNL     1     -11.794  12.680  68.320  1.00  0.00    -0.306 C  
HETATM    5  H2  UNL     1     -11.958  14.443  69.460  1.00  0.00     0.000 HD 
HETATM    6  O   UNL     1     -12.095  12.087  67.300  1.00  0.00    -0.572 OA 
HETATM    7  N   UNL     1     -12.238  13.914  68.635  1.00  0.00    -0.487 N  
HETATM    8  H1  UNL     1     -12.895  14.241  67.927  1.00  0.00     0.000 HD 
ENDBRANCH   3   4
ENDBRANCH   2   3
BRANCH   2   9
HETATM    9  C   UNL     1     -11.021   9.725  69.232  1.00  0.00    -0.193 C  
BRANCH   9  10
HETATM   10  N   UNL     1      -9.866   8.819  69.756  1.00  0.00    -0.183 N  
HETATM   11  C   UNL     1      -8.622   9.706  69.882  1.00  0.00    -0.203 C  
HETATM   12  C   UNL     1      -9.561   7.686  68.787  1.00  0.00    -0.153 C  
HETATM   13  C   UNL     1     -10.155   8.242  71.134  1.00  0.00    -0.191 C  
ENDBRANCH   9  10
ENDBRANCH   2   9
TORSDOF 4
ENDMDL
MODEL      139
REMARK 921   NORMALIZED FREE ENERGY PREDICTED BY IDOCK:   -2.11 KCAL/MOL
REMARK 922        TOTAL FREE ENERGY PREDICTED BY IDOCK:   -2.98 KCAL/MOL
REMARK 923 INTER-LIGAND FREE ENERGY PREDICTED BY IDOCK:   -2.73 KCAL/MOL
REMARK 924 INTRA-LIGAND FREE ENERGY PREDICTED BY IDOCK:   -0.25 KCAL/MOL
REMARK 927      BINDING AFFINITY PREDICTED BY RF-SCORE:    0.00 PKD
ROOT
HETATM    1  C   UNL     1      -9.182  11.396  68.560  1.00  0.00    -0.174 C  
HETATM    2  C   UNL     1     -10.011  10.116  68.407  1.00  0.00    -0.156 C  
ENDROOT
BRANCH   2   3
HETATM    3  O   UNL     1     -10.854  10.211  67.235  1.00  0.00    -0.271 OA 
BRANCH   3   4
HETATM    4  C   UNL     1     -10.282  10.099  66.016  1.00  0.00    -0.218 C  
HETATM    5  H2  UNL     1      -9.984   8.066  66.476  1.00  0.00     0.000 HD 
HETATM    6  O   UNL     1     -10.196  10.986  65.186  1.00  0.00    -0.260 OA 
HETATM    7  N   UNL     1      -9.875   8.831  65.810  1.00  0.00    -0.458 N  
HETATM    8  H1  UNL     1      -9.443   8.746  64.890  1.00  0.00     0.000 HD 
ENDBRANCH   3   4
ENDBRANCH   2   3
BRANCH   2   9
HETATM    9  C   UNL     1     -10.762   9.773  69.718  1.00  0.00    -0.256 C  
BRANCH   9  10
HETATM   10  N   UNL     1     -10.363   8.431  70.403  1.00  0.00    -0.201 N  
HETATM   11  C   UNL     1      -9.935   8.768  71.835  1.00  0.00    -0.331 C  
HETATM   12  C   UNL     1      -9.195   7.766  69.689  1.00  0.00    -0.153 C  
HETATM   13  C   UNL     1     -11.525   7.452  70.492  1.00  0.00    -0.255 C  
ENDBRANCH   9  10
ENDBRANCH   2   9
TORSDOF 4
ENDMDL
MODEL      140
REMARK 921   NORMALIZED FREE ENERGY PREDICTED BY IDOCK:   -2.09 KCAL/MOL
REMARK 922        TOTAL FREE ENERGY PREDICTED BY IDOCK:   -2.95 KCAL/MOL
REMARK 923 INTER-LIGAND FREE ENERGY PREDICTED BY IDOCK:   -2.58 KCAL/MOL
REMARK 924 INTRA-LIGAND FREE ENERGY PREDICTED BY IDOCK:   -0.37 KCAL/MOL
REMARK 927      BINDING AFFINITY PREDICTED BY RF-SCORE:    0.00 PKD
ROOT
HETATM    1  C   UNL     1      -9.324   8.385  72.491  1.00  0.00    -0.346 C  
HETATM    2  C   UNL     1      -9.812   7.044  71.932  1.00  0.00    -0.163 C  
ENDROOT
BRANCH   2   3
HETATM    3  O   UNL     1     -10.173   6.159  73.019  1.00  0.00    -0.181 OA 
BRANCH   3   4
HETATM    4  C   UNL     1     -11.366   5.527  72.970  1.00  0.00    -0.266 C  
HETATM    5  H2  UNL     1     -12.098   7.242  71.993  1.00  0.00     0.000 HD 
HETATM    6  O   UNL     1     -11.586   4.392  73.354  1.00  0.00    -0.282 OA 
HETATM    7  N   UNL     1     -12.280   6.310  72.363  1.00  0.00    -0.540 N  
HETATM    8  H1  UNL     1     -13.181   5.833  72.326  1.00  0.00     0.000 HD 
ENDBRANCH   3   4
ENDBRANCH   2   3
BRANCH   2   9
HETATM    9  C   UNL     1      -8.795   6.451  70.925  1.00  0.00    -0.136 C  
BRANCH   9  10
HETATM   10  N   UNL     1      -9.380   5.991  69.556  1.00  0.00    -0.135 N  
HETATM   11  C   UNL     1     -10.488   6.983  69.185  1.00  0.00    -0.207 C  
HETATM   12  C   UNL     1      -9.984   4.597  69.647  1.00  0.00    -0.211 C  
HETATM   13  C   UNL     1      -8.347   6.023  68.439  1.00  0.00    -0.113 C  
ENDBRANCH   9  10
ENDBRANCH   2   9
TORSDOF 4
ENDMDL
MODEL      141
REMARK 921   NORMALIZED FREE ENERGY PREDICTED BY IDOCK:   -2.07 KCAL/MOL
REMARK 922        TOTAL FREE ENERGY PREDICTED BY IDOCK:   -2.93 KCAL/MOL
REMARK 923 INTER-LIGAND FREE ENERGY PREDICTED BY IDOCK:   -2.55 KCAL/MOL
REMARK 924 INTRA-LIGAND FREE ENERGY PREDICTED BY IDOCK:   -0.37 KCAL/MOL
REMARK 927      BINDING AFFINITY PREDICTED BY RF-SCORE:    0.00 PKD
ROOT
HETATM    1  C   UNL     1      -7.818   8.379  66.852  1.00  0.00    -0.095 C  
HETATM    2  C   UNL     1      -9.070   8.375  67.736  1.00  0.00    -0.135 C  
ENDROOT
BRANCH   2   3
HETATM    3  O   UNL     1      -9.232   9.667  68.368  1.00  0.00    -0.133 OA 
BRANCH   3   4
HETATM    4  C   UNL     1     -10.463  10.033  68.786  1.00  0.00    -0.208 C  
HETATM    5  H2  UNL     1     -11.036   9.978  66.760  1.00  0.00     0.000 HD 
HETATM    6  O   UNL     1     -10.806  10.180  69.945  1.00  0.00    -0.257 OA 
HETATM    7  N   UNL     1     -11.296  10.146  67.732  1.00  0.00    -0.453 N  
HETATM    8  H1  UNL     1     -12.226  10.422  68.047  1.00  0.00     0.000 HD 
ENDBRANCH   3   4
ENDBRANCH   2   3
BRANCH   2   9
HETATM    9  C   UNL     1      -9.065   7.173  68.713  1.00  0.00    -0.134 C  
BRANCH   9  10
HETATM   10  N   UNL     1     -10.209   6.133  68.522  1.00  0.00    -0.167 N  
HETATM   11  C   UNL     1     -11.170   6.299  69.705  1.00  0.00    -0.437 C  
HETATM   12  C   UNL     1      -9.675   4.708  68.525  1.00  0.00    -0.142 C  
HETATM   13  C   UNL     1     -11.009   6.371  67.249  1.00  0.00    -0.392 C  
ENDBRANCH   9  10
ENDBRANCH   2   9
TORSDOF 4
ENDMDL
MODEL      142
REMARK 921   NORMALIZED FREE ENERGY PREDICTED BY IDOCK:   -2.07 KCAL/MOL
REMARK 922        TOTAL FREE ENERGY PREDICTED BY IDOCK:   -2.92 KCAL/MOL
REMARK 923 INTER-LIGAND FREE ENERGY PREDICTED BY IDOCK:   -2.64 KCAL/MOL
REMARK 924 INTRA-LIGAND FREE ENERGY PREDICTED BY IDOCK:   -0.28 KCAL/MOL
REMARK 927      BINDING AFFINITY PREDICTED BY RF-SCORE:    0.00 PKD
ROOT
HETATM    1  C   UNL     1      -9.347   7.691  66.399  1.00  0.00    -0.228 C  
HETATM    2  C   UNL     1      -9.941   8.274  67.687  1.00  0.00    -0.190 C  
ENDROOT
BRANCH   2   3
HETATM    3  O   UNL     1     -10.693   7.256  68.388  1.00  0.00    -0.189 OA 
BRANCH   3   4
HETATM    4  C   UNL     1     -10.801   7.342  69.732  1.00  0.00    -0.234 C  
HETATM    5  H2  UNL     1     -12.592   6.252  69.537  1.00  0.00     0.000 HD 
HETATM    6  O   UNL     1      -9.983   7.845  70.481  1.00  0.00    -0.189 OA 
HETATM    7  N   UNL     1     -11.923   6.720  70.147  1.00  0.00    -0.639 N  
HETATM    8  H1  UNL     1     -12.005   6.785  71.162  1.00  0.00     0.000 HD 
ENDBRANCH   3   4
ENDBRANCH   2   3
BRANCH   2   9
HETATM    9  C   UNL     1     -10.726   9.579  67.403  1.00  0.00    -0.227 C  
BRANCH   9  10
HETATM   10  N   UNL     1      -9.994  10.907  67.762  1.00  0.00    -0.173 N  
HETATM   11  C   UNL     1      -9.610  11.580  66.440  1.00  0.00    -0.209 C  
HETATM   12  C   UNL     1      -8.726  10.648  68.564  1.00  0.00    -0.141 C  
HETATM   13  C   UNL     1     -10.885  11.877  68.525  1.00  0.00    -0.221 C  
ENDBRANCH   9  10
ENDBRANCH   2   9
TORSDOF 4
ENDMDL
MODEL      143
REMARK 921   NORMALIZED FREE ENERGY PREDICTED BY IDOCK:   -2.03 KCAL/MOL
REMARK 922        TOTAL FREE ENERGY PREDICTED BY IDOCK:   -2.87 KCAL/MOL
REMARK 923 INTER-LIGAND FREE ENERGY PREDICTED BY IDOCK:   -2.83 KCAL/MOL
REMARK 924 INTRA-LIGAND FREE ENERGY PREDICTED BY IDOCK:   -0.04 KCAL/MOL
REMARK 927      BINDING AFFINITY PREDICTED BY RF-SCORE:    0.00 PKD
ROOT
HETATM    1  C   UNL     1      -9.240  16.404  66.025  1.00  0.00    -0.328 C  
HETATM    2  C   UNL     1      -8.195  17.202  66.812  1.00  0.00    -0.240 C  
ENDROOT
BRANCH   2   3
HETATM    3  O   UNL     1      -8.586  17.290  68.202  1.00  0.00    -0.227 OA 
BRANCH   3   4
HETATM    4  C   UNL     1      -9.303  18.362  68.606  1.00  0.00    -0.318 C  
HETATM    5  H2  UNL     1     -11.020  17.203  68.233  1.00  0.00     0.000 HD 
HETATM    6  O   UNL     1      -8.842  19.406  69.032  1.00  0.00    -0.350 OA 
HETATM    7  N   UNL     1     -10.621  18.090  68.541  1.00  0.00    -0.338 N  
HETATM    8  H1  UNL     1     -11.162  18.898  68.846  1.00  0.00     0.000 HD 
ENDBRANCH   3   4
ENDBRANCH   2   3
BRANCH   2   9
HETATM    9  C   UNL     1      -7.901  18.564  66.134  1.00  0.00    -0.204 C  
BRANCH   9  10
HETATM   10  N   UNL     1      -6.396  18.941  65.985  1.00  0.00    -0.191 N  
HETATM   11  C   UNL     1      -5.602  17.630  65.993  1.00  0.00    -0.187 C  
HETATM   12  C   UNL     1      -5.919  19.806  67.143  1.00  0.00    -0.176 C  
HETATM   13  C   UNL     1      -6.098  19.647  64.670  1.00  0.00    -0.269 C  
ENDBRANCH   9  10
ENDBRANCH   2   9
TORSDOF 4
ENDMDL
MODEL      144
REMARK 921   NORMALIZED FREE ENERGY PREDICTED BY IDOCK:   -1.99 KCAL/MOL
REMARK 922        TOTAL FREE ENERGY PREDICTED BY IDOCK:   -2.83 KCAL/MOL
REMARK 923 INTER-LIGAND FREE ENERGY PREDICTED BY IDOCK:   -2.55 KCAL/MOL
REMARK 924 INTRA-LIGAND FREE ENERGY PREDICTED BY IDOCK:   -0.28 KCAL/MOL
REMARK 927      BINDING AFFINITY PREDICTED BY RF-SCORE:    0.00 PKD
ROOT
HETATM    1  C   UNL     1      -8.127  12.566  68.000  1.00  0.00    -0.164 C  
HETATM    2  C   UNL     1      -8.878  13.845  67.612  1.00  0.00    -0.191 C  
ENDROOT
BRANCH   2   3
HETATM    3  O   UNL     1      -8.479  14.933  68.479  1.00  0.00    -0.149 OA 
BRANCH   3   4
HETATM    4  C   UNL     1      -7.319  15.575  68.221  1.00  0.00    -0.115 C  
HETATM    5  H2  UNL     1      -8.048  15.855  66.266  1.00  0.00     0.000 HD 
HETATM    6  O   UNL     1      -6.438  15.804  69.030  1.00  0.00    -0.118 OA 
HETATM    7  N   UNL     1      -7.298  15.998  66.942  1.00  0.00    -0.221 N  
HETATM    8  H1  UNL     1      -6.422  16.482  66.747  1.00  0.00     0.000 HD 
ENDBRANCH   3   4
ENDBRANCH   2   3
BRANCH   2   9
HETATM    9  C   UNL     1     -10.405  13.600  67.540  1.00  0.00    -0.241 C  
BRANCH   9  10
HETATM   10  N   UNL     1     -11.040  13.663  66.118  1.00  0.00    -0.294 N  
HETATM   11  C   UNL     1     -10.827  12.291  65.470  1.00  0.00    -0.282 C  
HETATM   12  C   UNL     1     -10.370  14.720  65.253  1.00  0.00    -0.398 C  
HETATM   13  C   UNL     1     -12.540  13.919  66.159  1.00  0.00    -0.380 C  
ENDBRANCH   9  10
ENDBRANCH   2   9
TORSDOF 4
ENDMDL
MODEL      145
REMARK 921   NORMALIZED FREE ENERGY PREDICTED BY IDOCK:   -1.98 KCAL/MOL
REMARK 922        TOTAL FREE ENERGY PREDICTED BY IDOCK:   -2.82 KCAL/MOL
REMARK 923 INTER-LIGAND FREE ENERGY PREDICTED BY IDOCK:   -2.56 KCAL/MOL
REMARK 924 INTRA-LIGAND FREE ENERGY PREDICTED BY IDOCK:   -0.26 KCAL/MOL
REMARK 927      BINDING AFFINITY PREDICTED BY RF-SCORE:    0.00 PKD
ROOT
HETATM    1  C   UNL     1      -9.348   7.032  68.556  1.00  0.00    -0.135 C  
HETATM    2  C   UNL     1     -10.143   6.650  69.809  1.00  0.00    -0.182 C  
ENDROOT
BRANCH   2   3
HETATM    3  O   UNL     1     -10.574   5.271  69.718  1.00  0.00    -0.307 OA 
BRANCH   3   4
HETATM    4  C   UNL     1      -9.952   4.347  70.482  1.00  0.00    -0.185 C  
HETATM    5  H2  UNL     1     -10.644   5.434  72.147  1.00  0.00     0.000 HD 
HETATM    6  O   UNL     1      -9.374   3.357  70.072  1.00  0.00    -0.143 OA 
HETATM    7  N   UNL     1     -10.122   4.635  71.788  1.00  0.00    -0.191 N  
HETATM    8  H1  UNL     1      -9.652   3.938  72.365  1.00  0.00     0.000 HD 
ENDBRANCH   3   4
ENDBRANCH   2   3
BRANCH   2   9
HETATM    9  C   UNL     1     -11.279   7.666  70.086  1.00  0.00    -0.180 C  
BRANCH   9  10
HETATM   10  N   UNL     1     -11.065   8.613  71.305  1.00  0.00    -0.255 N  
HETATM   11  C   UNL     1     -11.110  10.049  70.771  1.00  0.00    -0.334 C  
HETATM   12  C   UNL     1      -9.712   8.380  71.963  1.00  0.00    -0.283 C  
HETATM   13  C   UNL     1     -12.164   8.480  72.349  1.00  0.00    -0.366 C  
ENDBRANCH   9  10
ENDBRANCH   2   9
TORSDOF 4
ENDMDL
MODEL      146
REMARK 921   NORMALIZED FREE ENERGY PREDICTED BY IDOCK:   -1.92 KCAL/MOL
REMARK 922        TOTAL FREE ENERGY PREDICTED BY IDOCK:   -2.74 KCAL/MOL
REMARK 923 INTER-LIGAND FREE ENERGY PREDICTED BY IDOCK:   -2.32 KCAL/MOL
REMARK 924 INTRA-LIGAND FREE ENERGY PREDICTED BY IDOCK:   -0.42 KCAL/MOL
REMARK 927      BINDING AFFINITY PREDICTED BY RF-SCORE:    0.00 PKD
ROOT
HETATM    1  C   UNL     1      -8.234   6.684  68.848  1.00  0.00    -0.120 C  
HETATM    2  C   UNL     1      -9.287   6.598  69.959  1.00  0.00    -0.158 C  
ENDROOT
BRANCH   2   3
HETATM    3  O   UNL     1     -10.161   7.750  69.899  1.00  0.00    -0.203 OA 
BRANCH   3   4
HETATM    4  C   UNL     1     -11.334   7.707  70.569  1.00  0.00    -0.250 C  
HETATM    5  H2  UNL     1     -11.886   6.152  69.262  1.00  0.00     0.000 HD 
HETATM    6  O   UNL     1     -11.620   8.378  71.545  1.00  0.00    -0.261 OA 
HETATM    7  N   UNL     1     -12.132   6.754  70.048  1.00  0.00    -0.638 N  
HETATM    8  H1  UNL     1     -13.016   6.722  70.554  1.00  0.00     0.000 HD 
ENDBRANCH   3   4
ENDBRANCH   2   3
BRANCH   2   9
HETATM    9  C   UNL     1      -8.629   6.355  71.340  1.00  0.00    -0.130 C  
BRANCH   9  10
HETATM   10  N   UNL     1      -9.115   5.094  72.115  1.00  0.00    -0.135 N  
HETATM   11  C   UNL     1      -7.867   4.402  72.674  1.00  0.00    -0.086 C  
HETATM   12  C   UNL     1      -9.842   4.121  71.198  1.00  0.00    -0.174 C  
HETATM   13  C   UNL     1     -10.011   5.442  73.296  1.00  0.00    -0.170 C  
ENDBRANCH   9  10
ENDBRANCH   2   9
TORSDOF 4
ENDMDL
MODEL      147
REMARK 921   NORMALIZED FREE ENERGY PREDICTED BY IDOCK:   -1.88 KCAL/MOL
REMARK 922        TOTAL FREE ENERGY PREDICTED BY IDOCK:   -2.69 KCAL/MOL
REMARK 923 INTER-LIGAND FREE ENERGY PREDICTED BY IDOCK:   -2.39 KCAL/MOL
REMARK 924 INTRA-LIGAND FREE ENERGY PREDICTED BY IDOCK:   -0.30 KCAL/MOL
REMARK 927      BINDING AFFINITY PREDICTED BY RF-SCORE:    0.00 PKD
ROOT
HETATM    1  C   UNL     1     -10.954   6.763  67.605  1.00  0.00    -0.346 C  
HETATM    2  C   UNL     1     -10.406   7.155  68.982  1.00  0.00    -0.199 C  
ENDROOT
BRANCH   2   3
HETATM    3  O   UNL     1     -10.678   8.553  69.241  1.00  0.00    -0.213 OA 
BRANCH   3   4
HETATM    4  C   UNL     1     -11.146   8.906  70.458  1.00  0.00    -0.251 C  
HETATM    5  H2  UNL     1     -12.933   7.931  69.920  1.00  0.00     0.000 HD 
HETATM    6  O   UNL     1     -10.514   9.486  71.323  1.00  0.00    -0.320 OA 
HETATM    7  N   UNL     1     -12.408   8.459  70.617  1.00  0.00    -0.479 N  
HETATM    8  H1  UNL     1     -12.762   8.725  71.535  1.00  0.00     0.000 HD 
ENDBRANCH   3   4
ENDBRANCH   2   3
BRANCH   2   9
HETATM    9  C   UNL     1      -8.919   6.747  69.133  1.00  0.00    -0.132 C  
BRANCH   9  10
HETATM   10  N   UNL     1      -8.632   5.563  70.105  1.00  0.00    -0.119 N  
HETATM   11  C   UNL     1      -9.676   5.639  71.225  1.00  0.00    -0.167 C  
HETATM   12  C   UNL     1      -7.246   5.670  70.722  1.00  0.00    -0.079 C  
HETATM   13  C   UNL     1      -8.783   4.205  69.433  1.00  0.00    -0.084 C  
ENDBRANCH   9  10
ENDBRANCH   2   9
TORSDOF 4
ENDMDL
MODEL      148
REMARK 921   NORMALIZED FREE ENERGY PREDICTED BY IDOCK:   -1.84 KCAL/MOL
REMARK 922        TOTAL FREE ENERGY PREDICTED BY IDOCK:   -2.65 KCAL/MOL
REMARK 923 INTER-LIGAND FREE ENERGY PREDICTED BY IDOCK:   -2.64 KCAL/MOL
REMARK 924 INTRA-LIGAND FREE ENERGY PREDICTED BY IDOCK:   -0.00 KCAL/MOL
REMARK 927      BINDING AFFINITY PREDICTED BY RF-SCORE:    0.00 PKD
ROOT
HETATM    1  C   UNL     1      -9.053   9.433  64.593  1.00  0.00    -0.228 C  
HETATM    2  C   UNL     1      -8.992  10.772  65.336  1.00  0.00    -0.194 C  
ENDROOT
BRANCH   2   3
HETATM    3  O   UNL     1      -8.046  10.687  66.428  1.00  0.00    -0.136 OA 
BRANCH   3   4
HETATM    4  C   UNL     1      -8.520  10.545  67.685  1.00  0.00    -0.115 C  
HETATM    5  H2  UNL     1      -8.499   8.470  67.330  1.00  0.00     0.000 HD 
HETATM    6  O   UNL     1      -8.706  11.447  68.482  1.00  0.00    -0.152 OA 
HETATM    7  N   UNL     1      -8.696   9.239  67.970  1.00  0.00    -0.125 N  
HETATM    8  H1  UNL     1      -9.054   9.132  68.918  1.00  0.00     0.000 HD 
ENDBRANCH   3   4
ENDBRANCH   2   3
BRANCH   2   9
HETATM    9  C   UNL     1     -10.407  11.256  65.741  1.00  0.00    -0.258 C  
BRANCH   9  10
HETATM   10  N   UNL     1     -10.884  12.589  65.091  1.00  0.00    -0.280 N  
HETATM   11  C   UNL     1     -12.378  12.731  65.402  1.00  0.00    -0.470 C  
HETATM   12  C   UNL     1     -10.701  12.571  63.580  1.00  0.00    -0.376 C  
HETATM   13  C   UNL     1     -10.180  13.807  65.671  1.00  0.00    -0.313 C  
ENDBRANCH   9  10
ENDBRANCH   2   9
TORSDOF 4
ENDMDL
MODEL      149
REMARK 921   NORMALIZED FREE ENERGY PREDICTED BY IDOCK:   -1.84 KCAL/MOL
REMARK 922        TOTAL FREE ENERGY PREDICTED BY IDOCK:   -2.65 KCAL/MOL
REMARK 923 INTER-LIGAND FREE ENERGY PREDICTED BY IDOCK:   -2.37 KCAL/MOL
REMARK 924 INTRA-LIGAND FREE ENERGY PREDICTED BY IDOCK:   -0.27 KCAL/MOL
REMARK 927      BINDING AFFINITY PREDICTED BY RF-SCORE:    0.00 PKD
ROOT
HETATM    1  C   UNL     1      -9.047   5.218  70.750  1.00  0.00    -0.168 C  
HETATM    2  C   UNL     1      -9.467   6.665  70.471  1.00  0.00    -0.166 C  
ENDROOT
BRANCH   2   3
HETATM    3  O   UNL     1     -10.307   7.150  71.545  1.00  0.00    -0.202 OA 
BRANCH   3   4
HETATM    4  C   UNL     1     -10.077   8.387  72.038  1.00  0.00    -0.294 C  
HETATM    5  H2  UNL     1     -12.080   8.820  71.558  1.00  0.00     0.000 HD 
HETATM    6  O   UNL     1      -9.041   8.765  72.556  1.00  0.00    -0.367 OA 
HETATM    7  N   UNL     1     -11.192   9.138  71.944  1.00  0.00    -0.370 N  
HETATM    8  H1  UNL     1     -11.018  10.071  72.317  1.00  0.00     0.000 HD 
ENDBRANCH   3   4
ENDBRANCH   2   3
BRANCH   2   9
HETATM    9  C   UNL     1     -10.079   6.810  69.055  1.00  0.00    -0.164 C  
BRANCH   9  10
HETATM   10  N   UNL     1      -9.416   7.876  68.131  1.00  0.00    -0.146 N  
HETATM   11  C   UNL     1     -10.530   8.819  67.664  1.00  0.00    -0.244 C  
HETATM   12  C   UNL     1      -8.776   7.235  66.909  1.00  0.00    -0.126 C  
HETATM   13  C   UNL     1      -8.381   8.719  68.861  1.00  0.00    -0.127 C  
ENDBRANCH   9  10
ENDBRANCH   2   9
TORSDOF 4
ENDMDL
MODEL      150
REMARK 921   NORMALIZED FREE ENERGY PREDICTED BY IDOCK:   -1.83 KCAL/MOL
REMARK 922        TOTAL FREE ENERGY PREDICTED BY IDOCK:   -2.64 KCAL/MOL
REMARK 923 INTER-LIGAND FREE ENERGY PREDICTED BY IDOCK:   -2.36 KCAL/MOL
REMARK 924 INTRA-LIGAND FREE ENERGY PREDICTED BY IDOCK:   -0.27 KCAL/MOL
REMARK 927      BINDING AFFINITY PREDICTED BY RF-SCORE:    0.00 PKD
ROOT
HETATM    1  C   UNL     1      -7.996   8.037  72.085  1.00  0.00    -0.154 C  
HETATM    2  C   UNL     1      -9.215   8.081  71.158  1.00  0.00    -0.149 C  
ENDROOT
BRANCH   2   3
HETATM    3  O   UNL     1     -10.401   7.681  71.884  1.00  0.00    -0.193 OA 
BRANCH   3   4
HETATM    4  C   UNL     1     -11.461   8.519  71.904  1.00  0.00    -0.335 C  
HETATM    5  H2  UNL     1     -12.598   6.871  72.555  1.00  0.00     0.000 HD 
HETATM    6  O   UNL     1     -11.429   9.712  71.664  1.00  0.00    -0.380 OA 
HETATM    7  N   UNL     1     -12.566   7.858  72.303  1.00  0.00    -0.506 N  
HETATM    8  H1  UNL     1     -13.366   8.490  72.319  1.00  0.00     0.000 HD 
ENDBRANCH   3   4
ENDBRANCH   2   3
BRANCH   2   9
HETATM    9  C   UNL     1      -8.957   7.289  69.852  1.00  0.00    -0.142 C  
BRANCH   9  10
HETATM   10  N   UNL     1      -9.155   8.079  68.524  1.00  0.00    -0.137 N  
HETATM   11  C   UNL     1      -8.278   7.403  67.464  1.00  0.00    -0.113 C  
HETATM   12  C   UNL     1      -8.716   9.529  68.666  1.00  0.00    -0.127 C  
HETATM   13  C   UNL     1     -10.592   8.032  68.024  1.00  0.00    -0.128 C  
ENDBRANCH   9  10
ENDBRANCH   2   9
TORSDOF 4
ENDMDL
MODEL      151
REMARK 921   NORMALIZED FREE ENERGY PREDICTED BY IDOCK:   -1.83 KCAL/MOL
REMARK 922        TOTAL FREE ENERGY PREDICTED BY IDOCK:   -2.63 KCAL/MOL
REMARK 923 INTER-LIGAND FREE ENERGY PREDICTED BY IDOCK:   -2.28 KCAL/MOL
REMARK 924 INTRA-LIGAND FREE ENERGY PREDICTED BY IDOCK:   -0.34 KCAL/MOL
REMARK 927      BINDING AFFINITY PREDICTED BY RF-SCORE:    0.00 PKD
ROOT
HETATM    1  C   UNL     1     -11.092   7.616  72.910  1.00  0.00    -0.448 C  
HETATM    2  C   UNL     1     -10.609   7.378  71.475  1.00  0.00    -0.206 C  
ENDROOT
BRANCH   2   3
HETATM    3  O   UNL     1     -11.581   7.893  70.535  1.00  0.00    -0.247 OA 
BRANCH   3   4
HETATM    4  C   UNL     1     -11.282   9.016  69.845  1.00  0.00    -0.079 C  
HETATM    5  H2  UNL     1     -12.832   9.947  70.924  1.00  0.00     0.000 HD 
HETATM    6  O   UNL     1     -10.371   9.138  69.046  1.00  0.00    -0.206 OA 
HETATM    7  N   UNL     1     -12.097  10.022  70.221  1.00  0.00    -0.448 N  
HETATM    8  H1  UNL     1     -11.872  10.869  69.701  1.00  0.00     0.000 HD 
ENDBRANCH   3   4
ENDBRANCH   2   3
BRANCH   2   9
HETATM    9  C   UNL     1     -10.217   5.895  71.253  1.00  0.00    -0.210 C  
BRANCH   9  10
HETATM   10  N   UNL     1      -8.912   5.650  70.438  1.00  0.00    -0.139 N  
HETATM   11  C   UNL     1      -9.300   5.665  68.955  1.00  0.00    -0.120 C  
HETATM   12  C   UNL     1      -8.294   4.298  70.766  1.00  0.00    -0.078 C  
HETATM   13  C   UNL     1      -7.876   6.744  70.649  1.00  0.00    -0.105 C  
ENDBRANCH   9  10
ENDBRANCH   2   9
TORSDOF 4
ENDMDL
MODEL      152
REMARK 921   NORMALIZED FREE ENERGY PREDICTED BY IDOCK:   -1.82 KCAL/MOL
REMARK 922        TOTAL FREE ENERGY PREDICTED BY IDOCK:   -2.62 KCAL/MOL
REMARK 923 INTER-LIGAND FREE ENERGY PREDICTED BY IDOCK:   -3.23 KCAL/MOL
REMARK 924 INTRA-LIGAND FREE ENERGY PREDICTED BY IDOCK:    0.61 KCAL/MOL
REMARK 927      BINDING AFFINITY PREDICTED BY RF-SCORE:    0.00 PKD
ROOT
HETATM    1  C   UNL     1      -9.197  11.714  67.533  1.00  0.00    -0.172 C  
HETATM    2  C   UNL     1     -10.533  11.101  67.098  1.00  0.00    -0.231 C  
ENDROOT
BRANCH   2   3
HETATM    3  O   UNL     1     -10.322  10.193  65.991  1.00  0.00    -0.232 OA 
BRANCH   3   4
HETATM    4  C   UNL     1      -9.903   8.936  66.255  1.00  0.00    -0.285 C  
HETATM    5  H2  UNL     1     -11.468   8.839  67.660  1.00  0.00     0.000 HD 
HETATM    6  O   UNL     1      -9.001   8.352  65.683  1.00  0.00    -0.179 OA 
HETATM    7  N   UNL     1     -10.679   8.379  67.206  1.00  0.00    -0.462 N  
HETATM    8  H1  UNL     1     -10.363   7.431  67.406  1.00  0.00     0.000 HD 
ENDBRANCH   3   4
ENDBRANCH   2   3
BRANCH   2   9
HETATM    9  C   UNL     1     -11.598  12.197  66.843  1.00  0.00    -0.341 C  
BRANCH   9  10
HETATM   10  N   UNL     1     -11.581  12.848  65.428  1.00  0.00    -0.334 N  
HETATM   11  C   UNL     1     -12.683  13.913  65.411  1.00  0.00    -0.490 C  
HETATM   12  C   UNL     1     -11.875  11.826  64.339  1.00  0.00    -0.188 C  
HETATM   13  C   UNL     1     -10.265  13.549  65.122  1.00  0.00    -0.316 C  
ENDBRANCH   9  10
ENDBRANCH   2   9
TORSDOF 4
ENDMDL
MODEL      153
REMARK 921   NORMALIZED FREE ENERGY PREDICTED BY IDOCK:   -1.82 KCAL/MOL
REMARK 922        TOTAL FREE ENERGY PREDICTED BY IDOCK:   -2.62 KCAL/MOL
REMARK 923 INTER-LIGAND FREE ENERGY PREDICTED BY IDOCK:   -2.32 KCAL/MOL
REMARK 924 INTRA-LIGAND FREE ENERGY PREDICTED BY IDOCK:   -0.30 KCAL/MOL
REMARK 927      BINDING AFFINITY PREDICTED BY RF-SCORE:    0.00 PKD
ROOT
HETATM    1  C   UNL     1      -8.749  10.202  69.573  1.00  0.00    -0.189 C  
HETATM    2  C   UNL     1      -9.748   9.087  69.903  1.00  0.00    -0.183 C  
ENDROOT
BRANCH   2   3
HETATM    3  O   UNL     1     -10.382   9.355  71.175  1.00  0.00    -0.301 OA 
BRANCH   3   4
HETATM    4  C   UNL     1     -11.463   8.623  71.526  1.00  0.00    -0.295 C  
HETATM    5  H2  UNL     1     -10.461   8.232  73.336  1.00  0.00     0.000 HD 
HETATM    6  O   UNL     1     -12.482   8.500  70.870  1.00  0.00    -0.162 OA 
HETATM    7  N   UNL     1     -11.288   8.098  72.755  1.00  0.00    -0.388 N  
HETATM    8  H1  UNL     1     -12.104   7.546  73.020  1.00  0.00     0.000 HD 
ENDBRANCH   3   4
ENDBRANCH   2   3
BRANCH   2   9
HETATM    9  C   UNL     1      -9.088   7.690  69.789  1.00  0.00    -0.147 C  
BRANCH   9  10
HETATM   10  N   UNL     1      -9.510   6.835  68.556  1.00  0.00    -0.132 N  
HETATM   11  C   UNL     1     -10.599   7.620  67.816  1.00  0.00    -0.196 C  
HETATM   12  C   UNL     1     -10.081   5.489  68.978  1.00  0.00    -0.205 C  
HETATM   13  C   UNL     1      -8.364   6.615  67.578  1.00  0.00    -0.121 C  
ENDBRANCH   9  10
ENDBRANCH   2   9
TORSDOF 4
ENDMDL
MODEL      154
REMARK 921   NORMALIZED FREE ENERGY PREDICTED BY IDOCK:   -1.80 KCAL/MOL
REMARK 922        TOTAL FREE ENERGY PREDICTED BY IDOCK:   -2.60 KCAL/MOL
REMARK 923 INTER-LIGAND FREE ENERGY PREDICTED BY IDOCK:   -2.82 KCAL/MOL
REMARK 924 INTRA-LIGAND FREE ENERGY PREDICTED BY IDOCK:    0.22 KCAL/MOL
REMARK 927      BINDING AFFINITY PREDICTED BY RF-SCORE:    0.00 PKD
ROOT
HETATM    1  C   UNL     1      -9.474   9.629  65.299  1.00  0.00    -0.342 C  
HETATM    2  C   UNL     1      -9.571  10.036  66.774  1.00  0.00    -0.181 C  
ENDROOT
BRANCH   2   3
HETATM    3  O   UNL     1      -9.263   8.902  67.619  1.00  0.00    -0.136 OA 
BRANCH   3   4
HETATM    4  C   UNL     1      -9.822   7.707  67.328  1.00  0.00    -0.186 C  
HETATM    5  H2  UNL     1     -11.445   8.311  68.525  1.00  0.00     0.000 HD 
HETATM    6  O   UNL     1      -9.356   6.868  66.579  1.00  0.00    -0.159 OA 
HETATM    7  N   UNL     1     -11.021   7.597  67.934  1.00  0.00    -0.484 N  
HETATM    8  H1  UNL     1     -11.443   6.695  67.715  1.00  0.00     0.000 HD 
ENDBRANCH   3   4
ENDBRANCH   2   3
BRANCH   2   9
HETATM    9  C   UNL     1     -10.926  10.721  67.079  1.00  0.00    -0.227 C  
BRANCH   9  10
HETATM   10  N   UNL     1     -10.860  11.994  67.976  1.00  0.00    -0.206 N  
HETATM   11  C   UNL     1     -11.695  13.076  67.282  1.00  0.00    -0.375 C  
HETATM   12  C   UNL     1      -9.432  12.500  68.123  1.00  0.00    -0.214 C  
HETATM   13  C   UNL     1     -11.462  11.770  69.355  1.00  0.00    -0.307 C  
ENDBRANCH   9  10
ENDBRANCH   2   9
TORSDOF 4
ENDMDL
MODEL      155
REMARK 921   NORMALIZED FREE ENERGY PREDICTED BY IDOCK:   -1.76 KCAL/MOL
REMARK 922        TOTAL FREE ENERGY PREDICTED BY IDOCK:   -2.54 KCAL/MOL
REMARK 923 INTER-LIGAND FREE ENERGY PREDICTED BY IDOCK:   -3.26 KCAL/MOL
REMARK 924 INTRA-LIGAND FREE ENERGY PREDICTED BY IDOCK:    0.72 KCAL/MOL
REMARK 927      BINDING AFFINITY PREDICTED BY RF-SCORE:    0.00 PKD
ROOT
HETATM    1  C   UNL     1     -11.789  13.830  69.911  1.00  0.00    -0.394 C  
HETATM    2  C   UNL     1     -11.671  13.278  68.486  1.00  0.00    -0.352 C  
ENDROOT
BRANCH   2   3
HETATM    3  O   UNL     1     -10.450  12.513  68.353  1.00  0.00    -0.229 OA 
BRANCH   3   4
HETATM    4  C   UNL     1     -10.497  11.178  68.555  1.00  0.00    -0.191 C  
HETATM    5  H2  UNL     1      -8.865  11.439  69.859  1.00  0.00     0.000 HD 
HETATM    6  O   UNL     1     -11.323  10.417  68.086  1.00  0.00    -0.289 OA 
HETATM    7  N   UNL     1      -9.533  10.806  69.420  1.00  0.00    -0.413 N  
HETATM    8  H1  UNL     1      -9.569   9.798  69.573  1.00  0.00     0.000 HD 
ENDBRANCH   3   4
ENDBRANCH   2   3
BRANCH   2   9
HETATM    9  C   UNL     1     -11.850  14.399  67.432  1.00  0.00    -0.400 C  
BRANCH   9  10
HETATM   10  N   UNL     1     -10.538  15.024  66.870  1.00  0.00    -0.291 N  
HETATM   11  C   UNL     1      -9.969  14.031  65.850  1.00  0.00    -0.307 C  
HETATM   12  C   UNL     1      -9.506  15.238  67.968  1.00  0.00    -0.198 C  
HETATM   13  C   UNL     1     -10.781  16.337  66.140  1.00  0.00    -0.197 C  
ENDBRANCH   9  10
ENDBRANCH   2   9
TORSDOF 4
ENDMDL
MODEL      156
REMARK 921   NORMALIZED FREE ENERGY PREDICTED BY IDOCK:   -1.74 KCAL/MOL
REMARK 922        TOTAL FREE ENERGY PREDICTED BY IDOCK:   -2.52 KCAL/MOL
REMARK 923 INTER-LIGAND FREE ENERGY PREDICTED BY IDOCK:   -2.72 KCAL/MOL
REMARK 924 INTRA-LIGAND FREE ENERGY PREDICTED BY IDOCK:    0.20 KCAL/MOL
REMARK 927      BINDING AFFINITY PREDICTED BY RF-SCORE:    0.00 PKD
ROOT
HETATM    1  C   UNL     1      -8.384   7.307  67.624  1.00  0.00    -0.117 C  
HETATM    2  C   UNL     1      -9.708   8.051  67.828  1.00  0.00    -0.156 C  
ENDROOT
BRANCH   2   3
HETATM    3  O   UNL     1     -10.774   7.102  68.067  1.00  0.00    -0.207 OA 
BRANCH   3   4
HETATM    4  C   UNL     1     -10.648   5.849  67.576  1.00  0.00    -0.273 C  
HETATM    5  H2  UNL     1     -11.566   6.573  65.825  1.00  0.00     0.000 HD 
HETATM    6  O   UNL     1     -10.104   4.916  68.138  1.00  0.00    -0.141 OA 
HETATM    7  N   UNL     1     -11.151   5.789  66.327  1.00  0.00    -0.755 N  
HETATM    8  H1  UNL     1     -11.056   4.844  65.956  1.00  0.00     0.000 HD 
ENDBRANCH   3   4
ENDBRANCH   2   3
BRANCH   2   9
HETATM    9  C   UNL     1      -9.976   9.048  66.673  1.00  0.00    -0.278 C  
BRANCH   9  10
HETATM   10  N   UNL     1      -9.781  10.556  67.015  1.00  0.00    -0.173 N  
HETATM   11  C   UNL     1      -8.520  11.023  66.278  1.00  0.00    -0.165 C  
HETATM   12  C   UNL     1      -9.579  10.769  68.508  1.00  0.00    -0.183 C  
HETATM   13  C   UNL     1     -10.937  11.420  66.532  1.00  0.00    -0.272 C  
ENDBRANCH   9  10
ENDBRANCH   2   9
TORSDOF 4
ENDMDL
MODEL      157
REMARK 921   NORMALIZED FREE ENERGY PREDICTED BY IDOCK:   -1.73 KCAL/MOL
REMARK 922        TOTAL FREE ENERGY PREDICTED BY IDOCK:   -2.51 KCAL/MOL
REMARK 923 INTER-LIGAND FREE ENERGY PREDICTED BY IDOCK:   -2.77 KCAL/MOL
REMARK 924 INTRA-LIGAND FREE ENERGY PREDICTED BY IDOCK:    0.27 KCAL/MOL
REMARK 927      BINDING AFFINITY PREDICTED BY RF-SCORE:    0.00 PKD
ROOT
HETATM    1  C   UNL     1     -11.904  13.759  69.618  1.00  0.00    -0.393 C  
HETATM    2  C   UNL     1     -11.443  12.952  68.399  1.00  0.00    -0.312 C  
ENDROOT
BRANCH   2   3
HETATM    3  O   UNL     1     -10.481  11.951  68.806  1.00  0.00    -0.212 OA 
BRANCH   3   4
HETATM    4  C   UNL     1      -9.199  12.081  68.398  1.00  0.00    -0.160 C  
HETATM    5  H2  UNL     1      -9.620  10.571  66.992  1.00  0.00     0.000 HD 
HETATM    6  O   UNL     1      -8.397  12.893  68.821  1.00  0.00    -0.020 OA 
HETATM    7  N   UNL     1      -8.945  11.223  67.390  1.00  0.00    -0.143 N  
HETATM    8  H1  UNL     1      -7.978  11.322  67.081  1.00  0.00     0.000 HD 
ENDBRANCH   3   4
ENDBRANCH   2   3
BRANCH   2   9
HETATM    9  C   UNL     1     -10.965  13.882  67.256  1.00  0.00    -0.290 C  
BRANCH   9  10
HETATM   10  N   UNL     1     -11.522  13.561  65.837  1.00  0.00    -0.313 N  
HETATM   11  C   UNL     1     -13.032  13.825  65.877  1.00  0.00    -0.185 C  
HETATM   12  C   UNL     1     -11.292  12.104  65.462  1.00  0.00    -0.344 C  
HETATM   13  C   UNL     1     -10.931  14.460  64.760  1.00  0.00    -0.397 C  
ENDBRANCH   9  10
ENDBRANCH   2   9
TORSDOF 4
ENDMDL
MODEL      158
REMARK 921   NORMALIZED FREE ENERGY PREDICTED BY IDOCK:   -1.72 KCAL/MOL
REMARK 922        TOTAL FREE ENERGY PREDICTED BY IDOCK:   -2.49 KCAL/MOL
REMARK 923 INTER-LIGAND FREE ENERGY PREDICTED BY IDOCK:   -2.46 KCAL/MOL
REMARK 924 INTRA-LIGAND FREE ENERGY PREDICTED BY IDOCK:   -0.04 KCAL/MOL
REMARK 927      BINDING AFFINITY PREDICTED BY RF-SCORE:    0.00 PKD
ROOT
HETATM    1  C   UNL     1      -7.325   7.360  67.326  1.00  0.00    -0.098 C  
HETATM    2  C   UNL     1      -8.648   7.700  68.022  1.00  0.00    -0.123 C  
ENDROOT
BRANCH   2   3
HETATM    3  O   UNL     1      -9.415   6.492  68.240  1.00  0.00    -0.121 OA 
BRANCH   3   4
HETATM    4  C   UNL     1     -10.730   6.496  67.930  1.00  0.00    -0.287 C  
HETATM    5  H2  UNL     1     -11.065   7.193  69.889  1.00  0.00     0.000 HD 
HETATM    6  O   UNL     1     -11.206   6.226  66.842  1.00  0.00    -0.335 OA 
HETATM    7  N   UNL     1     -11.454   6.917  68.987  1.00  0.00    -0.549 N  
HETATM    8  H1  UNL     1     -12.446   6.920  68.753  1.00  0.00     0.000 HD 
ENDBRANCH   3   4
ENDBRANCH   2   3
BRANCH   2   9
HETATM    9  C   UNL     1      -9.407   8.822  67.270  1.00  0.00    -0.147 C  
BRANCH   9  10
HETATM   10  N   UNL     1      -9.499  10.194  68.004  1.00  0.00    -0.144 N  
HETATM   11  C   UNL     1     -10.947  10.677  67.871  1.00  0.00    -0.295 C  
HETATM   12  C   UNL     1      -8.580  11.229  67.371  1.00  0.00    -0.136 C  
HETATM   13  C   UNL     1      -9.189  10.083  69.490  1.00  0.00    -0.221 C  
ENDBRANCH   9  10
ENDBRANCH   2   9
TORSDOF 4
ENDMDL
MODEL      159
REMARK 921   NORMALIZED FREE ENERGY PREDICTED BY IDOCK:   -1.71 KCAL/MOL
REMARK 922        TOTAL FREE ENERGY PREDICTED BY IDOCK:   -2.48 KCAL/MOL
REMARK 923 INTER-LIGAND FREE ENERGY PREDICTED BY IDOCK:   -2.24 KCAL/MOL
REMARK 924 INTRA-LIGAND FREE ENERGY PREDICTED BY IDOCK:   -0.24 KCAL/MOL
REMARK 927      BINDING AFFINITY PREDICTED BY RF-SCORE:    0.00 PKD
ROOT
HETATM    1  C   UNL     1     -10.512   7.815  68.215  1.00  0.00    -0.215 C  
HETATM    2  C   UNL     1     -10.172   7.269  69.607  1.00  0.00    -0.211 C  
ENDROOT
BRANCH   2   3
HETATM    3  O   UNL     1     -10.689   8.160  70.625  1.00  0.00    -0.216 OA 
BRANCH   3   4
HETATM    4  C   UNL     1     -11.636   7.696  71.470  1.00  0.00    -0.274 C  
HETATM    5  H2  UNL     1     -10.656   8.792  72.977  1.00  0.00     0.000 HD 
HETATM    6  O   UNL     1     -12.588   7.004  71.160  1.00  0.00    -0.377 OA 
HETATM    7  N   UNL     1     -11.421   8.172  72.712  1.00  0.00    -0.422 N  
HETATM    8  H1  UNL     1     -12.136   7.823  73.350  1.00  0.00     0.000 HD 
ENDBRANCH   3   4
ENDBRANCH   2   3
BRANCH   2   9
HETATM    9  C   UNL     1      -8.662   6.949  69.733  1.00  0.00    -0.141 C  
BRANCH   9  10
HETATM   10  N   UNL     1      -8.280   5.439  69.703  1.00  0.00    -0.098 N  
HETATM   11  C   UNL     1      -7.002   5.283  70.535  1.00  0.00    -0.052 C  
HETATM   12  C   UNL     1      -7.999   4.962  68.285  1.00  0.00    -0.086 C  
HETATM   13  C   UNL     1      -9.345   4.554  70.333  1.00  0.00    -0.146 C  
ENDBRANCH   9  10
ENDBRANCH   2   9
TORSDOF 4
ENDMDL
MODEL      160
REMARK 921   NORMALIZED FREE ENERGY PREDICTED BY IDOCK:   -1.68 KCAL/MOL
REMARK 922        TOTAL FREE ENERGY PREDICTED BY IDOCK:   -2.45 KCAL/MOL
REMARK 923 INTER-LIGAND FREE ENERGY PREDICTED BY IDOCK:   -2.17 KCAL/MOL
REMARK 924 INTRA-LIGAND FREE ENERGY PREDICTED BY IDOCK:   -0.28 KCAL/MOL
REMARK 927      BINDING AFFINITY PREDICTED BY RF-SCORE:    0.00 PKD
ROOT
HETATM    1  C   UNL     1      -7.576   6.777  65.670  1.00  0.00    -0.090 C  
HETATM    2  C   UNL     1      -8.509   7.599  66.566  1.00  0.00    -0.133 C  
ENDROOT
BRANCH   2   3
HETATM    3  O   UNL     1      -8.091   8.985  66.571  1.00  0.00    -0.108 OA 
BRANCH   3   4
HETATM    4  C   UNL     1      -8.870   9.898  65.950  1.00  0.00    -0.148 C  
HETATM    5  H2  UNL     1     -10.042   8.275  65.296  1.00  0.00     0.000 HD 
HETATM    6  O   UNL     1      -8.731  11.106  66.003  1.00  0.00    -0.186 OA 
HETATM    7  N   UNL     1      -9.884   9.282  65.309  1.00  0.00    -0.424 N  
HETATM    8  H1  UNL     1     -10.473   9.970  64.841  1.00  0.00     0.000 HD 
ENDBRANCH   3   4
ENDBRANCH   2   3
BRANCH   2   9
HETATM    9  C   UNL     1      -8.648   6.960  67.970  1.00  0.00    -0.123 C  
BRANCH   9  10
HETATM   10  N   UNL     1     -10.092   6.905  68.555  1.00  0.00    -0.156 N  
HETATM   11  C   UNL     1     -11.025   6.504  67.407  1.00  0.00    -0.378 C  
HETATM   12  C   UNL     1     -10.530   8.262  69.088  1.00  0.00    -0.206 C  
HETATM   13  C   UNL     1     -10.240   5.859  69.650  1.00  0.00    -0.218 C  
ENDBRANCH   9  10
ENDBRANCH   2   9
TORSDOF 4
ENDMDL
MODEL      161
REMARK 921   NORMALIZED FREE ENERGY PREDICTED BY IDOCK:   -1.62 KCAL/MOL
REMARK 922        TOTAL FREE ENERGY PREDICTED BY IDOCK:   -2.38 KCAL/MOL
REMARK 923 INTER-LIGAND FREE ENERGY PREDICTED BY IDOCK:   -2.09 KCAL/MOL
REMARK 924 INTRA-LIGAND FREE ENERGY PREDICTED BY IDOCK:   -0.29 KCAL/MOL
REMARK 927      BINDING AFFINITY PREDICTED BY RF-SCORE:    0.00 PKD
ROOT
HETATM    1  C   UNL     1     -11.743   6.514  70.244  1.00  0.00    -0.430 C  
HETATM    2  C   UNL     1     -10.635   5.698  70.919  1.00  0.00    -0.258 C  
ENDROOT
BRANCH   2   3
HETATM    3  O   UNL     1     -10.630   5.956  72.343  1.00  0.00    -0.200 OA 
BRANCH   3   4
HETATM    4  C   UNL     1     -10.661   4.904  73.191  1.00  0.00    -0.254 C  
HETATM    5  H2  UNL     1      -8.608   5.250  73.502  1.00  0.00     0.000 HD 
HETATM    6  O   UNL     1     -11.653   4.269  73.500  1.00  0.00    -0.248 OA 
HETATM    7  N   UNL     1      -9.437   4.695  73.715  1.00  0.00    -0.123 N  
HETATM    8  H1  UNL     1      -9.460   3.902  74.355  1.00  0.00     0.000 HD 
ENDBRANCH   3   4
ENDBRANCH   2   3
BRANCH   2   9
HETATM    9  C   UNL     1      -9.270   5.913  70.217  1.00  0.00    -0.154 C  
BRANCH   9  10
HETATM   10  N   UNL     1      -8.759   4.730  69.341  1.00  0.00    -0.082 N  
HETATM   11  C   UNL     1      -9.342   3.445  69.938  1.00  0.00    -0.168 C  
HETATM   12  C   UNL     1      -7.240   4.633  69.365  1.00  0.00    -0.052 C  
HETATM   13  C   UNL     1      -9.238   4.821  67.899  1.00  0.00    -0.122 C  
ENDBRANCH   9  10
ENDBRANCH   2   9
TORSDOF 4
ENDMDL
MODEL      162
REMARK 921   NORMALIZED FREE ENERGY PREDICTED BY IDOCK:   -1.62 KCAL/MOL
REMARK 922        TOTAL FREE ENERGY PREDICTED BY IDOCK:   -2.38 KCAL/MOL
REMARK 923 INTER-LIGAND FREE ENERGY PREDICTED BY IDOCK:   -2.90 KCAL/MOL
REMARK 924 INTRA-LIGAND FREE ENERGY PREDICTED BY IDOCK:    0.53 KCAL/MOL
REMARK 927      BINDING AFFINITY PREDICTED BY RF-SCORE:    0.00 PKD
ROOT
HETATM    1  C   UNL     1      -5.845  18.429  65.148  1.00  0.00    -0.230 C  
HETATM    2  C   UNL     1      -7.141  18.412  65.967  1.00  0.00    -0.272 C  
ENDROOT
BRANCH   2   3
HETATM    3  O   UNL     1      -7.163  19.537  66.877  1.00  0.00    -0.210 OA 
BRANCH   3   4
HETATM    4  C   UNL     1      -6.263  20.530  66.701  1.00  0.00    -0.204 C  
HETATM    5  H2  UNL     1      -7.471  21.178  65.103  1.00  0.00     0.000 HD 
HETATM    6  O   UNL     1      -5.290  20.741  67.403  1.00  0.00    -0.173 OA 
HETATM    7  N   UNL     1      -6.634  21.314  65.669  1.00  0.00    -0.480 N  
HETATM    8  H1  UNL     1      -5.955  22.063  65.536  1.00  0.00     0.000 HD 
ENDBRANCH   3   4
ENDBRANCH   2   3
BRANCH   2   9
HETATM    9  C   UNL     1      -7.365  17.034  66.636  1.00  0.00    -0.261 C  
BRANCH   9  10
HETATM   10  N   UNL     1      -8.846  16.659  66.947  1.00  0.00    -0.199 N  
HETATM   11  C   UNL     1      -9.711  17.846  66.509  1.00  0.00    -0.329 C  
HETATM   12  C   UNL     1      -9.061  16.422  68.435  1.00  0.00    -0.214 C  
HETATM   13  C   UNL     1      -9.317  15.440  66.167  1.00  0.00    -0.332 C  
ENDBRANCH   9  10
ENDBRANCH   2   9
TORSDOF 4
ENDMDL
MODEL      163
REMARK 921   NORMALIZED FREE ENERGY PREDICTED BY IDOCK:   -1.60 KCAL/MOL
REMARK 922        TOTAL FREE ENERGY PREDICTED BY IDOCK:   -2.35 KCAL/MOL
REMARK 923 INTER-LIGAND FREE ENERGY PREDICTED BY IDOCK:   -2.78 KCAL/MOL
REMARK 924 INTRA-LIGAND FREE ENERGY PREDICTED BY IDOCK:    0.43 KCAL/MOL
REMARK 927      BINDING AFFINITY PREDICTED BY RF-SCORE:    0.00 PKD
ROOT
HETATM    1  C   UNL     1     -10.254  13.280  67.666  1.00  0.00    -0.228 C  
HETATM    2  C   UNL     1      -9.703  12.019  66.990  1.00  0.00    -0.196 C  
ENDROOT
BRANCH   2   3
HETATM    3  O   UNL     1      -9.918  12.092  65.560  1.00  0.00    -0.246 OA 
BRANCH   3   4
HETATM    4  C   UNL     1     -11.187  12.129  65.097  1.00  0.00    -0.329 C  
HETATM    5  H2  UNL     1     -10.417  11.390  63.282  1.00  0.00     0.000 HD 
HETATM    6  O   UNL     1     -12.171  12.438  65.744  1.00  0.00    -0.620 OA 
HETATM    7  N   UNL     1     -11.227  11.698  63.821  1.00  0.00    -0.409 N  
HETATM    8  H1  UNL     1     -12.184  11.725  63.471  1.00  0.00     0.000 HD 
ENDBRANCH   3   4
ENDBRANCH   2   3
BRANCH   2   9
HETATM    9  C   UNL     1     -10.252  10.735  67.662  1.00  0.00    -0.189 C  
BRANCH   9  10
HETATM   10  N   UNL     1      -9.184   9.753  68.230  1.00  0.00    -0.129 N  
HETATM   11  C   UNL     1      -8.140   9.538  67.128  1.00  0.00    -0.106 C  
HETATM   12  C   UNL     1      -9.797   8.407  68.589  1.00  0.00    -0.170 C  
HETATM   13  C   UNL     1      -8.457  10.317  69.442  1.00  0.00    -0.160 C  
ENDBRANCH   9  10
ENDBRANCH   2   9
TORSDOF 4
ENDMDL
MODEL      164
REMARK 921   NORMALIZED FREE ENERGY PREDICTED BY IDOCK:   -1.59 KCAL/MOL
REMARK 922        TOTAL FREE ENERGY PREDICTED BY IDOCK:   -2.34 KCAL/MOL
REMARK 923 INTER-LIGAND FREE ENERGY PREDICTED BY IDOCK:   -2.30 KCAL/MOL
REMARK 924 INTRA-LIGAND FREE ENERGY PREDICTED BY IDOCK:   -0.04 KCAL/MOL
REMARK 927      BINDING AFFINITY PREDICTED BY RF-SCORE:    0.00 PKD
ROOT
HETATM    1  C   UNL     1      -9.554   4.489  69.592  1.00  0.00    -0.270 C  
HETATM    2  C   UNL     1      -9.497   6.018  69.499  1.00  0.00    -0.139 C  
ENDROOT
BRANCH   2   3
HETATM    3  O   UNL     1      -9.946   6.605  70.743  1.00  0.00    -0.183 OA 
BRANCH   3   4
HETATM    4  C   UNL     1     -11.092   7.320  70.745  1.00  0.00    -0.266 C  
HETATM    5  H2  UNL     1      -9.877   9.038  70.658  1.00  0.00     0.000 HD 
HETATM    6  O   UNL     1     -12.219   6.859  70.728  1.00  0.00    -0.381 OA 
HETATM    7  N   UNL     1     -10.815   8.639  70.693  1.00  0.00    -0.223 N  
HETATM    8  H1  UNL     1     -11.679   9.179  70.694  1.00  0.00     0.000 HD 
ENDBRANCH   3   4
ENDBRANCH   2   3
BRANCH   2   9
HETATM    9  C   UNL     1     -10.234   6.533  68.237  1.00  0.00    -0.172 C  
BRANCH   9  10
HETATM   10  N   UNL     1      -9.356   7.285  67.193  1.00  0.00    -0.136 N  
HETATM   11  C   UNL     1      -8.154   7.862  67.950  1.00  0.00    -0.129 C  
HETATM   12  C   UNL     1     -10.118   8.431  66.543  1.00  0.00    -0.247 C  
HETATM   13  C   UNL     1      -8.813   6.361  66.112  1.00  0.00    -0.150 C  
ENDBRANCH   9  10
ENDBRANCH   2   9
TORSDOF 4
ENDMDL
MODEL      165
REMARK 921   NORMALIZED FREE ENERGY PREDICTED BY IDOCK:   -1.57 KCAL/MOL
REMARK 922        TOTAL FREE ENERGY PREDICTED BY IDOCK:   -2.31 KCAL/MOL
REMARK 923 INTER-LIGAND FREE ENERGY PREDICTED BY IDOCK:   -2.14 KCAL/MOL
REMARK 924 INTRA-LIGAND FREE ENERGY PREDICTED BY IDOCK:   -0.17 KCAL/MOL
REMARK 927      BINDING AFFINITY PREDICTED BY RF-SCORE:    0.00 PKD
ROOT
HETATM    1  C   UNL     1     -10.431  12.504  68.442  1.00  0.00    -0.250 C  
HETATM    2  C   UNL     1      -9.378  13.570  68.120  1.00  0.00    -0.213 C  
ENDROOT
BRANCH   2   3
HETATM    3  O   UNL     1      -8.124  13.233  68.760  1.00  0.00    -0.067 OA 
BRANCH   3   4
HETATM    4  C   UNL     1      -7.041  13.012  67.983  1.00  0.00    -0.115 C  
HETATM    5  H2  UNL     1      -7.865  11.116  67.582  1.00  0.00     0.000 HD 
HETATM    6  O   UNL     1      -6.157  13.816  67.749  1.00  0.00    -0.145 OA 
HETATM    7  N   UNL     1      -7.107  11.782  67.434  1.00  0.00    -0.116 N  
HETATM    8  H1  UNL     1      -6.290  11.615  66.848  1.00  0.00     0.000 HD 
ENDBRANCH   3   4
ENDBRANCH   2   3
BRANCH   2   9
HETATM    9  C   UNL     1      -9.903  14.993  68.435  1.00  0.00    -0.222 C  
BRANCH   9  10
HETATM   10  N   UNL     1      -9.824  16.023  67.268  1.00  0.00    -0.233 N  
HETATM   11  C   UNL     1      -9.936  17.418  67.892  1.00  0.00    -0.301 C  
HETATM   12  C   UNL     1     -10.968  15.837  66.281  1.00  0.00    -0.163 C  
HETATM   13  C   UNL     1      -8.498  15.962  66.523  1.00  0.00    -0.313 C  
ENDBRANCH   9  10
ENDBRANCH   2   9
TORSDOF 4
ENDMDL
MODEL      166
REMARK 921   NORMALIZED FREE ENERGY PREDICTED BY IDOCK:   -1.54 KCAL/MOL
REMARK 922        TOTAL FREE ENERGY PREDICTED BY IDOCK:   -2.28 KCAL/MOL
REMARK 923 INTER-LIGAND FREE ENERGY PREDICTED BY IDOCK:   -2.98 KCAL/MOL
REMARK 924 INTRA-LIGAND FREE ENERGY PREDICTED BY IDOCK:    0.70 KCAL/MOL
REMARK 927      BINDING AFFINITY PREDICTED BY RF-SCORE:    0.00 PKD
ROOT
HETATM    1  C   UNL     1     -11.237  11.879  68.835  1.00  0.00    -0.310 C  
HETATM    2  C   UNL     1     -11.452  10.475  69.411  1.00  0.00    -0.262 C  
ENDROOT
BRANCH   2   3
HETATM    3  O   UNL     1     -11.365  10.516  70.855  1.00  0.00    -0.306 OA 
BRANCH   3   4
HETATM    4  C   UNL     1     -12.510  10.536  71.572  1.00  0.00    -0.387 C  
HETATM    5  H2  UNL     1     -12.155   8.499  71.969  1.00  0.00     0.000 HD 
HETATM    6  O   UNL     1     -13.202  11.516  71.781  1.00  0.00    -0.457 OA 
HETATM    7  N   UNL     1     -12.751   9.317  72.095  1.00  0.00    -0.389 N  
HETATM    8  H1  UNL     1     -13.615   9.331  72.636  1.00  0.00     0.000 HD 
ENDBRANCH   3   4
ENDBRANCH   2   3
BRANCH   2   9
HETATM    9  C   UNL     1     -10.517   9.441  68.736  1.00  0.00    -0.212 C  
BRANCH   9  10
HETATM   10  N   UNL     1      -9.029   9.459  69.202  1.00  0.00    -0.142 N  
HETATM   11  C   UNL     1      -8.311   8.330  68.455  1.00  0.00    -0.132 C  
HETATM   12  C   UNL     1      -8.909   9.208  70.698  1.00  0.00    -0.232 C  
HETATM   13  C   UNL     1      -8.323  10.761  68.849  1.00  0.00    -0.147 C  
ENDBRANCH   9  10
ENDBRANCH   2   9
TORSDOF 4
ENDMDL
MODEL      167
REMARK 921   NORMALIZED FREE ENERGY PREDICTED BY IDOCK:   -1.51 KCAL/MOL
REMARK 922        TOTAL FREE ENERGY PREDICTED BY IDOCK:   -2.23 KCAL/MOL
REMARK 923 INTER-LIGAND FREE ENERGY PREDICTED BY IDOCK:   -2.50 KCAL/MOL
REMARK 924 INTRA-LIGAND FREE ENERGY PREDICTED BY IDOCK:    0.27 KCAL/MOL
REMARK 927      BINDING AFFINITY PREDICTED BY RF-SCORE:    0.00 PKD
ROOT
HETATM    1  C   UNL     1     -10.311   8.268  66.831  1.00  0.00    -0.391 C  
HETATM    2  C   UNL     1      -9.150   7.533  66.152  1.00  0.00    -0.137 C  
ENDROOT
BRANCH   2   3
HETATM    3  O   UNL     1      -9.327   6.103  66.286  1.00  0.00    -0.157 OA 
BRANCH   3   4
HETATM    4  C   UNL     1     -10.514   5.637  66.732  1.00  0.00    -0.291 C  
HETATM    5  H2  UNL     1     -10.874   5.012  64.753  1.00  0.00     0.000 HD 
HETATM    6  O   UNL     1     -10.896   5.652  67.888  1.00  0.00    -0.211 OA 
HETATM    7  N   UNL     1     -11.202   5.076  65.717  1.00  0.00    -0.867 N  
HETATM    8  H1  UNL     1     -12.098   4.724  66.052  1.00  0.00     0.000 HD 
ENDBRANCH   3   4
ENDBRANCH   2   3
BRANCH   2   9
HETATM    9  C   UNL     1      -7.781   8.066  66.646  1.00  0.00    -0.094 C  
BRANCH   9  10
HETATM   10  N   UNL     1      -6.932   8.841  65.594  1.00  0.00    -0.078 N  
HETATM   11  C   UNL     1      -7.646   8.697  64.246  1.00  0.00    -0.120 C  
HETATM   12  C   UNL     1      -5.531   8.258  65.468  1.00  0.00    -0.032 C  
HETATM   13  C   UNL     1      -6.835  10.328  65.902  1.00  0.00    -0.125 C  
ENDBRANCH   9  10
ENDBRANCH   2   9
TORSDOF 4
ENDMDL
MODEL      168
REMARK 921   NORMALIZED FREE ENERGY PREDICTED BY IDOCK:   -1.46 KCAL/MOL
REMARK 922        TOTAL FREE ENERGY PREDICTED BY IDOCK:   -2.18 KCAL/MOL
REMARK 923 INTER-LIGAND FREE ENERGY PREDICTED BY IDOCK:   -1.79 KCAL/MOL
REMARK 924 INTRA-LIGAND FREE ENERGY PREDICTED BY IDOCK:   -0.39 KCAL/MOL
REMARK 927      BINDING AFFINITY PREDICTED BY RF-SCORE:    0.00 PKD
ROOT
HETATM    1  C   UNL     1     -10.747   3.655  63.724  1.00  0.00    -0.271 C  
HETATM    2  C   UNL     1      -9.575   4.200  64.547  1.00  0.00    -0.168 C  
ENDROOT
BRANCH   2   3
HETATM    3  O   UNL     1      -8.522   4.656  63.665  1.00  0.00    -0.113 OA 
BRANCH   3   4
HETATM    4  C   UNL     1      -7.821   5.758  64.009  1.00  0.00    -0.118 C  
HETATM    5  H2  UNL     1      -9.669   6.624  64.527  1.00  0.00     0.000 HD 
HETATM    6  O   UNL     1      -6.608   5.865  63.988  1.00  0.00    -0.035 OA 
HETATM    7  N   UNL     1      -8.656   6.717  64.457  1.00  0.00    -0.336 N  
HETATM    8  H1  UNL     1      -8.127   7.549  64.718  1.00  0.00     0.000 HD 
ENDBRANCH   3   4
ENDBRANCH   2   3
BRANCH   2   9
HETATM    9  C   UNL     1      -9.122   3.182  65.623  1.00  0.00    -0.152 C  
BRANCH   9  10
HETATM   10  N   UNL     1      -8.999   3.734  67.076  1.00  0.00    -0.131 N  
HETATM   11  C   UNL     1     -10.034   4.855  67.219  1.00  0.00    -0.184 C  
HETATM   12  C   UNL     1      -7.615   4.311  67.338  1.00  0.00    -0.077 C  
HETATM   13  C   UNL     1      -9.317   2.682  68.129  1.00  0.00    -0.203 C  
ENDBRANCH   9  10
ENDBRANCH   2   9
TORSDOF 4
ENDMDL
MODEL      169
REMARK 921   NORMALIZED FREE ENERGY PREDICTED BY IDOCK:   -1.32 KCAL/MOL
REMARK 922        TOTAL FREE ENERGY PREDICTED BY IDOCK:   -2.00 KCAL/MOL
REMARK 923 INTER-LIGAND FREE ENERGY PREDICTED BY IDOCK:   -1.87 KCAL/MOL
REMARK 924 INTRA-LIGAND FREE ENERGY PREDICTED BY IDOCK:   -0.13 KCAL/MOL
REMARK 927      BINDING AFFINITY PREDICTED BY RF-SCORE:    0.00 PKD
ROOT
HETATM    1  C   UNL     1      -7.021   7.758  73.244  1.00  0.00    -0.100 C  
HETATM    2  C   UNL     1      -8.284   7.327  72.489  1.00  0.00    -0.107 C  
ENDROOT
BRANCH   2   3
HETATM    3  O   UNL     1      -8.738   6.044  72.980  1.00  0.00    -0.123 OA 
BRANCH   3   4
HETATM    4  C   UNL     1      -9.716   6.018  73.911  1.00  0.00    -0.180 C  
HETATM    5  H2  UNL     1      -9.886   8.096  73.618  1.00  0.00     0.000 HD 
HETATM    6  O   UNL     1     -10.151   5.020  74.459  1.00  0.00    -0.202 OA 
HETATM    7  N   UNL     1     -10.206   7.259  74.105  1.00  0.00    -0.413 N  
HETATM    8  H1  UNL     1     -10.944   7.239  74.808  1.00  0.00     0.000 HD 
ENDBRANCH   3   4
ENDBRANCH   2   3
BRANCH   2   9
HETATM    9  C   UNL     1      -8.073   7.396  70.955  1.00  0.00    -0.101 C  
BRANCH   9  10
HETATM   10  N   UNL     1      -8.948   8.437  70.193  1.00  0.00    -0.140 N  
HETATM   11  C   UNL     1      -8.201   9.774  70.244  1.00  0.00    -0.148 C  
HETATM   12  C   UNL     1     -10.308   8.612  70.851  1.00  0.00    -0.211 C  
HETATM   13  C   UNL     1      -9.138   8.077  68.726  1.00  0.00    -0.144 C  
ENDBRANCH   9  10
ENDBRANCH   2   9
TORSDOF 4
ENDMDL
MODEL      170
REMARK 921   NORMALIZED FREE ENERGY PREDICTED BY IDOCK:   -1.28 KCAL/MOL
REMARK 922        TOTAL FREE ENERGY PREDICTED BY IDOCK:   -1.95 KCAL/MOL
REMARK 923 INTER-LIGAND FREE ENERGY PREDICTED BY IDOCK:   -2.69 KCAL/MOL
REMARK 924 INTRA-LIGAND FREE ENERGY PREDICTED BY IDOCK:    0.74 KCAL/MOL
REMARK 927      BINDING AFFINITY PREDICTED BY RF-SCORE:    0.00 PKD
ROOT
HETATM    1  C   UNL     1      -7.869  12.770  68.094  1.00  0.00    -0.146 C  
HETATM    2  C   UNL     1      -8.532  14.043  67.556  1.00  0.00    -0.195 C  
ENDROOT
BRANCH   2   3
HETATM    3  O   UNL     1      -8.929  14.895  68.656  1.00  0.00    -0.172 OA 
BRANCH   3   4
HETATM    4  C   UNL     1      -8.546  16.191  68.642  1.00  0.00    -0.210 C  
HETATM    5  H2  UNL     1      -6.567  15.482  68.767  1.00  0.00     0.000 HD 
HETATM    6  O   UNL     1      -9.286  17.150  68.518  1.00  0.00    -0.259 OA 
HETATM    7  N   UNL     1      -7.203  16.278  68.712  1.00  0.00    -0.166 N  
HETATM    8  H1  UNL     1      -6.913  17.255  68.701  1.00  0.00     0.000 HD 
ENDBRANCH   3   4
ENDBRANCH   2   3
BRANCH   2   9
HETATM    9  C   UNL     1      -9.665  13.706  66.555  1.00  0.00    -0.292 C  
BRANCH   9  10
HETATM   10  N   UNL     1     -11.059  13.398  67.181  1.00  0.00    -0.280 N  
HETATM   11  C   UNL     1     -11.704  14.745  67.527  1.00  0.00    -0.348 C  
HETATM   12  C   UNL     1     -10.929  12.579  68.457  1.00  0.00    -0.249 C  
HETATM   13  C   UNL     1     -11.990  12.683  66.213  1.00  0.00    -0.374 C  
ENDBRANCH   9  10
ENDBRANCH   2   9
TORSDOF 4
ENDMDL
MODEL      171
REMARK 921   NORMALIZED FREE ENERGY PREDICTED BY IDOCK:   -1.26 KCAL/MOL
REMARK 922        TOTAL FREE ENERGY PREDICTED BY IDOCK:   -1.93 KCAL/MOL
REMARK 923 INTER-LIGAND FREE ENERGY PREDICTED BY IDOCK:   -1.67 KCAL/MOL
REMARK 924 INTRA-LIGAND FREE ENERGY PREDICTED BY IDOCK:   -0.26 KCAL/MOL
REMARK 927      BINDING AFFINITY PREDICTED BY RF-SCORE:    0.00 PKD
ROOT
HETATM    1  C   UNL     1      -6.918   7.137  66.084  1.00  0.00    -0.065 C  
HETATM    2  C   UNL     1      -8.232   7.545  66.760  1.00  0.00    -0.124 C  
ENDROOT
BRANCH   2   3
HETATM    3  O   UNL     1      -8.972   6.365  67.153  1.00  0.00    -0.109 OA 
BRANCH   3   4
HETATM    4  C   UNL     1      -8.968   6.003  68.455  1.00  0.00    -0.114 C  
HETATM    5  H2  UNL     1      -7.740   4.393  67.879  1.00  0.00     0.000 HD 
HETATM    6  O   UNL     1      -9.496   6.616  69.365  1.00  0.00    -0.146 OA 
HETATM    7  N   UNL     1      -8.227   4.890  68.624  1.00  0.00    -0.084 N  
HETATM    8  H1  UNL     1      -8.224   4.617  69.607  1.00  0.00     0.000 HD 
ENDBRANCH   3   4
ENDBRANCH   2   3
BRANCH   2   9
HETATM    9  C   UNL     1      -9.027   8.546  65.884  1.00  0.00    -0.189 C  
BRANCH   9  10
HETATM   10  N   UNL     1      -9.486   9.857  66.592  1.00  0.00    -0.166 N  
HETATM   11  C   UNL     1     -10.064  10.773  65.507  1.00  0.00    -0.274 C  
HETATM   12  C   UNL     1      -8.318  10.569  67.260  1.00  0.00    -0.122 C  
HETATM   13  C   UNL     1     -10.584   9.614  67.617  1.00  0.00    -0.275 C  
ENDBRANCH   9  10
ENDBRANCH   2   9
TORSDOF 4
ENDMDL
MODEL      172
REMARK 921   NORMALIZED FREE ENERGY PREDICTED BY IDOCK:   -1.24 KCAL/MOL
REMARK 922        TOTAL FREE ENERGY PREDICTED BY IDOCK:   -1.91 KCAL/MOL
REMARK 923 INTER-LIGAND FREE ENERGY PREDICTED BY IDOCK:   -2.24 KCAL/MOL
REMARK 924 INTRA-LIGAND FREE ENERGY PREDICTED BY IDOCK:    0.34 KCAL/MOL
REMARK 927      BINDING AFFINITY PREDICTED BY RF-SCORE:    0.00 PKD
ROOT
HETATM    1  C   UNL     1      -6.934  10.021  67.304  1.00  0.00    -0.083 C  
HETATM    2  C   UNL     1      -8.411  10.095  66.900  1.00  0.00    -0.126 C  
ENDROOT
BRANCH   2   3
HETATM    3  O   UNL     1      -8.680   9.153  65.836  1.00  0.00    -0.141 OA 
BRANCH   3   4
HETATM    4  C   UNL     1      -8.226   9.432  64.594  1.00  0.00    -0.148 C  
HETATM    5  H2  UNL     1      -9.702   8.108  63.887  1.00  0.00     0.000 HD 
HETATM    6  O   UNL     1      -7.350  10.233  64.321  1.00  0.00    -0.134 OA 
HETATM    7  N   UNL     1      -8.934   8.745  63.676  1.00  0.00    -0.365 N  
HETATM    8  H1  UNL     1      -8.592   8.956  62.739  1.00  0.00     0.000 HD 
ENDBRANCH   3   4
ENDBRANCH   2   3
BRANCH   2   9
HETATM    9  C   UNL     1      -8.838  11.553  66.597  1.00  0.00    -0.187 C  
BRANCH   9  10
HETATM   10  N   UNL     1     -10.361  11.860  66.731  1.00  0.00    -0.206 N  
HETATM   11  C   UNL     1     -10.933  11.921  65.311  1.00  0.00    -0.302 C  
HETATM   12  C   UNL     1     -10.603  13.199  67.412  1.00  0.00    -0.242 C  
HETATM   13  C   UNL     1     -11.113  10.769  67.479  1.00  0.00    -0.308 C  
ENDBRANCH   9  10
ENDBRANCH   2   9
TORSDOF 4
ENDMDL
MODEL      173
REMARK 921   NORMALIZED FREE ENERGY PREDICTED BY IDOCK:   -1.24 KCAL/MOL
REMARK 922        TOTAL FREE ENERGY PREDICTED BY IDOCK:   -1.90 KCAL/MOL
REMARK 923 INTER-LIGAND FREE ENERGY PREDICTED BY IDOCK:   -2.95 KCAL/MOL
REMARK 924 INTRA-LIGAND FREE ENERGY PREDICTED BY IDOCK:    1.05 KCAL/MOL
REMARK 927      BINDING AFFINITY PREDICTED BY RF-SCORE:    0.00 PKD
ROOT
HETATM    1  C   UNL     1      -9.314  13.048  68.055  1.00  0.00    -0.213 C  
HETATM    2  C   UNL     1      -9.497  14.540  67.756  1.00  0.00    -0.210 C  
ENDROOT
BRANCH   2   3
HETATM    3  O   UNL     1     -10.309  15.153  68.785  1.00  0.00    -0.222 OA 
BRANCH   3   4
HETATM    4  C   UNL     1      -9.983  16.392  69.214  1.00  0.00    -0.259 C  
HETATM    5  H2  UNL     1      -7.972  15.798  69.025  1.00  0.00     0.000 HD 
HETATM    6  O   UNL     1     -10.768  17.291  69.454  1.00  0.00    -0.242 OA 
HETATM    7  N   UNL     1      -8.642  16.526  69.270  1.00  0.00    -0.145 N  
HETATM    8  H1  UNL     1      -8.396  17.461  69.593  1.00  0.00     0.000 HD 
ENDBRANCH   3   4
ENDBRANCH   2   3
BRANCH   2   9
HETATM    9  C   UNL     1     -10.006  14.765  66.310  1.00  0.00    -0.291 C  
BRANCH   9  10
HETATM   10  N   UNL     1     -11.219  13.891  65.870  1.00  0.00    -0.295 N  
HETATM   11  C   UNL     1     -10.662  12.522  65.463  1.00  0.00    -0.271 C  
HETATM   12  C   UNL     1     -11.941  14.498  64.676  1.00  0.00    -0.468 C  
HETATM   13  C   UNL     1     -12.214  13.661  66.999  1.00  0.00    -0.329 C  
ENDBRANCH   9  10
ENDBRANCH   2   9
TORSDOF 4
ENDMDL
MODEL      174
REMARK 921   NORMALIZED FREE ENERGY PREDICTED BY IDOCK:   -1.20 KCAL/MOL
REMARK 922        TOTAL FREE ENERGY PREDICTED BY IDOCK:   -1.85 KCAL/MOL
REMARK 923 INTER-LIGAND FREE ENERGY PREDICTED BY IDOCK:   -1.52 KCAL/MOL
REMARK 924 INTRA-LIGAND FREE ENERGY PREDICTED BY IDOCK:   -0.33 KCAL/MOL
REMARK 927      BINDING AFFINITY PREDICTED BY RF-SCORE:    0.00 PKD
ROOT
HETATM    1  C   UNL     1      -9.849   3.723  64.570  1.00  0.00    -0.190 C  
HETATM    2  C   UNL     1      -8.973   4.864  65.101  1.00  0.00    -0.152 C  
ENDROOT
BRANCH   2   3
HETATM    3  O   UNL     1      -8.068   5.313  64.066  1.00  0.00    -0.109 OA 
BRANCH   3   4
HETATM    4  C   UNL     1      -7.777   6.630  63.987  1.00  0.00    -0.112 C  
HETATM    5  H2  UNL     1      -9.213   6.732  62.450  1.00  0.00     0.000 HD 
HETATM    6  O   UNL     1      -7.004   7.232  64.710  1.00  0.00    -0.049 OA 
HETATM    7  N   UNL     1      -8.526   7.214  63.030  1.00  0.00    -0.351 N  
HETATM    8  H1  UNL     1      -8.307   8.208  62.971  1.00  0.00     0.000 HD 
ENDBRANCH   3   4
ENDBRANCH   2   3
BRANCH   2   9
HETATM    9  C   UNL     1      -8.289   4.473  66.435  1.00  0.00    -0.106 C  
BRANCH   9  10
HETATM   10  N   UNL     1      -8.536   5.436  67.636  1.00  0.00    -0.106 N  
HETATM   11  C   UNL     1      -7.166   5.957  68.082  1.00  0.00    -0.079 C  
HETATM   12  C   UNL     1      -9.187   4.713  68.806  1.00  0.00    -0.129 C  
HETATM   13  C   UNL     1      -9.381   6.643  67.253  1.00  0.00    -0.132 C  
ENDBRANCH   9  10
ENDBRANCH   2   9
TORSDOF 4
ENDMDL
MODEL      175
REMARK 921   NORMALIZED FREE ENERGY PREDICTED BY IDOCK:   -1.12 KCAL/MOL
REMARK 922        TOTAL FREE ENERGY PREDICTED BY IDOCK:   -1.75 KCAL/MOL
REMARK 923 INTER-LIGAND FREE ENERGY PREDICTED BY IDOCK:   -2.67 KCAL/MOL
REMARK 924 INTRA-LIGAND FREE ENERGY PREDICTED BY IDOCK:    0.91 KCAL/MOL
REMARK 927      BINDING AFFINITY PREDICTED BY RF-SCORE:    0.00 PKD
ROOT
HETATM    1  C   UNL     1      -9.876   5.459  71.544  1.00  0.00    -0.221 C  
HETATM    2  C   UNL     1     -10.738   6.096  70.448  1.00  0.00    -0.284 C  
ENDROOT
BRANCH   2   3
HETATM    3  O   UNL     1      -9.949   7.043  69.689  1.00  0.00    -0.170 OA 
BRANCH   3   4
HETATM    4  C   UNL     1      -9.498   6.678  68.469  1.00  0.00    -0.123 C  
HETATM    5  H2  UNL     1      -7.693   7.632  68.985  1.00  0.00     0.000 HD 
HETATM    6  O   UNL     1     -10.106   6.004  67.657  1.00  0.00    -0.135 OA 
HETATM    7  N   UNL     1      -8.232   7.108  68.295  1.00  0.00    -0.123 N  
HETATM    8  H1  UNL     1      -7.891   6.833  67.375  1.00  0.00     0.000 HD 
ENDBRANCH   3   4
ENDBRANCH   2   3
BRANCH   2   9
HETATM    9  C   UNL     1     -12.055   6.668  71.029  1.00  0.00    -0.327 C  
BRANCH   9  10
HETATM   10  N   UNL     1     -11.935   8.031  71.776  1.00  0.00    -0.286 N  
HETATM   11  C   UNL     1     -11.417   9.055  70.760  1.00  0.00    -0.282 C  
HETATM   12  C   UNL     1     -10.949   7.950  72.932  1.00  0.00    -0.388 C  
HETATM   13  C   UNL     1     -13.276   8.535  72.289  1.00  0.00    -0.327 C  
ENDBRANCH   9  10
ENDBRANCH   2   9
TORSDOF 4
ENDMDL
MODEL      176
REMARK 921   NORMALIZED FREE ENERGY PREDICTED BY IDOCK:   -1.00 KCAL/MOL
REMARK 922        TOTAL FREE ENERGY PREDICTED BY IDOCK:   -1.61 KCAL/MOL
REMARK 923 INTER-LIGAND FREE ENERGY PREDICTED BY IDOCK:   -1.38 KCAL/MOL
REMARK 924 INTRA-LIGAND FREE ENERGY PREDICTED BY IDOCK:   -0.23 KCAL/MOL
REMARK 927      BINDING AFFINITY PREDICTED BY RF-SCORE:    0.00 PKD
ROOT
HETATM    1  C   UNL     1      -8.286   6.731  65.758  1.00  0.00    -0.143 C  
HETATM    2  C   UNL     1      -8.655   7.040  67.213  1.00  0.00    -0.121 C  
ENDROOT
BRANCH   2   3
HETATM    3  O   UNL     1      -9.110   5.836  67.873  1.00  0.00    -0.112 OA 
BRANCH   3   4
HETATM    4  C   UNL     1      -8.229   4.828  68.060  1.00  0.00    -0.095 C  
HETATM    5  H2  UNL     1      -7.183   6.140  69.332  1.00  0.00     0.000 HD 
HETATM    6  O   UNL     1      -8.324   3.705  67.599  1.00  0.00    -0.091 OA 
HETATM    7  N   UNL     1      -7.249   5.219  68.900  1.00  0.00    -0.061 N  
HETATM    8  H1  UNL     1      -6.584   4.459  69.041  1.00  0.00     0.000 HD 
ENDBRANCH   3   4
ENDBRANCH   2   3
BRANCH   2   9
HETATM    9  C   UNL     1      -9.635   8.237  67.302  1.00  0.00    -0.166 C  
BRANCH   9  10
HETATM   10  N   UNL     1      -9.272   9.341  68.341  1.00  0.00    -0.132 N  
HETATM   11  C   UNL     1     -10.585   9.801  68.985  1.00  0.00    -0.219 C  
HETATM   12  C   UNL     1      -8.610  10.538  67.675  1.00  0.00    -0.118 C  
HETATM   13  C   UNL     1      -8.375   8.822  69.456  1.00  0.00    -0.119 C  
ENDBRANCH   9  10
ENDBRANCH   2   9
TORSDOF 4
ENDMDL
MODEL      177
REMARK 921   NORMALIZED FREE ENERGY PREDICTED BY IDOCK:   -0.95 KCAL/MOL
REMARK 922        TOTAL FREE ENERGY PREDICTED BY IDOCK:   -1.54 KCAL/MOL
REMARK 923 INTER-LIGAND FREE ENERGY PREDICTED BY IDOCK:   -1.40 KCAL/MOL
REMARK 924 INTRA-LIGAND FREE ENERGY PREDICTED BY IDOCK:   -0.14 KCAL/MOL
REMARK 927      BINDING AFFINITY PREDICTED BY RF-SCORE:    0.00 PKD
ROOT
HETATM    1  C   UNL     1      -7.753   7.139  65.226  1.00  0.00    -0.114 C  
HETATM    2  C   UNL     1      -7.654   7.979  66.504  1.00  0.00    -0.092 C  
ENDROOT
BRANCH   2   3
HETATM    3  O   UNL     1      -7.194   7.154  67.601  1.00  0.00    -0.085 OA 
BRANCH   3   4
HETATM    4  C   UNL     1      -7.328   7.622  68.862  1.00  0.00    -0.090 C  
HETATM    5  H2  UNL     1      -5.514   8.642  68.548  1.00  0.00     0.000 HD 
HETATM    6  O   UNL     1      -8.274   7.415  69.601  1.00  0.00    -0.126 OA 
HETATM    7  N   UNL     1      -6.289   8.421  69.173  1.00  0.00    -0.042 N  
HETATM    8  H1  UNL     1      -6.389   8.774  70.124  1.00  0.00     0.000 HD 
ENDBRANCH   3   4
ENDBRANCH   2   3
BRANCH   2   9
HETATM    9  C   UNL     1      -8.973   8.744  66.778  1.00  0.00    -0.135 C  
BRANCH   9  10
HETATM   10  N   UNL     1      -8.977  10.255  66.395  1.00  0.00    -0.147 N  
HETATM   11  C   UNL     1      -9.994  10.947  67.309  1.00  0.00    -0.186 C  
HETATM   12  C   UNL     1      -9.401  10.463  64.948  1.00  0.00    -0.243 C  
HETATM   13  C   UNL     1      -7.628  10.921  66.627  1.00  0.00    -0.139 C  
ENDBRANCH   9  10
ENDBRANCH   2   9
TORSDOF 4
ENDMDL
MODEL      178
REMARK 921   NORMALIZED FREE ENERGY PREDICTED BY IDOCK:   -0.93 KCAL/MOL
REMARK 922        TOTAL FREE ENERGY PREDICTED BY IDOCK:   -1.52 KCAL/MOL
REMARK 923 INTER-LIGAND FREE ENERGY PREDICTED BY IDOCK:   -2.04 KCAL/MOL
REMARK 924 INTRA-LIGAND FREE ENERGY PREDICTED BY IDOCK:    0.52 KCAL/MOL
REMARK 927      BINDING AFFINITY PREDICTED BY RF-SCORE:    0.00 PKD
ROOT
HETATM    1  C   UNL     1      -8.777  10.344  68.790  1.00  0.00    -0.146 C  
HETATM    2  C   UNL     1      -8.249   9.424  67.683  1.00  0.00    -0.114 C  
ENDROOT
BRANCH   2   3
HETATM    3  O   UNL     1      -8.931   9.709  66.439  1.00  0.00    -0.146 OA 
BRANCH   3   4
HETATM    4  C   UNL     1      -8.698  10.893  65.830  1.00  0.00    -0.190 C  
HETATM    5  H2  UNL     1      -6.713  10.236  65.579  1.00  0.00     0.000 HD 
HETATM    6  O   UNL     1      -9.531  11.751  65.601  1.00  0.00    -0.231 OA 
HETATM    7  N   UNL     1      -7.410  10.966  65.438  1.00  0.00    -0.363 N  
HETATM    8  H1  UNL     1      -7.234  11.859  64.978  1.00  0.00     0.000 HD 
ENDBRANCH   3   4
ENDBRANCH   2   3
BRANCH   2   9
HETATM    9  C   UNL     1      -8.292   7.938  68.119  1.00  0.00    -0.124 C  
BRANCH   9  10
HETATM   10  N   UNL     1      -9.176   6.996  67.247  1.00  0.00    -0.126 N  
HETATM   11  C   UNL     1      -9.181   5.625  67.931  1.00  0.00    -0.106 C  
HETATM   12  C   UNL     1      -8.609   6.839  65.844  1.00  0.00    -0.147 C  
HETATM   13  C   UNL     1     -10.621   7.467  67.160  1.00  0.00    -0.345 C  
ENDBRANCH   9  10
ENDBRANCH   2   9
TORSDOF 4
ENDMDL
MODEL      179
REMARK 921   NORMALIZED FREE ENERGY PREDICTED BY IDOCK:   -0.92 KCAL/MOL
REMARK 922        TOTAL FREE ENERGY PREDICTED BY IDOCK:   -1.51 KCAL/MOL
REMARK 923 INTER-LIGAND FREE ENERGY PREDICTED BY IDOCK:   -2.71 KCAL/MOL
REMARK 924 INTRA-LIGAND FREE ENERGY PREDICTED BY IDOCK:    1.21 KCAL/MOL
REMARK 927      BINDING AFFINITY PREDICTED BY RF-SCORE:    0.00 PKD
ROOT
HETATM    1  C   UNL     1     -10.375   5.420  70.499  1.00  0.00    -0.344 C  
HETATM    2  C   UNL     1     -10.365   5.901  71.955  1.00  0.00    -0.210 C  
ENDROOT
BRANCH   2   3
HETATM    3  O   UNL     1     -11.406   5.228  72.703  1.00  0.00    -0.267 OA 
BRANCH   3   4
HETATM    4  C   UNL     1     -11.058   4.220  73.532  1.00  0.00    -0.290 C  
HETATM    5  H2  UNL     1      -9.719   5.577  74.426  1.00  0.00     0.000 HD 
HETATM    6  O   UNL     1     -11.559   3.110  73.552  1.00  0.00    -0.174 OA 
HETATM    7  N   UNL     1     -10.113   4.637  74.399  1.00  0.00    -0.194 N  
HETATM    8  H1  UNL     1      -9.851   3.876  75.025  1.00  0.00     0.000 HD 
ENDBRANCH   3   4
ENDBRANCH   2   3
BRANCH   2   9
HETATM    9  C   UNL     1     -10.405   7.447  72.037  1.00  0.00    -0.193 C  
BRANCH   9  10
HETATM   10  N   UNL     1     -11.451   8.152  71.122  1.00  0.00    -0.272 N  
HETATM   11  C   UNL     1     -12.819   7.546  71.454  1.00  0.00    -0.342 C  
HETATM   12  C   UNL     1     -11.157   7.912  69.648  1.00  0.00    -0.026 C  
HETATM   13  C   UNL     1     -11.541   9.649  71.382  1.00  0.00    -0.400 C  
ENDBRANCH   9  10
ENDBRANCH   2   9
TORSDOF 4
ENDMDL
MODEL      180
REMARK 921   NORMALIZED FREE ENERGY PREDICTED BY IDOCK:   -0.27 KCAL/MOL
REMARK 922        TOTAL FREE ENERGY PREDICTED BY IDOCK:   -0.70 KCAL/MOL
REMARK 923 INTER-LIGAND FREE ENERGY PREDICTED BY IDOCK:   -1.71 KCAL/MOL
REMARK 924 INTRA-LIGAND FREE ENERGY PREDICTED BY IDOCK:    1.00 KCAL/MOL
REMARK 927      BINDING AFFINITY PREDICTED BY RF-SCORE:    0.00 PKD
ROOT
HETATM    1  C   UNL     1      -7.272   7.894  72.251  1.00  0.00    -0.096 C  
HETATM    2  C   UNL     1      -8.659   7.550  71.699  1.00  0.00    -0.115 C  
ENDROOT
BRANCH   2   3
HETATM    3  O   UNL     1      -9.151   6.339  72.321  1.00  0.00    -0.141 OA 
BRANCH   3   4
HETATM    4  C   UNL     1     -10.097   6.443  73.280  1.00  0.00    -0.200 C  
HETATM    5  H2  UNL     1      -8.533   6.931  74.602  1.00  0.00     0.000 HD 
HETATM    6  O   UNL     1     -11.297   6.321  73.111  1.00  0.00    -0.162 OA 
HETATM    7  N   UNL     1      -9.531   6.777  74.456  1.00  0.00    -0.328 N  
HETATM    8  H1  UNL     1     -10.245   6.856  75.180  1.00  0.00     0.000 HD 
ENDBRANCH   3   4
ENDBRANCH   2   3
BRANCH   2   9
HETATM    9  C   UNL     1      -8.659   7.527  70.150  1.00  0.00    -0.141 C  
BRANCH   9  10
HETATM   10  N   UNL     1      -8.677   6.116  69.488  1.00  0.00    -0.129 N  
HETATM   11  C   UNL     1      -7.348   5.438  69.839  1.00  0.00    -0.065 C  
HETATM   12  C   UNL     1      -8.791   6.210  67.974  1.00  0.00    -0.111 C  
HETATM   13  C   UNL     1      -9.795   5.233  70.026  1.00  0.00    -0.218 C  
ENDBRANCH   9  10
ENDBRANCH   2   9
TORSDOF 4
ENDMDL
MODEL      181
REMARK 921   NORMALIZED FREE ENERGY PREDICTED BY IDOCK:    0.07 KCAL/MOL
REMARK 922        TOTAL FREE ENERGY PREDICTED BY IDOCK:   -0.29 KCAL/MOL
REMARK 923 INTER-LIGAND FREE ENERGY PREDICTED BY IDOCK:   -1.85 KCAL/MOL
REMARK 924 INTRA-LIGAND FREE ENERGY PREDICTED BY IDOCK:    1.56 KCAL/MOL
REMARK 927      BINDING AFFINITY PREDICTED BY RF-SCORE:    0.00 PKD
ROOT
HETATM    1  C   UNL     1      -8.874  11.470  68.139  1.00  0.00    -0.165 C  
HETATM    2  C   UNL     1      -9.542  10.211  67.574  1.00  0.00    -0.156 C  
ENDROOT
BRANCH   2   3
HETATM    3  O   UNL     1      -8.532   9.287  67.104  1.00  0.00    -0.122 OA 
BRANCH   3   4
HETATM    4  C   UNL     1      -8.529   8.028  67.595  1.00  0.00    -0.131 C  
HETATM    5  H2  UNL     1      -9.574   7.474  65.853  1.00  0.00     0.000 HD 
HETATM    6  O   UNL     1      -7.986   7.668  68.624  1.00  0.00    -0.118 OA 
HETATM    7  N   UNL     1      -9.157   7.195  66.742  1.00  0.00    -0.141 N  
HETATM    8  H1  UNL     1      -9.154   6.246  67.112  1.00  0.00     0.000 HD 
ENDBRANCH   3   4
ENDBRANCH   2   3
BRANCH   2   9
HETATM    9  C   UNL     1     -10.627  10.571  66.530  1.00  0.00    -0.174 C  
BRANCH   9  10
HETATM   10  N   UNL     1     -10.299  11.771  65.590  1.00  0.00    -0.243 N  
HETATM   11  C   UNL     1      -9.799  12.914  66.480  1.00  0.00    -0.254 C  
HETATM   12  C   UNL     1     -11.534  12.244  64.836  1.00  0.00    -0.332 C  
HETATM   13  C   UNL     1      -9.192  11.449  64.597  1.00  0.00    -0.015 C  
ENDBRANCH   9  10
ENDBRANCH   2   9
TORSDOF 4
ENDMDL
MODEL      182
REMARK 921   NORMALIZED FREE ENERGY PREDICTED BY IDOCK:    0.47 KCAL/MOL
REMARK 922        TOTAL FREE ENERGY PREDICTED BY IDOCK:    0.21 KCAL/MOL
REMARK 923 INTER-LIGAND FREE ENERGY PREDICTED BY IDOCK:   -0.72 KCAL/MOL
REMARK 924 INTRA-LIGAND FREE ENERGY PREDICTED BY IDOCK:    0.92 KCAL/MOL
REMARK 927      BINDING AFFINITY PREDICTED BY RF-SCORE:    0.00 PKD
ROOT
HETATM    1  C   UNL     1      -5.128  18.402  65.521  1.00  0.00    -0.202 C  
HETATM    2  C   UNL     1      -6.383  18.481  66.396  1.00  0.00    -0.191 C  
ENDROOT
BRANCH   2   3
HETATM    3  O   UNL     1      -7.076  19.728  66.154  1.00  0.00    -0.237 OA 
BRANCH   3   4
HETATM    4  C   UNL     1      -6.987  20.290  64.928  1.00  0.00    -0.094 C  
HETATM    5  H2  UNL     1      -8.963  20.954  65.221  1.00  0.00     0.000 HD 
HETATM    6  O   UNL     1      -5.996  20.300  64.220  1.00  0.00    -0.239 OA 
HETATM    7  N   UNL     1      -8.142  20.912  64.618  1.00  0.00     0.741 N  
HETATM    8  H1  UNL     1      -8.075  21.336  63.694  1.00  0.00     0.000 HD 
ENDBRANCH   3   4
ENDBRANCH   2   3
BRANCH   2   9
HETATM    9  C   UNL     1      -6.050  18.204  67.884  1.00  0.00    -0.170 C  
BRANCH   9  10
HETATM   10  N   UNL     1      -7.039  17.267  68.641  1.00  0.00    -0.217 N  
HETATM   11  C   UNL     1      -6.363  16.873  69.959  1.00  0.00     0.044 C  
HETATM   12  C   UNL     1      -7.331  16.003  67.846  1.00  0.00    -0.131 C  
HETATM   13  C   UNL     1      -8.349  17.960  68.990  1.00  0.00    -0.020 C  
ENDBRANCH   9  10
ENDBRANCH   2   9
TORSDOF 4
ENDMDL
