MODEL        1
REMARK 921   NORMALIZED FREE ENERGY PREDICTED BY IDOCK:   -5.44 KCAL/MOL
REMARK 922        TOTAL FREE ENERGY PREDICTED BY IDOCK:   -6.25 KCAL/MOL
REMARK 923 INTER-LIGAND FREE ENERGY PREDICTED BY IDOCK:   -6.08 KCAL/MOL
REMARK 924 INTRA-LIGAND FREE ENERGY PREDICTED BY IDOCK:   -0.17 KCAL/MOL
REMARK 927      BINDING AFFINITY PREDICTED BY RF-SCORE:    0.00 PKD
ROOT
HETATM    1  C   UNL     1     -11.384  10.806  67.985  1.00  0.00    -0.307 C  
HETATM    2  N   UNL     1     -11.884  11.880  67.169  1.00  0.00    -0.620 NA 
HETATM    3  H   UNL     1     -12.310  11.601  66.285  1.00  0.00     0.000 HD 
HETATM    4  C   UNL     1     -11.866  13.222  67.417  1.00  0.00    -0.366 C  
HETATM    5  N   UNL     1     -11.509  13.555  68.691  1.00  0.00    -0.285 NA 
HETATM    6  N   UNL     1     -12.151  14.137  66.557  1.00  0.00    -0.446 NA 
HETATM    7  C   UNL     1     -12.564  13.768  65.216  1.00  0.00    -0.473 C  
HETATM    8  H   UNL     1     -11.142  12.826  69.305  1.00  0.00     0.000 HD 
HETATM    9  H   UNL     1     -12.086  15.121  66.818  1.00  0.00     0.000 HD 
ENDROOT
BRANCH   5  10
HETATM   10  C   UNL     1     -11.632  14.908  69.206  1.00  0.00    -0.306 C  
BRANCH  10  11
HETATM   11  C   UNL     1     -12.106  14.999  70.646  1.00  0.00    -0.375 A  
HETATM   12  C   UNL     1     -11.837  16.091  71.486  1.00  0.00    -0.554 A  
HETATM   13  C   UNL     1     -12.284  16.105  72.810  1.00  0.00    -0.628 A  
HETATM   14  C   UNL     1     -13.010  15.029  73.317  1.00  0.00    -0.642 A  
HETATM   15  C   UNL     1     -13.295  13.941  72.497  1.00  0.00    -0.656 A  
HETATM   16  C   UNL     1     -12.849  13.927  71.173  1.00  0.00    -0.423 A  
ENDBRANCH  10  11
ENDBRANCH   5  10
TORSDOF 2
ENDMDL
MODEL        2
REMARK 921   NORMALIZED FREE ENERGY PREDICTED BY IDOCK:   -5.43 KCAL/MOL
REMARK 922        TOTAL FREE ENERGY PREDICTED BY IDOCK:   -6.24 KCAL/MOL
REMARK 923 INTER-LIGAND FREE ENERGY PREDICTED BY IDOCK:   -6.08 KCAL/MOL
REMARK 924 INTRA-LIGAND FREE ENERGY PREDICTED BY IDOCK:   -0.16 KCAL/MOL
REMARK 927      BINDING AFFINITY PREDICTED BY RF-SCORE:    0.00 PKD
ROOT
HETATM    1  C   UNL     1     -11.447  11.041  67.960  1.00  0.00    -0.290 C  
HETATM    2  N   UNL     1     -11.989  12.116  67.172  1.00  0.00    -0.584 NA 
HETATM    3  H   UNL     1     -12.411  11.843  66.285  1.00  0.00     0.000 HD 
HETATM    4  C   UNL     1     -12.016  13.452  67.452  1.00  0.00    -0.346 C  
HETATM    5  N   UNL     1     -11.663  13.767  68.732  1.00  0.00    -0.333 NA 
HETATM    6  N   UNL     1     -12.338  14.376  66.615  1.00  0.00    -0.518 NA 
HETATM    7  C   UNL     1     -12.746  14.024  65.268  1.00  0.00    -0.439 C  
HETATM    8  H   UNL     1     -11.267  13.037  69.327  1.00  0.00     0.000 HD 
HETATM    9  H   UNL     1     -12.305  15.356  66.899  1.00  0.00     0.000 HD 
ENDROOT
BRANCH   5  10
HETATM   10  C   UNL     1     -11.830  15.102  69.279  1.00  0.00    -0.320 C  
BRANCH  10  11
HETATM   11  C   UNL     1     -12.291  15.144  70.726  1.00  0.00    -0.415 A  
HETATM   12  C   UNL     1     -13.310  14.328  71.241  1.00  0.00    -0.388 A  
HETATM   13  C   UNL     1     -13.704  14.429  72.578  1.00  0.00    -0.589 A  
HETATM   14  C   UNL     1     -13.084  15.346  73.424  1.00  0.00    -0.633 A  
HETATM   15  C   UNL     1     -12.065  16.159  72.935  1.00  0.00    -0.643 A  
HETATM   16  C   UNL     1     -11.670  16.057  71.598  1.00  0.00    -0.583 A  
ENDBRANCH  10  11
ENDBRANCH   5  10
TORSDOF 2
ENDMDL
MODEL        3
REMARK 921   NORMALIZED FREE ENERGY PREDICTED BY IDOCK:   -5.13 KCAL/MOL
REMARK 922        TOTAL FREE ENERGY PREDICTED BY IDOCK:   -5.90 KCAL/MOL
REMARK 923 INTER-LIGAND FREE ENERGY PREDICTED BY IDOCK:   -5.75 KCAL/MOL
REMARK 924 INTRA-LIGAND FREE ENERGY PREDICTED BY IDOCK:   -0.15 KCAL/MOL
REMARK 927      BINDING AFFINITY PREDICTED BY RF-SCORE:    0.00 PKD
ROOT
HETATM    1  C   UNL     1     -10.019  16.999  66.951  1.00  0.00    -0.289 C  
HETATM    2  N   UNL     1     -10.773  15.850  66.526  1.00  0.00    -0.293 NA 
HETATM    3  H   UNL     1     -10.756  15.658  65.525  1.00  0.00     0.000 HD 
HETATM    4  C   UNL     1     -11.506  14.982  67.281  1.00  0.00    -0.304 C  
HETATM    5  N   UNL     1     -11.327  15.116  68.628  1.00  0.00    -0.293 NA 
HETATM    6  N   UNL     1     -12.314  14.095  66.814  1.00  0.00    -0.554 NA 
HETATM    7  C   UNL     1     -12.467  13.939  65.379  1.00  0.00    -0.501 C  
HETATM    8  H   UNL     1     -10.805  15.920  68.976  1.00  0.00     0.000 HD 
HETATM    9  H   UNL     1     -12.846  13.502  67.451  1.00  0.00     0.000 HD 
ENDROOT
BRANCH   5  10
HETATM   10  C   UNL     1     -11.854  14.155  69.582  1.00  0.00    -0.324 C  
BRANCH  10  11
HETATM   11  C   UNL     1     -12.403  14.765  70.861  1.00  0.00    -0.388 A  
HETATM   12  C   UNL     1     -13.768  14.996  71.089  1.00  0.00    -0.484 A  
HETATM   13  C   UNL     1     -14.208  15.580  72.279  1.00  0.00    -0.617 A  
HETATM   14  C   UNL     1     -13.291  15.942  73.263  1.00  0.00    -0.660 A  
HETATM   15  C   UNL     1     -11.934  15.714  73.061  1.00  0.00    -0.590 A  
HETATM   16  C   UNL     1     -11.493  15.128  71.871  1.00  0.00    -0.457 A  
ENDBRANCH  10  11
ENDBRANCH   5  10
TORSDOF 2
ENDMDL
MODEL        4
REMARK 921   NORMALIZED FREE ENERGY PREDICTED BY IDOCK:   -5.08 KCAL/MOL
REMARK 922        TOTAL FREE ENERGY PREDICTED BY IDOCK:   -5.85 KCAL/MOL
REMARK 923 INTER-LIGAND FREE ENERGY PREDICTED BY IDOCK:   -5.65 KCAL/MOL
REMARK 924 INTRA-LIGAND FREE ENERGY PREDICTED BY IDOCK:   -0.20 KCAL/MOL
REMARK 927      BINDING AFFINITY PREDICTED BY RF-SCORE:    0.00 PKD
ROOT
HETATM    1  C   UNL     1     -14.359   7.326  71.582  1.00  0.00    -0.421 C  
HETATM    2  N   UNL     1     -12.974   7.467  71.943  1.00  0.00    -0.478 NA 
HETATM    3  H   UNL     1     -12.553   6.657  72.399  1.00  0.00     0.000 HD 
HETATM    4  C   UNL     1     -12.146   8.536  71.759  1.00  0.00    -0.333 C  
HETATM    5  N   UNL     1     -12.655   9.509  70.949  1.00  0.00    -0.480 NA 
HETATM    6  N   UNL     1     -10.977   8.666  72.283  1.00  0.00    -0.357 NA 
HETATM    7  C   UNL     1     -10.434   7.607  73.113  1.00  0.00    -0.374 C  
HETATM    8  H   UNL     1     -13.636   9.455  70.672  1.00  0.00     0.000 HD 
HETATM    9  H   UNL     1     -10.433   9.512  72.115  1.00  0.00     0.000 HD 
ENDROOT
BRANCH   5  10
HETATM   10  C   UNL     1     -11.852  10.619  70.466  1.00  0.00    -0.357 C  
BRANCH  10  11
HETATM   11  C   UNL     1     -12.385  11.995  70.828  1.00  0.00    -0.403 A  
HETATM   12  C   UNL     1     -12.090  13.158  70.102  1.00  0.00    -0.392 A  
HETATM   13  C   UNL     1     -12.595  14.400  70.499  1.00  0.00    -0.417 A  
HETATM   14  C   UNL     1     -13.406  14.498  71.628  1.00  0.00    -0.441 A  
HETATM   15  C   UNL     1     -13.718  13.353  72.356  1.00  0.00    -0.698 A  
HETATM   16  C   UNL     1     -13.214  12.112  71.958  1.00  0.00    -0.496 A  
ENDBRANCH  10  11
ENDBRANCH   5  10
TORSDOF 2
ENDMDL
MODEL        5
REMARK 921   NORMALIZED FREE ENERGY PREDICTED BY IDOCK:   -5.02 KCAL/MOL
REMARK 922        TOTAL FREE ENERGY PREDICTED BY IDOCK:   -5.78 KCAL/MOL
REMARK 923 INTER-LIGAND FREE ENERGY PREDICTED BY IDOCK:   -5.58 KCAL/MOL
REMARK 924 INTRA-LIGAND FREE ENERGY PREDICTED BY IDOCK:   -0.20 KCAL/MOL
REMARK 927      BINDING AFFINITY PREDICTED BY RF-SCORE:    0.00 PKD
ROOT
HETATM    1  C   UNL     1     -10.251  15.973  66.184  1.00  0.00    -0.324 C  
HETATM    2  N   UNL     1     -10.920  14.732  65.900  1.00  0.00    -0.327 NA 
HETATM    3  H   UNL     1     -11.025  14.503  64.912  1.00  0.00     0.000 HD 
HETATM    4  C   UNL     1     -11.433  13.818  66.774  1.00  0.00    -0.348 C  
HETATM    5  N   UNL     1     -11.080  14.024  68.076  1.00  0.00    -0.255 NA 
HETATM    6  N   UNL     1     -12.192  12.829  66.450  1.00  0.00    -0.518 NA 
HETATM    7  C   UNL     1     -12.529  12.601  65.057  1.00  0.00    -0.487 C  
HETATM    8  H   UNL     1     -10.609  14.895  68.326  1.00  0.00     0.000 HD 
HETATM    9  H   UNL     1     -12.555  12.206  67.172  1.00  0.00     0.000 HD 
ENDROOT
BRANCH   5  10
HETATM   10  C   UNL     1     -11.351  13.049  69.120  1.00  0.00    -0.273 C  
BRANCH  10  11
HETATM   11  C   UNL     1     -12.230  13.555  70.250  1.00  0.00    -0.417 A  
HETATM   12  C   UNL     1     -12.771  12.728  71.245  1.00  0.00    -0.364 A  
HETATM   13  C   UNL     1     -13.591  13.252  72.248  1.00  0.00    -0.703 A  
HETATM   14  C   UNL     1     -13.882  14.614  72.274  1.00  0.00    -0.583 A  
HETATM   15  C   UNL     1     -13.348  15.454  71.302  1.00  0.00    -0.598 A  
HETATM   16  C   UNL     1     -12.526  14.930  70.300  1.00  0.00    -0.386 A  
ENDBRANCH  10  11
ENDBRANCH   5  10
TORSDOF 2
ENDMDL
MODEL        6
REMARK 921   NORMALIZED FREE ENERGY PREDICTED BY IDOCK:   -4.97 KCAL/MOL
REMARK 922        TOTAL FREE ENERGY PREDICTED BY IDOCK:   -5.73 KCAL/MOL
REMARK 923 INTER-LIGAND FREE ENERGY PREDICTED BY IDOCK:   -5.53 KCAL/MOL
REMARK 924 INTRA-LIGAND FREE ENERGY PREDICTED BY IDOCK:   -0.20 KCAL/MOL
REMARK 927      BINDING AFFINITY PREDICTED BY RF-SCORE:    0.00 PKD
ROOT
HETATM    1  C   UNL     1     -11.378   6.333  69.597  1.00  0.00    -0.422 C  
HETATM    2  N   UNL     1     -11.051   6.683  70.953  1.00  0.00    -0.269 NA 
HETATM    3  H   UNL     1     -10.229   6.221  71.342  1.00  0.00     0.000 HD 
HETATM    4  C   UNL     1     -11.691   7.550  71.790  1.00  0.00    -0.284 C  
HETATM    5  N   UNL     1     -12.637   8.324  71.183  1.00  0.00    -0.477 NA 
HETATM    6  N   UNL     1     -11.462   7.667  73.052  1.00  0.00    -0.609 NA 
HETATM    7  C   UNL     1     -10.428   6.863  73.677  1.00  0.00    -0.369 C  
HETATM    8  H   UNL     1     -12.906   8.109  70.222  1.00  0.00     0.000 HD 
HETATM    9  H   UNL     1     -12.006   8.323  73.612  1.00  0.00     0.000 HD 
ENDROOT
BRANCH   5  10
HETATM   10  C   UNL     1     -13.275   9.444  71.854  1.00  0.00    -0.429 C  
BRANCH  10  11
HETATM   11  C   UNL     1     -12.878  10.812  71.325  1.00  0.00    -0.540 A  
HETATM   12  C   UNL     1     -13.205  12.017  71.963  1.00  0.00    -0.481 A  
HETATM   13  C   UNL     1     -12.828  13.246  71.414  1.00  0.00    -0.411 A  
HETATM   14  C   UNL     1     -12.116  13.290  70.218  1.00  0.00    -0.405 A  
HETATM   15  C   UNL     1     -11.773  12.105  69.573  1.00  0.00    -0.402 A  
HETATM   16  C   UNL     1     -12.149  10.876  70.123  1.00  0.00    -0.431 A  
ENDBRANCH  10  11
ENDBRANCH   5  10
TORSDOF 2
ENDMDL
MODEL        7
REMARK 921   NORMALIZED FREE ENERGY PREDICTED BY IDOCK:   -4.97 KCAL/MOL
REMARK 922        TOTAL FREE ENERGY PREDICTED BY IDOCK:   -5.73 KCAL/MOL
REMARK 923 INTER-LIGAND FREE ENERGY PREDICTED BY IDOCK:   -5.60 KCAL/MOL
REMARK 924 INTRA-LIGAND FREE ENERGY PREDICTED BY IDOCK:   -0.13 KCAL/MOL
REMARK 927      BINDING AFFINITY PREDICTED BY RF-SCORE:    0.00 PKD
ROOT
HETATM    1  C   UNL     1     -11.912  11.355  70.437  1.00  0.00    -0.374 C  
HETATM    2  N   UNL     1     -12.059  12.786  70.476  1.00  0.00    -0.508 NA 
HETATM    3  H   UNL     1     -12.042  13.206  71.405  1.00  0.00     0.000 HD 
HETATM    4  C   UNL     1     -12.218  13.657  69.438  1.00  0.00    -0.259 C  
HETATM    5  N   UNL     1     -12.005  13.110  68.205  1.00  0.00    -0.335 NA 
HETATM    6  N   UNL     1     -12.541  14.898  69.556  1.00  0.00    -0.584 NA 
HETATM    7  C   UNL     1     -12.728  15.475  70.875  1.00  0.00    -0.468 C  
HETATM    8  H   UNL     1     -11.902  12.098  68.128  1.00  0.00     0.000 HD 
HETATM    9  H   UNL     1     -12.665  15.475  68.725  1.00  0.00     0.000 HD 
ENDROOT
BRANCH   5  10
HETATM   10  C   UNL     1     -11.921  13.917  67.000  1.00  0.00    -0.424 C  
BRANCH  10  11
HETATM   11  C   UNL     1     -11.608  13.138  65.734  1.00  0.00    -0.383 A  
HETATM   12  C   UNL     1     -10.328  12.667  65.407  1.00  0.00    -0.311 A  
HETATM   13  C   UNL     1     -10.101  11.974  64.215  1.00  0.00    -0.319 A  
HETATM   14  C   UNL     1     -11.150  11.737  63.331  1.00  0.00    -0.448 A  
HETATM   15  C   UNL     1     -12.430  12.188  63.640  1.00  0.00    -0.658 A  
HETATM   16  C   UNL     1     -12.658  12.880  64.833  1.00  0.00    -0.525 A  
ENDBRANCH  10  11
ENDBRANCH   5  10
TORSDOF 2
ENDMDL
MODEL        8
REMARK 921   NORMALIZED FREE ENERGY PREDICTED BY IDOCK:   -4.97 KCAL/MOL
REMARK 922        TOTAL FREE ENERGY PREDICTED BY IDOCK:   -5.72 KCAL/MOL
REMARK 923 INTER-LIGAND FREE ENERGY PREDICTED BY IDOCK:   -5.51 KCAL/MOL
REMARK 924 INTRA-LIGAND FREE ENERGY PREDICTED BY IDOCK:   -0.21 KCAL/MOL
REMARK 927      BINDING AFFINITY PREDICTED BY RF-SCORE:    0.00 PKD
ROOT
HETATM    1  C   UNL     1      -9.821   9.092  71.623  1.00  0.00    -0.296 C  
HETATM    2  N   UNL     1     -11.259   9.116  71.663  1.00  0.00    -0.357 NA 
HETATM    3  H   UNL     1     -11.697   8.391  72.231  1.00  0.00     0.000 HD 
HETATM    4  C   UNL     1     -12.116   9.978  71.042  1.00  0.00    -0.373 C  
HETATM    5  N   UNL     1     -11.514  11.068  70.484  1.00  0.00    -0.446 NA 
HETATM    6  N   UNL     1     -13.392   9.821  70.961  1.00  0.00    -0.550 NA 
HETATM    7  C   UNL     1     -14.022   8.676  71.591  1.00  0.00    -0.401 C  
HETATM    8  H   UNL     1     -10.495  11.092  70.428  1.00  0.00     0.000 HD 
HETATM    9  H   UNL     1     -13.959  10.501  70.455  1.00  0.00     0.000 HD 
ENDROOT
BRANCH   5  10
HETATM   10  C   UNL     1     -12.270  12.195  69.966  1.00  0.00    -0.198 C  
BRANCH  10  11
HETATM   11  C   UNL     1     -12.425  13.355  70.935  1.00  0.00    -0.439 A  
HETATM   12  C   UNL     1     -13.298  13.341  72.032  1.00  0.00    -0.582 A  
HETATM   13  C   UNL     1     -13.410  14.451  72.875  1.00  0.00    -0.575 A  
HETATM   14  C   UNL     1     -12.649  15.592  72.636  1.00  0.00    -0.532 A  
HETATM   15  C   UNL     1     -11.770  15.623  71.557  1.00  0.00    -0.504 A  
HETATM   16  C   UNL     1     -11.656  14.513  70.715  1.00  0.00    -0.260 A  
ENDBRANCH  10  11
ENDBRANCH   5  10
TORSDOF 2
ENDMDL
MODEL        9
REMARK 921   NORMALIZED FREE ENERGY PREDICTED BY IDOCK:   -4.96 KCAL/MOL
REMARK 922        TOTAL FREE ENERGY PREDICTED BY IDOCK:   -5.72 KCAL/MOL
REMARK 923 INTER-LIGAND FREE ENERGY PREDICTED BY IDOCK:   -5.53 KCAL/MOL
REMARK 924 INTRA-LIGAND FREE ENERGY PREDICTED BY IDOCK:   -0.18 KCAL/MOL
REMARK 927      BINDING AFFINITY PREDICTED BY RF-SCORE:    0.00 PKD
ROOT
HETATM    1  C   UNL     1     -12.770  13.152  65.204  1.00  0.00    -0.405 C  
HETATM    2  N   UNL     1     -12.036  12.238  66.038  1.00  0.00    -0.630 NA 
HETATM    3  H   UNL     1     -11.772  11.355  65.600  1.00  0.00     0.000 HD 
HETATM    4  C   UNL     1     -11.646  12.391  67.337  1.00  0.00    -0.365 C  
HETATM    5  N   UNL     1     -11.802  13.656  67.826  1.00  0.00    -0.360 NA 
HETATM    6  N   UNL     1     -11.167  11.456  68.081  1.00  0.00    -0.254 NA 
HETATM    7  C   UNL     1     -10.973  10.125  67.536  1.00  0.00    -0.255 C  
HETATM    8  H   UNL     1     -12.322  14.337  67.272  1.00  0.00     0.000 HD 
HETATM    9  H   UNL     1     -10.924  11.650  69.052  1.00  0.00     0.000 HD 
ENDROOT
BRANCH   5  10
HETATM   10  C   UNL     1     -11.255  14.067  69.108  1.00  0.00    -0.269 C  
BRANCH  10  11
HETATM   11  C   UNL     1     -12.250  14.059  70.256  1.00  0.00    -0.430 A  
HETATM   12  C   UNL     1     -12.554  12.918  71.013  1.00  0.00    -0.376 A  
HETATM   13  C   UNL     1     -13.496  12.972  72.045  1.00  0.00    -0.584 A  
HETATM   14  C   UNL     1     -14.148  14.167  72.338  1.00  0.00    -0.570 A  
HETATM   15  C   UNL     1     -13.854  15.313  71.604  1.00  0.00    -0.615 A  
HETATM   16  C   UNL     1     -12.911  15.260  70.574  1.00  0.00    -0.421 A  
ENDBRANCH  10  11
ENDBRANCH   5  10
TORSDOF 2
ENDMDL
MODEL       10
REMARK 921   NORMALIZED FREE ENERGY PREDICTED BY IDOCK:   -4.96 KCAL/MOL
REMARK 922        TOTAL FREE ENERGY PREDICTED BY IDOCK:   -5.72 KCAL/MOL
REMARK 923 INTER-LIGAND FREE ENERGY PREDICTED BY IDOCK:   -5.56 KCAL/MOL
REMARK 924 INTRA-LIGAND FREE ENERGY PREDICTED BY IDOCK:   -0.15 KCAL/MOL
REMARK 927      BINDING AFFINITY PREDICTED BY RF-SCORE:    0.00 PKD
ROOT
HETATM    1  C   UNL     1     -11.600  12.745  67.649  1.00  0.00    -0.358 C  
HETATM    2  N   UNL     1     -11.837  12.958  66.245  1.00  0.00    -0.398 NA 
HETATM    3  H   UNL     1     -12.374  12.230  65.774  1.00  0.00     0.000 HD 
HETATM    4  C   UNL     1     -11.440  14.000  65.459  1.00  0.00    -0.318 C  
HETATM    5  N   UNL     1     -10.931  15.063  66.148  1.00  0.00    -0.332 NA 
HETATM    6  N   UNL     1     -11.516  14.029  64.174  1.00  0.00    -0.608 NA 
HETATM    7  C   UNL     1     -12.093  12.906  63.458  1.00  0.00    -0.555 C  
HETATM    8  H   UNL     1     -10.740  14.957  67.145  1.00  0.00     0.000 HD 
HETATM    9  H   UNL     1     -11.171  14.839  63.660  1.00  0.00     0.000 HD 
ENDROOT
BRANCH   5  10
HETATM   10  C   UNL     1     -10.651  16.340  65.513  1.00  0.00    -0.353 C  
BRANCH  10  11
HETATM   11  C   UNL     1     -10.479  17.503  66.474  1.00  0.00    -0.270 A  
HETATM   12  C   UNL     1     -10.506  18.849  66.080  1.00  0.00    -0.507 A  
HETATM   13  C   UNL     1     -10.319  19.874  67.011  1.00  0.00    -0.592 A  
HETATM   14  C   UNL     1     -10.104  19.572  68.353  1.00  0.00    -0.546 A  
HETATM   15  C   UNL     1     -10.083  18.243  68.767  1.00  0.00    -0.393 A  
HETATM   16  C   UNL     1     -10.271  17.217  67.837  1.00  0.00    -0.332 A  
ENDBRANCH  10  11
ENDBRANCH   5  10
TORSDOF 2
ENDMDL
MODEL       11
REMARK 921   NORMALIZED FREE ENERGY PREDICTED BY IDOCK:   -4.94 KCAL/MOL
REMARK 922        TOTAL FREE ENERGY PREDICTED BY IDOCK:   -5.70 KCAL/MOL
REMARK 923 INTER-LIGAND FREE ENERGY PREDICTED BY IDOCK:   -5.54 KCAL/MOL
REMARK 924 INTRA-LIGAND FREE ENERGY PREDICTED BY IDOCK:   -0.16 KCAL/MOL
REMARK 927      BINDING AFFINITY PREDICTED BY RF-SCORE:    0.00 PKD
ROOT
HETATM    1  C   UNL     1     -12.615  15.415  70.542  1.00  0.00    -0.423 C  
HETATM    2  N   UNL     1     -12.293  14.919  69.230  1.00  0.00    -0.574 NA 
HETATM    3  H   UNL     1     -12.299  15.613  68.483  1.00  0.00     0.000 HD 
HETATM    4  C   UNL     1     -11.982  13.646  68.850  1.00  0.00    -0.356 C  
HETATM    5  N   UNL     1     -11.753  12.789  69.887  1.00  0.00    -0.484 NA 
HETATM    6  N   UNL     1     -11.899  13.237  67.632  1.00  0.00    -0.360 NA 
HETATM    7  C   UNL     1     -12.110  14.169  66.540  1.00  0.00    -0.454 C  
HETATM    8  H   UNL     1     -11.972  13.095  70.836  1.00  0.00     0.000 HD 
HETATM    9  H   UNL     1     -11.687  12.259  67.435  1.00  0.00     0.000 HD 
ENDROOT
BRANCH   5  10
HETATM   10  C   UNL     1     -11.208  11.457  69.689  1.00  0.00    -0.230 C  
BRANCH  10  11
HETATM   11  C   UNL     1     -11.683  10.420  70.693  1.00  0.00    -0.444 A  
HETATM   12  C   UNL     1     -12.975  10.401  71.238  1.00  0.00    -0.517 A  
HETATM   13  C   UNL     1     -13.345   9.431  72.175  1.00  0.00    -0.545 A  
HETATM   14  C   UNL     1     -12.429   8.463  72.579  1.00  0.00    -0.337 A  
HETATM   15  C   UNL     1     -11.145   8.458  72.043  1.00  0.00    -0.397 A  
HETATM   16  C   UNL     1     -10.775   9.427  71.106  1.00  0.00    -0.417 A  
ENDBRANCH  10  11
ENDBRANCH   5  10
TORSDOF 2
ENDMDL
MODEL       12
REMARK 921   NORMALIZED FREE ENERGY PREDICTED BY IDOCK:   -4.94 KCAL/MOL
REMARK 922        TOTAL FREE ENERGY PREDICTED BY IDOCK:   -5.69 KCAL/MOL
REMARK 923 INTER-LIGAND FREE ENERGY PREDICTED BY IDOCK:   -5.53 KCAL/MOL
REMARK 924 INTRA-LIGAND FREE ENERGY PREDICTED BY IDOCK:   -0.16 KCAL/MOL
REMARK 927      BINDING AFFINITY PREDICTED BY RF-SCORE:    0.00 PKD
ROOT
HETATM    1  C   UNL     1     -11.275  16.150  70.155  1.00  0.00    -0.370 C  
HETATM    2  N   UNL     1     -11.866  16.096  71.466  1.00  0.00    -0.581 NA 
HETATM    3  H   UNL     1     -11.874  16.976  71.982  1.00  0.00     0.000 HD 
HETATM    4  C   UNL     1     -12.416  15.029  72.113  1.00  0.00    -0.344 C  
HETATM    5  N   UNL     1     -12.606  13.930  71.327  1.00  0.00    -0.358 NA 
HETATM    6  N   UNL     1     -12.745  15.007  73.358  1.00  0.00    -0.501 NA 
HETATM    7  C   UNL     1     -12.572  16.195  74.174  1.00  0.00    -0.542 C  
HETATM    8  H   UNL     1     -12.199  13.919  70.390  1.00  0.00     0.000 HD 
HETATM    9  H   UNL     1     -13.128  14.156  73.771  1.00  0.00     0.000 HD 
ENDROOT
BRANCH   5  10
HETATM   10  C   UNL     1     -13.365  12.774  71.773  1.00  0.00    -0.342 C  
BRANCH  10  11
HETATM   11  C   UNL     1     -12.744  11.432  71.425  1.00  0.00    -0.489 A  
HETATM   12  C   UNL     1     -11.845  11.243  70.365  1.00  0.00    -0.443 A  
HETATM   13  C   UNL     1     -11.324   9.976  70.083  1.00  0.00    -0.357 A  
HETATM   14  C   UNL     1     -11.692   8.879  70.858  1.00  0.00    -0.312 A  
HETATM   15  C   UNL     1     -12.576   9.047  71.920  1.00  0.00    -0.452 A  
HETATM   16  C   UNL     1     -13.095  10.313  72.203  1.00  0.00    -0.444 A  
ENDBRANCH  10  11
ENDBRANCH   5  10
TORSDOF 2
ENDMDL
MODEL       13
REMARK 921   NORMALIZED FREE ENERGY PREDICTED BY IDOCK:   -4.94 KCAL/MOL
REMARK 922        TOTAL FREE ENERGY PREDICTED BY IDOCK:   -5.69 KCAL/MOL
REMARK 923 INTER-LIGAND FREE ENERGY PREDICTED BY IDOCK:   -5.56 KCAL/MOL
REMARK 924 INTRA-LIGAND FREE ENERGY PREDICTED BY IDOCK:   -0.14 KCAL/MOL
REMARK 927      BINDING AFFINITY PREDICTED BY RF-SCORE:    0.00 PKD
ROOT
HETATM    1  C   UNL     1     -10.745   9.968  70.354  1.00  0.00    -0.307 C  
HETATM    2  N   UNL     1     -11.801   9.607  71.262  1.00  0.00    -0.351 NA 
HETATM    3  H   UNL     1     -11.793   8.640  71.585  1.00  0.00     0.000 HD 
HETATM    4  C   UNL     1     -12.812  10.383  71.749  1.00  0.00    -0.456 C  
HETATM    5  N   UNL     1     -12.673  11.716  71.493  1.00  0.00    -0.354 NA 
HETATM    6  N   UNL     1     -13.834   9.945  72.399  1.00  0.00    -0.540 NA 
HETATM    7  C   UNL     1     -13.951   8.529  72.695  1.00  0.00    -0.151 C  
HETATM    8  H   UNL     1     -11.940  12.019  70.849  1.00  0.00     0.000 HD 
HETATM    9  H   UNL     1     -14.560  10.592  72.705  1.00  0.00     0.000 HD 
ENDROOT
BRANCH   5  10
HETATM   10  C   UNL     1     -13.528  12.720  72.103  1.00  0.00    -0.492 C  
BRANCH  10  11
HETATM   11  C   UNL     1     -12.922  14.111  72.179  1.00  0.00    -0.463 A  
HETATM   12  C   UNL     1     -12.364  14.777  71.078  1.00  0.00    -0.397 A  
HETATM   13  C   UNL     1     -11.802  16.049  71.218  1.00  0.00    -0.502 A  
HETATM   14  C   UNL     1     -11.791  16.678  72.461  1.00  0.00    -0.274 A  
HETATM   15  C   UNL     1     -12.348  16.038  73.564  1.00  0.00    -0.671 A  
HETATM   16  C   UNL     1     -12.911  14.766  73.424  1.00  0.00    -0.597 A  
ENDBRANCH  10  11
ENDBRANCH   5  10
TORSDOF 2
ENDMDL
MODEL       14
REMARK 921   NORMALIZED FREE ENERGY PREDICTED BY IDOCK:   -4.94 KCAL/MOL
REMARK 922        TOTAL FREE ENERGY PREDICTED BY IDOCK:   -5.69 KCAL/MOL
REMARK 923 INTER-LIGAND FREE ENERGY PREDICTED BY IDOCK:   -5.52 KCAL/MOL
REMARK 924 INTRA-LIGAND FREE ENERGY PREDICTED BY IDOCK:   -0.17 KCAL/MOL
REMARK 927      BINDING AFFINITY PREDICTED BY RF-SCORE:    0.00 PKD
ROOT
HETATM    1  C   UNL     1     -13.486  13.606  72.401  1.00  0.00    -0.584 C  
HETATM    2  N   UNL     1     -13.496  12.186  72.170  1.00  0.00    -0.510 NA 
HETATM    3  H   UNL     1     -14.168  11.654  72.723  1.00  0.00     0.000 HD 
HETATM    4  C   UNL     1     -12.729  11.455  71.311  1.00  0.00    -0.393 C  
HETATM    5  N   UNL     1     -12.011  12.201  70.422  1.00  0.00    -0.488 NA 
HETATM    6  N   UNL     1     -12.653  10.169  71.298  1.00  0.00    -0.368 NA 
HETATM    7  C   UNL     1     -13.450   9.388  72.225  1.00  0.00    -0.465 C  
HETATM    8  H   UNL     1     -11.969  13.213  70.550  1.00  0.00     0.000 HD 
HETATM    9  H   UNL     1     -12.032   9.701  70.638  1.00  0.00     0.000 HD 
ENDROOT
BRANCH   5  10
HETATM   10  C   UNL     1     -11.303  11.608  69.300  1.00  0.00    -0.290 C  
BRANCH  10  11
HETATM   11  C   UNL     1     -11.545  12.288  67.964  1.00  0.00    -0.408 A  
HETATM   12  C   UNL     1     -11.402  11.644  66.726  1.00  0.00    -0.354 A  
HETATM   13  C   UNL     1     -11.619  12.332  65.529  1.00  0.00    -0.422 A  
HETATM   14  C   UNL     1     -11.987  13.675  65.550  1.00  0.00    -0.409 A  
HETATM   15  C   UNL     1     -12.144  14.330  66.768  1.00  0.00    -0.446 A  
HETATM   16  C   UNL     1     -11.928  13.642  67.965  1.00  0.00    -0.385 A  
ENDBRANCH  10  11
ENDBRANCH   5  10
TORSDOF 2
ENDMDL
MODEL       15
REMARK 921   NORMALIZED FREE ENERGY PREDICTED BY IDOCK:   -4.89 KCAL/MOL
REMARK 922        TOTAL FREE ENERGY PREDICTED BY IDOCK:   -5.64 KCAL/MOL
REMARK 923 INTER-LIGAND FREE ENERGY PREDICTED BY IDOCK:   -5.44 KCAL/MOL
REMARK 924 INTRA-LIGAND FREE ENERGY PREDICTED BY IDOCK:   -0.20 KCAL/MOL
REMARK 927      BINDING AFFINITY PREDICTED BY RF-SCORE:    0.00 PKD
ROOT
HETATM    1  C   UNL     1      -7.589  16.780  68.930  1.00  0.00    -0.239 C  
HETATM    2  N   UNL     1      -8.665  17.597  68.435  1.00  0.00    -0.279 NA 
HETATM    3  H   UNL     1      -8.384  18.411  67.888  1.00  0.00     0.000 HD 
HETATM    4  C   UNL     1     -10.009  17.431  68.597  1.00  0.00    -0.340 C  
HETATM    5  N   UNL     1     -10.368  16.225  69.125  1.00  0.00    -0.253 NA 
HETATM    6  N   UNL     1     -10.905  18.306  68.296  1.00  0.00    -0.267 NA 
HETATM    7  C   UNL     1     -10.511  19.570  67.702  1.00  0.00    -0.467 C  
HETATM    8  H   UNL     1      -9.638  15.614  69.496  1.00  0.00     0.000 HD 
HETATM    9  H   UNL     1     -11.890  18.111  68.475  1.00  0.00     0.000 HD 
ENDROOT
BRANCH   5  10
HETATM   10  C   UNL     1     -11.749  15.778  69.180  1.00  0.00    -0.388 C  
BRANCH  10  11
HETATM   11  C   UNL     1     -12.349  15.733  70.575  1.00  0.00    -0.388 A  
HETATM   12  C   UNL     1     -13.666  15.334  70.843  1.00  0.00    -0.363 A  
HETATM   13  C   UNL     1     -14.166  15.335  72.148  1.00  0.00    -0.667 A  
HETATM   14  C   UNL     1     -13.354  15.733  73.208  1.00  0.00    -0.649 A  
HETATM   15  C   UNL     1     -12.041  16.124  72.965  1.00  0.00    -0.636 A  
HETATM   16  C   UNL     1     -11.541  16.122  71.660  1.00  0.00    -0.503 A  
ENDBRANCH  10  11
ENDBRANCH   5  10
TORSDOF 2
ENDMDL
MODEL       16
REMARK 921   NORMALIZED FREE ENERGY PREDICTED BY IDOCK:   -4.88 KCAL/MOL
REMARK 922        TOTAL FREE ENERGY PREDICTED BY IDOCK:   -5.62 KCAL/MOL
REMARK 923 INTER-LIGAND FREE ENERGY PREDICTED BY IDOCK:   -5.43 KCAL/MOL
REMARK 924 INTRA-LIGAND FREE ENERGY PREDICTED BY IDOCK:   -0.20 KCAL/MOL
REMARK 927      BINDING AFFINITY PREDICTED BY RF-SCORE:    0.00 PKD
ROOT
HETATM    1  C   UNL     1     -12.599  13.425  65.235  1.00  0.00    -0.464 C  
HETATM    2  N   UNL     1     -11.320  13.472  65.892  1.00  0.00    -0.305 NA 
HETATM    3  H   UNL     1     -10.530  13.134  65.343  1.00  0.00     0.000 HD 
HETATM    4  C   UNL     1     -11.021  13.906  67.151  1.00  0.00    -0.291 C  
HETATM    5  N   UNL     1     -12.040  14.563  67.777  1.00  0.00    -0.598 NA 
HETATM    6  N   UNL     1      -9.890  13.735  67.743  1.00  0.00    -0.228 NA 
HETATM    7  C   UNL     1      -8.804  13.066  67.051  1.00  0.00    -0.212 C  
HETATM    8  H   UNL     1     -12.967  14.552  67.352  1.00  0.00     0.000 HD 
HETATM    9  H   UNL     1      -9.758  14.069  68.698  1.00  0.00     0.000 HD 
ENDROOT
BRANCH   5  10
HETATM   10  C   UNL     1     -11.852  15.278  69.028  1.00  0.00    -0.318 C  
BRANCH  10  11
HETATM   11  C   UNL     1     -12.558  14.663  70.224  1.00  0.00    -0.370 A  
HETATM   12  C   UNL     1     -13.383  15.387  71.098  1.00  0.00    -0.580 A  
HETATM   13  C   UNL     1     -13.988  14.767  72.194  1.00  0.00    -0.590 A  
HETATM   14  C   UNL     1     -13.781  13.410  72.434  1.00  0.00    -0.698 A  
HETATM   15  C   UNL     1     -12.974  12.672  71.574  1.00  0.00    -0.380 A  
HETATM   16  C   UNL     1     -12.370  13.292  70.477  1.00  0.00    -0.389 A  
ENDBRANCH  10  11
ENDBRANCH   5  10
TORSDOF 2
ENDMDL
MODEL       17
REMARK 921   NORMALIZED FREE ENERGY PREDICTED BY IDOCK:   -4.88 KCAL/MOL
REMARK 922        TOTAL FREE ENERGY PREDICTED BY IDOCK:   -5.62 KCAL/MOL
REMARK 923 INTER-LIGAND FREE ENERGY PREDICTED BY IDOCK:   -5.47 KCAL/MOL
REMARK 924 INTRA-LIGAND FREE ENERGY PREDICTED BY IDOCK:   -0.15 KCAL/MOL
REMARK 927      BINDING AFFINITY PREDICTED BY RF-SCORE:    0.00 PKD
ROOT
HETATM    1  C   UNL     1     -14.298  15.047  71.827  1.00  0.00    -0.580 C  
HETATM    2  N   UNL     1     -13.232  15.284  70.890  1.00  0.00    -0.603 NA 
HETATM    3  H   UNL     1     -12.997  16.263  70.729  1.00  0.00     0.000 HD 
HETATM    4  C   UNL     1     -12.493  14.377  70.189  1.00  0.00    -0.339 C  
HETATM    5  N   UNL     1     -12.661  13.083  70.589  1.00  0.00    -0.243 NA 
HETATM    6  N   UNL     1     -11.692  14.664  69.222  1.00  0.00    -0.295 NA 
HETATM    7  C   UNL     1     -11.495  16.048  68.831  1.00  0.00    -0.362 C  
HETATM    8  H   UNL     1     -13.409  12.865  71.248  1.00  0.00     0.000 HD 
HETATM    9  H   UNL     1     -11.196  13.920  68.731  1.00  0.00     0.000 HD 
ENDROOT
BRANCH   5  10
HETATM   10  C   UNL     1     -11.813  12.004  70.111  1.00  0.00    -0.301 C  
BRANCH  10  11
HETATM   11  C   UNL     1     -11.944  10.703  70.884  1.00  0.00    -0.469 A  
HETATM   12  C   UNL     1     -10.942   9.722  70.932  1.00  0.00    -0.411 A  
HETATM   13  C   UNL     1     -11.131   8.535  71.645  1.00  0.00    -0.360 A  
HETATM   14  C   UNL     1     -12.326   8.310  72.325  1.00  0.00    -0.410 A  
HETATM   15  C   UNL     1     -13.329   9.274  72.299  1.00  0.00    -0.547 A  
HETATM   16  C   UNL     1     -13.139  10.462  71.587  1.00  0.00    -0.553 A  
ENDBRANCH  10  11
ENDBRANCH   5  10
TORSDOF 2
ENDMDL
MODEL       18
REMARK 921   NORMALIZED FREE ENERGY PREDICTED BY IDOCK:   -4.87 KCAL/MOL
REMARK 922        TOTAL FREE ENERGY PREDICTED BY IDOCK:   -5.62 KCAL/MOL
REMARK 923 INTER-LIGAND FREE ENERGY PREDICTED BY IDOCK:   -5.43 KCAL/MOL
REMARK 924 INTRA-LIGAND FREE ENERGY PREDICTED BY IDOCK:   -0.18 KCAL/MOL
REMARK 927      BINDING AFFINITY PREDICTED BY RF-SCORE:    0.00 PKD
ROOT
HETATM    1  C   UNL     1     -12.026  13.507  67.792  1.00  0.00    -0.334 C  
HETATM    2  N   UNL     1     -12.436  14.130  69.023  1.00  0.00    -0.495 NA 
HETATM    3  H   UNL     1     -13.053  13.574  69.615  1.00  0.00     0.000 HD 
HETATM    4  C   UNL     1     -12.111  15.364  69.505  1.00  0.00    -0.305 C  
HETATM    5  N   UNL     1     -11.112  15.992  68.821  1.00  0.00    -0.317 NA 
HETATM    6  N   UNL     1     -12.670  15.934  70.516  1.00  0.00    -0.588 NA 
HETATM    7  C   UNL     1     -13.707  15.240  71.256  1.00  0.00    -0.490 C  
HETATM    8  H   UNL     1     -10.792  15.590  67.938  1.00  0.00     0.000 HD 
HETATM    9  H   UNL     1     -12.385  16.873  70.795  1.00  0.00     0.000 HD 
ENDROOT
BRANCH   5  10
HETATM   10  C   UNL     1     -10.485  17.212  69.302  1.00  0.00    -0.267 C  
BRANCH  10  11
HETATM   11  C   UNL     1     -10.329  18.302  68.255  1.00  0.00    -0.379 A  
HETATM   12  C   UNL     1      -9.903  19.606  68.548  1.00  0.00    -0.519 A  
HETATM   13  C   UNL     1      -9.799  20.570  67.542  1.00  0.00    -0.534 A  
HETATM   14  C   UNL     1     -10.118  20.247  66.225  1.00  0.00    -0.460 A  
HETATM   15  C   UNL     1     -10.534  18.956  65.912  1.00  0.00    -0.450 A  
HETATM   16  C   UNL     1     -10.636  17.991  66.918  1.00  0.00    -0.291 A  
ENDBRANCH  10  11
ENDBRANCH   5  10
TORSDOF 2
ENDMDL
MODEL       19
REMARK 921   NORMALIZED FREE ENERGY PREDICTED BY IDOCK:   -4.87 KCAL/MOL
REMARK 922        TOTAL FREE ENERGY PREDICTED BY IDOCK:   -5.61 KCAL/MOL
REMARK 923 INTER-LIGAND FREE ENERGY PREDICTED BY IDOCK:   -5.45 KCAL/MOL
REMARK 924 INTRA-LIGAND FREE ENERGY PREDICTED BY IDOCK:   -0.16 KCAL/MOL
REMARK 927      BINDING AFFINITY PREDICTED BY RF-SCORE:    0.00 PKD
ROOT
HETATM    1  C   UNL     1     -10.559   8.881  70.004  1.00  0.00    -0.220 C  
HETATM    2  N   UNL     1     -11.760   8.432  70.657  1.00  0.00    -0.450 NA 
HETATM    3  H   UNL     1     -11.864   7.421  70.742  1.00  0.00     0.000 HD 
HETATM    4  C   UNL     1     -12.778   9.175  71.179  1.00  0.00    -0.213 C  
HETATM    5  N   UNL     1     -12.514  10.511  71.266  1.00  0.00    -0.389 NA 
HETATM    6  N   UNL     1     -13.911   8.705  71.571  1.00  0.00    -0.516 NA 
HETATM    7  C   UNL     1     -14.164   7.278  71.507  1.00  0.00    -0.390 C  
HETATM    8  H   UNL     1     -11.677  10.877  70.811  1.00  0.00     0.000 HD 
HETATM    9  H   UNL     1     -14.631   9.335  71.926  1.00  0.00     0.000 HD 
ENDROOT
BRANCH   5  10
HETATM   10  C   UNL     1     -13.382  11.431  71.981  1.00  0.00    -0.283 C  
BRANCH  10  11
HETATM   11  C   UNL     1     -13.114  12.901  71.706  1.00  0.00    -0.458 A  
HETATM   12  C   UNL     1     -13.681  13.947  72.448  1.00  0.00    -0.678 A  
HETATM   13  C   UNL     1     -13.411  15.281  72.132  1.00  0.00    -0.546 A  
HETATM   14  C   UNL     1     -12.566  15.592  71.069  1.00  0.00    -0.515 A  
HETATM   15  C   UNL     1     -11.986  14.569  70.325  1.00  0.00    -0.379 A  
HETATM   16  C   UNL     1     -12.255  13.235  70.643  1.00  0.00    -0.417 A  
ENDBRANCH  10  11
ENDBRANCH   5  10
TORSDOF 2
ENDMDL
MODEL       20
REMARK 921   NORMALIZED FREE ENERGY PREDICTED BY IDOCK:   -4.83 KCAL/MOL
REMARK 922        TOTAL FREE ENERGY PREDICTED BY IDOCK:   -5.56 KCAL/MOL
REMARK 923 INTER-LIGAND FREE ENERGY PREDICTED BY IDOCK:   -5.36 KCAL/MOL
REMARK 924 INTRA-LIGAND FREE ENERGY PREDICTED BY IDOCK:   -0.20 KCAL/MOL
REMARK 927      BINDING AFFINITY PREDICTED BY RF-SCORE:    0.00 PKD
ROOT
HETATM    1  C   UNL     1     -12.688  13.788  65.870  1.00  0.00    -0.401 C  
HETATM    2  N   UNL     1     -11.618  13.326  66.715  1.00  0.00    -0.346 NA 
HETATM    3  H   UNL     1     -11.087  12.532  66.359  1.00  0.00     0.000 HD 
HETATM    4  C   UNL     1     -11.219  13.808  67.928  1.00  0.00    -0.274 C  
HETATM    5  N   UNL     1     -11.782  15.001  68.274  1.00  0.00    -0.410 NA 
HETATM    6  N   UNL     1     -10.385  13.224  68.717  1.00  0.00    -0.388 NA 
HETATM    7  C   UNL     1      -9.766  11.973  68.320  1.00  0.00    -0.205 C  
HETATM    8  H   UNL     1     -12.549  15.366  67.707  1.00  0.00     0.000 HD 
HETATM    9  H   UNL     1     -10.160  13.640  69.621  1.00  0.00     0.000 HD 
ENDROOT
BRANCH   5  10
HETATM   10  C   UNL     1     -11.330  15.773  69.419  1.00  0.00    -0.348 C  
BRANCH  10  11
HETATM   11  C   UNL     1     -12.235  15.693  70.637  1.00  0.00    -0.446 A  
HETATM   12  C   UNL     1     -13.573  15.276  70.585  1.00  0.00    -0.187 A  
HETATM   13  C   UNL     1     -14.360  15.245  71.740  1.00  0.00    -0.678 A  
HETATM   14  C   UNL     1     -13.822  15.627  72.966  1.00  0.00    -0.474 A  
HETATM   15  C   UNL     1     -12.493  16.035  73.040  1.00  0.00    -0.614 A  
HETATM   16  C   UNL     1     -11.705  16.065  71.886  1.00  0.00    -0.594 A  
ENDBRANCH  10  11
ENDBRANCH   5  10
TORSDOF 2
ENDMDL
MODEL       21
REMARK 921   NORMALIZED FREE ENERGY PREDICTED BY IDOCK:   -4.81 KCAL/MOL
REMARK 922        TOTAL FREE ENERGY PREDICTED BY IDOCK:   -5.55 KCAL/MOL
REMARK 923 INTER-LIGAND FREE ENERGY PREDICTED BY IDOCK:   -5.34 KCAL/MOL
REMARK 924 INTRA-LIGAND FREE ENERGY PREDICTED BY IDOCK:   -0.21 KCAL/MOL
REMARK 927      BINDING AFFINITY PREDICTED BY RF-SCORE:    0.00 PKD
ROOT
HETATM    1  C   UNL     1      -8.604  14.030  67.160  1.00  0.00    -0.205 C  
HETATM    2  N   UNL     1      -9.795  13.398  66.659  1.00  0.00    -0.271 NA 
HETATM    3  H   UNL     1      -9.837  13.275  65.648  1.00  0.00     0.000 HD 
HETATM    4  C   UNL     1     -10.878  12.942  67.354  1.00  0.00    -0.251 C  
HETATM    5  N   UNL     1     -10.703  12.904  68.707  1.00  0.00    -0.323 NA 
HETATM    6  N   UNL     1     -11.991  12.569  66.827  1.00  0.00    -0.559 NA 
HETATM    7  C   UNL     1     -12.150  12.581  65.384  1.00  0.00    -0.435 C  
HETATM    8  H   UNL     1      -9.875  13.345  69.109  1.00  0.00     0.000 HD 
HETATM    9  H   UNL     1     -12.762  12.265  67.422  1.00  0.00     0.000 HD 
ENDROOT
BRANCH   5  10
HETATM   10  C   UNL     1     -11.654  12.257  69.596  1.00  0.00    -0.278 C  
BRANCH  10  11
HETATM   11  C   UNL     1     -12.404  13.202  70.520  1.00  0.00    -0.380 A  
HETATM   12  C   UNL     1     -12.525  14.580  70.291  1.00  0.00    -0.405 A  
HETATM   13  C   UNL     1     -13.211  15.400  71.192  1.00  0.00    -0.583 A  
HETATM   14  C   UNL     1     -13.790  14.854  72.335  1.00  0.00    -0.587 A  
HETATM   15  C   UNL     1     -13.689  13.487  72.576  1.00  0.00    -0.664 A  
HETATM   16  C   UNL     1     -13.004  12.667  71.675  1.00  0.00    -0.400 A  
ENDBRANCH  10  11
ENDBRANCH   5  10
TORSDOF 2
ENDMDL
MODEL       22
REMARK 921   NORMALIZED FREE ENERGY PREDICTED BY IDOCK:   -4.81 KCAL/MOL
REMARK 922        TOTAL FREE ENERGY PREDICTED BY IDOCK:   -5.54 KCAL/MOL
REMARK 923 INTER-LIGAND FREE ENERGY PREDICTED BY IDOCK:   -5.41 KCAL/MOL
REMARK 924 INTRA-LIGAND FREE ENERGY PREDICTED BY IDOCK:   -0.13 KCAL/MOL
REMARK 927      BINDING AFFINITY PREDICTED BY RF-SCORE:    0.00 PKD
ROOT
HETATM    1  C   UNL     1     -10.453  17.073  67.774  1.00  0.00    -0.349 C  
HETATM    2  N   UNL     1     -11.397  16.448  68.662  1.00  0.00    -0.339 NA 
HETATM    3  H   UNL     1     -11.761  17.041  69.407  1.00  0.00     0.000 HD 
HETATM    4  C   UNL     1     -11.871  15.168  68.642  1.00  0.00    -0.302 C  
HETATM    5  N   UNL     1     -11.556  14.468  67.514  1.00  0.00    -0.365 NA 
HETATM    6  N   UNL     1     -12.560  14.620  69.582  1.00  0.00    -0.576 NA 
HETATM    7  C   UNL     1     -12.918  15.388  70.759  1.00  0.00    -0.453 C  
HETATM    8  H   UNL     1     -10.885  14.869  66.857  1.00  0.00     0.000 HD 
HETATM    9  H   UNL     1     -12.853  13.646  69.499  1.00  0.00     0.000 HD 
ENDROOT
BRANCH   5  10
HETATM   10  C   UNL     1     -12.141  13.172  67.213  1.00  0.00    -0.274 C  
BRANCH  10  11
HETATM   11  C   UNL     1     -11.730  12.585  65.874  1.00  0.00    -0.480 A  
HETATM   12  C   UNL     1     -12.498  12.700  64.706  1.00  0.00    -0.555 A  
HETATM   13  C   UNL     1     -12.075  12.118  63.507  1.00  0.00    -0.649 A  
HETATM   14  C   UNL     1     -10.875  11.413  63.456  1.00  0.00    -0.430 A  
HETATM   15  C   UNL     1     -10.093  11.295  64.602  1.00  0.00    -0.343 A  
HETATM   16  C   UNL     1     -10.516  11.878  65.800  1.00  0.00    -0.295 A  
ENDBRANCH  10  11
ENDBRANCH   5  10
TORSDOF 2
ENDMDL
MODEL       23
REMARK 921   NORMALIZED FREE ENERGY PREDICTED BY IDOCK:   -4.79 KCAL/MOL
REMARK 922        TOTAL FREE ENERGY PREDICTED BY IDOCK:   -5.53 KCAL/MOL
REMARK 923 INTER-LIGAND FREE ENERGY PREDICTED BY IDOCK:   -5.35 KCAL/MOL
REMARK 924 INTRA-LIGAND FREE ENERGY PREDICTED BY IDOCK:   -0.18 KCAL/MOL
REMARK 927      BINDING AFFINITY PREDICTED BY RF-SCORE:    0.00 PKD
ROOT
HETATM    1  C   UNL     1      -8.274  13.453  67.492  1.00  0.00    -0.185 C  
HETATM    2  N   UNL     1      -9.497  12.987  66.896  1.00  0.00    -0.236 NA 
HETATM    3  H   UNL     1      -9.484  12.888  65.881  1.00  0.00     0.000 HD 
HETATM    4  C   UNL     1     -10.674  12.658  67.505  1.00  0.00    -0.225 C  
HETATM    5  N   UNL     1     -10.600  12.572  68.865  1.00  0.00    -0.385 NA 
HETATM    6  N   UNL     1     -11.786  12.438  66.895  1.00  0.00    -0.557 NA 
HETATM    7  C   UNL     1     -11.842  12.497  65.446  1.00  0.00    -0.428 C  
HETATM    8  H   UNL     1      -9.753  12.898  69.332  1.00  0.00     0.000 HD 
HETATM    9  H   UNL     1     -12.628  12.224  67.429  1.00  0.00     0.000 HD 
ENDROOT
BRANCH   5  10
HETATM   10  C   UNL     1     -11.682  12.035  69.671  1.00  0.00    -0.335 C  
BRANCH  10  11
HETATM   11  C   UNL     1     -12.401  13.058  70.533  1.00  0.00    -0.365 A  
HETATM   12  C   UNL     1     -13.090  12.735  71.712  1.00  0.00    -0.455 A  
HETATM   13  C   UNL     1     -13.751  13.721  72.450  1.00  0.00    -0.692 A  
HETATM   14  C   UNL     1     -13.731  15.047  72.025  1.00  0.00    -0.550 A  
HETATM   15  C   UNL     1     -13.045  15.390  70.863  1.00  0.00    -0.528 A  
HETATM   16  C   UNL     1     -12.384  14.404  70.125  1.00  0.00    -0.406 A  
ENDBRANCH  10  11
ENDBRANCH   5  10
TORSDOF 2
ENDMDL
MODEL       24
REMARK 921   NORMALIZED FREE ENERGY PREDICTED BY IDOCK:   -4.79 KCAL/MOL
REMARK 922        TOTAL FREE ENERGY PREDICTED BY IDOCK:   -5.52 KCAL/MOL
REMARK 923 INTER-LIGAND FREE ENERGY PREDICTED BY IDOCK:   -5.37 KCAL/MOL
REMARK 924 INTRA-LIGAND FREE ENERGY PREDICTED BY IDOCK:   -0.15 KCAL/MOL
REMARK 927      BINDING AFFINITY PREDICTED BY RF-SCORE:    0.00 PKD
ROOT
HETATM    1  C   UNL     1      -9.319   9.772  69.738  1.00  0.00    -0.226 C  
HETATM    2  N   UNL     1      -9.966   9.148  70.862  1.00  0.00    -0.264 NA 
HETATM    3  H   UNL     1      -9.454   8.379  71.294  1.00  0.00     0.000 HD 
HETATM    4  C   UNL     1     -11.172   9.445  71.427  1.00  0.00    -0.381 C  
HETATM    5  N   UNL     1     -11.728  10.611  70.988  1.00  0.00    -0.298 NA 
HETATM    6  N   UNL     1     -11.777   8.720  72.302  1.00  0.00    -0.356 NA 
HETATM    7  C   UNL     1     -11.157   7.501  72.786  1.00  0.00    -0.366 C  
HETATM    8  H   UNL     1     -11.307  11.086  70.188  1.00  0.00     0.000 HD 
HETATM    9  H   UNL     1     -12.692   9.002  72.655  1.00  0.00     0.000 HD 
ENDROOT
BRANCH   5  10
HETATM   10  C   UNL     1     -12.897  11.201  71.617  1.00  0.00    -0.419 C  
BRANCH  10  11
HETATM   11  C   UNL     1     -13.006  12.709  71.469  1.00  0.00    -0.380 A  
HETATM   12  C   UNL     1     -12.265  13.455  70.541  1.00  0.00    -0.425 A  
HETATM   13  C   UNL     1     -12.395  14.845  70.469  1.00  0.00    -0.400 A  
HETATM   14  C   UNL     1     -13.270  15.512  71.323  1.00  0.00    -0.588 A  
HETATM   15  C   UNL     1     -14.021  14.790  72.245  1.00  0.00    -0.598 A  
HETATM   16  C   UNL     1     -13.893  13.400  72.316  1.00  0.00    -0.671 A  
ENDBRANCH  10  11
ENDBRANCH   5  10
TORSDOF 2
ENDMDL
MODEL       25
REMARK 921   NORMALIZED FREE ENERGY PREDICTED BY IDOCK:   -4.79 KCAL/MOL
REMARK 922        TOTAL FREE ENERGY PREDICTED BY IDOCK:   -5.52 KCAL/MOL
REMARK 923 INTER-LIGAND FREE ENERGY PREDICTED BY IDOCK:   -5.35 KCAL/MOL
REMARK 924 INTRA-LIGAND FREE ENERGY PREDICTED BY IDOCK:   -0.17 KCAL/MOL
REMARK 927      BINDING AFFINITY PREDICTED BY RF-SCORE:    0.00 PKD
ROOT
HETATM    1  C   UNL     1     -10.301   7.046  73.945  1.00  0.00    -0.348 C  
HETATM    2  N   UNL     1     -10.815   6.809  72.623  1.00  0.00    -0.238 NA 
HETATM    3  H   UNL     1     -10.496   5.951  72.172  1.00  0.00     0.000 HD 
HETATM    4  C   UNL     1     -11.672   7.576  71.889  1.00  0.00    -0.284 C  
HETATM    5  N   UNL     1     -12.264   8.587  72.589  1.00  0.00    -0.480 NA 
HETATM    6  N   UNL     1     -11.934   7.405  70.640  1.00  0.00    -0.498 NA 
HETATM    7  C   UNL     1     -11.325   6.304  69.917  1.00  0.00    -0.434 C  
HETATM    8  H   UNL     1     -11.928   8.796  73.530  1.00  0.00     0.000 HD 
HETATM    9  H   UNL     1     -12.568   8.042  70.158  1.00  0.00     0.000 HD 
ENDROOT
BRANCH   5  10
HETATM   10  C   UNL     1     -13.356   9.376  72.044  1.00  0.00    -0.450 C  
BRANCH  10  11
HETATM   11  C   UNL     1     -12.949  10.735  71.501  1.00  0.00    -0.562 A  
HETATM   12  C   UNL     1     -12.176  10.910  70.344  1.00  0.00    -0.453 A  
HETATM   13  C   UNL     1     -11.816  12.189  69.907  1.00  0.00    -0.392 A  
HETATM   14  C   UNL     1     -12.226  13.313  70.619  1.00  0.00    -0.417 A  
HETATM   15  C   UNL     1     -13.001  13.162  71.765  1.00  0.00    -0.435 A  
HETATM   16  C   UNL     1     -13.362  11.884  72.201  1.00  0.00    -0.361 A  
ENDBRANCH  10  11
ENDBRANCH   5  10
TORSDOF 2
ENDMDL
MODEL       26
REMARK 921   NORMALIZED FREE ENERGY PREDICTED BY IDOCK:   -4.75 KCAL/MOL
REMARK 922        TOTAL FREE ENERGY PREDICTED BY IDOCK:   -5.48 KCAL/MOL
REMARK 923 INTER-LIGAND FREE ENERGY PREDICTED BY IDOCK:   -5.28 KCAL/MOL
REMARK 924 INTRA-LIGAND FREE ENERGY PREDICTED BY IDOCK:   -0.20 KCAL/MOL
REMARK 927      BINDING AFFINITY PREDICTED BY RF-SCORE:    0.00 PKD
ROOT
HETATM    1  C   UNL     1      -8.504  13.913  67.858  1.00  0.00    -0.177 C  
HETATM    2  N   UNL     1      -9.838  13.804  67.328  1.00  0.00    -0.236 NA 
HETATM    3  H   UNL     1      -9.911  13.825  66.311  1.00  0.00     0.000 HD 
HETATM    4  C   UNL     1     -11.018  13.676  68.001  1.00  0.00    -0.250 C  
HETATM    5  N   UNL     1     -10.880  13.417  69.334  1.00  0.00    -0.449 NA 
HETATM    6  N   UNL     1     -12.187  13.783  67.473  1.00  0.00    -0.439 NA 
HETATM    7  C   UNL     1     -12.317  14.022  66.047  1.00  0.00    -0.473 C  
HETATM    8  H   UNL     1      -9.954  13.489  69.756  1.00  0.00     0.000 HD 
HETATM    9  H   UNL     1     -13.020  13.699  68.054  1.00  0.00     0.000 HD 
ENDROOT
BRANCH   5  10
HETATM   10  C   UNL     1     -12.005  13.043  70.175  1.00  0.00    -0.303 C  
BRANCH  10  11
HETATM   11  C   UNL     1     -12.489  14.135  71.112  1.00  0.00    -0.445 A  
HETATM   12  C   UNL     1     -11.648  15.105  71.676  1.00  0.00    -0.463 A  
HETATM   13  C   UNL     1     -12.152  16.073  72.550  1.00  0.00    -0.635 A  
HETATM   14  C   UNL     1     -13.507  16.088  72.873  1.00  0.00    -0.532 A  
HETATM   15  C   UNL     1     -14.361  15.140  72.317  1.00  0.00    -0.559 A  
HETATM   16  C   UNL     1     -13.857  14.173  71.442  1.00  0.00    -0.321 A  
ENDBRANCH  10  11
ENDBRANCH   5  10
TORSDOF 2
ENDMDL
MODEL       27
REMARK 921   NORMALIZED FREE ENERGY PREDICTED BY IDOCK:   -4.74 KCAL/MOL
REMARK 922        TOTAL FREE ENERGY PREDICTED BY IDOCK:   -5.47 KCAL/MOL
REMARK 923 INTER-LIGAND FREE ENERGY PREDICTED BY IDOCK:   -5.33 KCAL/MOL
REMARK 924 INTRA-LIGAND FREE ENERGY PREDICTED BY IDOCK:   -0.14 KCAL/MOL
REMARK 927      BINDING AFFINITY PREDICTED BY RF-SCORE:    0.00 PKD
ROOT
HETATM    1  C   UNL     1     -11.701  12.492  65.612  1.00  0.00    -0.423 C  
HETATM    2  N   UNL     1     -11.195  11.330  66.294  1.00  0.00    -0.210 NA 
HETATM    3  H   UNL     1     -10.635  10.694  65.726  1.00  0.00     0.000 HD 
HETATM    4  C   UNL     1     -11.364  10.962  67.597  1.00  0.00    -0.270 C  
HETATM    5  N   UNL     1     -11.912  11.929  68.389  1.00  0.00    -0.453 NA 
HETATM    6  N   UNL     1     -11.052   9.813  68.088  1.00  0.00    -0.504 NA 
HETATM    7  C   UNL     1     -10.437   8.807  67.242  1.00  0.00    -0.283 C  
HETATM    8  H   UNL     1     -12.290  12.769  67.949  1.00  0.00     0.000 HD 
HETATM    9  H   UNL     1     -11.237   9.610  69.070  1.00  0.00     0.000 HD 
ENDROOT
BRANCH   5  10
HETATM   10  C   UNL     1     -11.977  11.807  69.835  1.00  0.00    -0.332 C  
BRANCH  10  11
HETATM   11  C   UNL     1     -12.456  13.054  70.558  1.00  0.00    -0.306 A  
HETATM   12  C   UNL     1     -12.296  14.354  70.056  1.00  0.00    -0.391 A  
HETATM   13  C   UNL     1     -12.741  15.463  70.780  1.00  0.00    -0.516 A  
HETATM   14  C   UNL     1     -13.356  15.291  72.018  1.00  0.00    -0.522 A  
HETATM   15  C   UNL     1     -13.533  14.009  72.530  1.00  0.00    -0.661 A  
HETATM   16  C   UNL     1     -13.089  12.900  71.805  1.00  0.00    -0.458 A  
ENDBRANCH  10  11
ENDBRANCH   5  10
TORSDOF 2
ENDMDL
MODEL       28
REMARK 921   NORMALIZED FREE ENERGY PREDICTED BY IDOCK:   -4.74 KCAL/MOL
REMARK 922        TOTAL FREE ENERGY PREDICTED BY IDOCK:   -5.47 KCAL/MOL
REMARK 923 INTER-LIGAND FREE ENERGY PREDICTED BY IDOCK:   -5.30 KCAL/MOL
REMARK 924 INTRA-LIGAND FREE ENERGY PREDICTED BY IDOCK:   -0.16 KCAL/MOL
REMARK 927      BINDING AFFINITY PREDICTED BY RF-SCORE:    0.00 PKD
ROOT
HETATM    1  C   UNL     1     -10.308  14.343  66.182  1.00  0.00    -0.298 C  
HETATM    2  N   UNL     1     -10.466  15.761  66.370  1.00  0.00    -0.297 NA 
HETATM    3  H   UNL     1     -10.512  16.317  65.517  1.00  0.00     0.000 HD 
HETATM    4  C   UNL     1     -10.561  16.463  67.537  1.00  0.00    -0.309 C  
HETATM    5  N   UNL     1     -10.731  15.688  68.648  1.00  0.00    -0.246 NA 
HETATM    6  N   UNL     1     -10.502  17.745  67.636  1.00  0.00    -0.378 NA 
HETATM    7  C   UNL     1     -10.358  18.557  66.442  1.00  0.00    -0.423 C  
HETATM    8  H   UNL     1     -10.622  14.677  68.564  1.00  0.00     0.000 HD 
HETATM    9  H   UNL     1     -10.555  18.190  68.552  1.00  0.00     0.000 HD 
ENDROOT
BRANCH   5  10
HETATM   10  C   UNL     1     -11.061  16.252  69.946  1.00  0.00    -0.347 C  
BRANCH  10  11
HETATM   11  C   UNL     1     -11.921  15.361  70.826  1.00  0.00    -0.402 A  
HETATM   12  C   UNL     1     -12.533  15.795  72.011  1.00  0.00    -0.531 A  
HETATM   13  C   UNL     1     -13.296  14.920  72.788  1.00  0.00    -0.576 A  
HETATM   14  C   UNL     1     -13.463  13.595  72.392  1.00  0.00    -0.685 A  
HETATM   15  C   UNL     1     -12.872  13.146  71.214  1.00  0.00    -0.384 A  
HETATM   16  C   UNL     1     -12.109  14.022  70.436  1.00  0.00    -0.426 A  
ENDBRANCH  10  11
ENDBRANCH   5  10
TORSDOF 2
ENDMDL
MODEL       29
REMARK 921   NORMALIZED FREE ENERGY PREDICTED BY IDOCK:   -4.72 KCAL/MOL
REMARK 922        TOTAL FREE ENERGY PREDICTED BY IDOCK:   -5.44 KCAL/MOL
REMARK 923 INTER-LIGAND FREE ENERGY PREDICTED BY IDOCK:   -5.31 KCAL/MOL
REMARK 924 INTRA-LIGAND FREE ENERGY PREDICTED BY IDOCK:   -0.14 KCAL/MOL
REMARK 927      BINDING AFFINITY PREDICTED BY RF-SCORE:    0.00 PKD
ROOT
HETATM    1  C   UNL     1     -12.034  14.129  68.897  1.00  0.00    -0.341 C  
HETATM    2  N   UNL     1     -12.739  14.493  70.098  1.00  0.00    -0.526 NA 
HETATM    3  H   UNL     1     -13.071  15.457  70.138  1.00  0.00     0.000 HD 
HETATM    4  C   UNL     1     -13.022  13.725  71.189  1.00  0.00    -0.298 C  
HETATM    5  N   UNL     1     -12.778  12.393  71.020  1.00  0.00    -0.291 NA 
HETATM    6  N   UNL     1     -13.481  14.169  72.307  1.00  0.00    -0.436 NA 
HETATM    7  C   UNL     1     -13.771  15.583  72.461  1.00  0.00    -0.574 C  
HETATM    8  H   UNL     1     -12.274  12.088  70.186  1.00  0.00     0.000 HD 
HETATM    9  H   UNL     1     -13.641  13.528  73.084  1.00  0.00     0.000 HD 
ENDROOT
BRANCH   5  10
HETATM   10  C   UNL     1     -13.208  11.394  71.983  1.00  0.00    -0.327 C  
BRANCH  10  11
HETATM   11  C   UNL     1     -12.758   9.977  71.673  1.00  0.00    -0.535 A  
HETATM   12  C   UNL     1     -11.464   9.649  71.242  1.00  0.00    -0.463 A  
HETATM   13  C   UNL     1     -11.117   8.326  70.953  1.00  0.00    -0.289 A  
HETATM   14  C   UNL     1     -12.058   7.308  71.092  1.00  0.00    -0.376 A  
HETATM   15  C   UNL     1     -13.345   7.611  71.527  1.00  0.00    -0.383 A  
HETATM   16  C   UNL     1     -13.691   8.934  71.818  1.00  0.00    -0.471 A  
ENDBRANCH  10  11
ENDBRANCH   5  10
TORSDOF 2
ENDMDL
MODEL       30
REMARK 921   NORMALIZED FREE ENERGY PREDICTED BY IDOCK:   -4.72 KCAL/MOL
REMARK 922        TOTAL FREE ENERGY PREDICTED BY IDOCK:   -5.44 KCAL/MOL
REMARK 923 INTER-LIGAND FREE ENERGY PREDICTED BY IDOCK:   -5.26 KCAL/MOL
REMARK 924 INTRA-LIGAND FREE ENERGY PREDICTED BY IDOCK:   -0.18 KCAL/MOL
REMARK 927      BINDING AFFINITY PREDICTED BY RF-SCORE:    0.00 PKD
ROOT
HETATM    1  C   UNL     1     -13.586  15.419  71.144  1.00  0.00    -0.462 C  
HETATM    2  N   UNL     1     -12.900  14.556  70.219  1.00  0.00    -0.530 NA 
HETATM    3  H   UNL     1     -13.409  13.718  69.938  1.00  0.00     0.000 HD 
HETATM    4  C   UNL     1     -11.662  14.706  69.667  1.00  0.00    -0.313 C  
HETATM    5  N   UNL     1     -11.100  15.934  69.869  1.00  0.00    -0.313 NA 
HETATM    6  N   UNL     1     -11.032  13.800  69.004  1.00  0.00    -0.280 NA 
HETATM    7  C   UNL     1     -11.656  12.512  68.765  1.00  0.00    -0.322 C  
HETATM    8  H   UNL     1     -11.548  16.578  70.522  1.00  0.00     0.000 HD 
HETATM    9  H   UNL     1     -10.095  13.986  68.646  1.00  0.00     0.000 HD 
ENDROOT
BRANCH   5  10
HETATM   10  C   UNL     1      -9.888  16.357  69.189  1.00  0.00    -0.272 C  
BRANCH  10  11
HETATM   11  C   UNL     1     -10.043  17.597  68.326  1.00  0.00    -0.362 A  
HETATM   12  C   UNL     1      -9.980  18.906  68.826  1.00  0.00    -0.466 A  
HETATM   13  C   UNL     1     -10.152  20.007  67.982  1.00  0.00    -0.557 A  
HETATM   14  C   UNL     1     -10.388  19.817  66.623  1.00  0.00    -0.614 A  
HETATM   15  C   UNL     1     -10.446  18.527  66.104  1.00  0.00    -0.447 A  
HETATM   16  C   UNL     1     -10.272  17.426  66.948  1.00  0.00    -0.322 A  
ENDBRANCH  10  11
ENDBRANCH   5  10
TORSDOF 2
ENDMDL
MODEL       31
REMARK 921   NORMALIZED FREE ENERGY PREDICTED BY IDOCK:   -4.70 KCAL/MOL
REMARK 922        TOTAL FREE ENERGY PREDICTED BY IDOCK:   -5.42 KCAL/MOL
REMARK 923 INTER-LIGAND FREE ENERGY PREDICTED BY IDOCK:   -5.25 KCAL/MOL
REMARK 924 INTRA-LIGAND FREE ENERGY PREDICTED BY IDOCK:   -0.17 KCAL/MOL
REMARK 927      BINDING AFFINITY PREDICTED BY RF-SCORE:    0.00 PKD
ROOT
HETATM    1  C   UNL     1     -12.748   8.295  72.060  1.00  0.00    -0.342 C  
HETATM    2  N   UNL     1     -11.521   8.619  71.380  1.00  0.00    -0.271 NA 
HETATM    3  H   UNL     1     -10.856   7.852  71.283  1.00  0.00     0.000 HD 
HETATM    4  C   UNL     1     -11.129   9.812  70.848  1.00  0.00    -0.357 C  
HETATM    5  N   UNL     1     -12.116  10.752  70.781  1.00  0.00    -0.344 NA 
HETATM    6  N   UNL     1      -9.941  10.081  70.431  1.00  0.00    -0.392 NA 
HETATM    7  C   UNL     1      -8.910   9.061  70.475  1.00  0.00    -0.208 C  
HETATM    8  H   UNL     1     -13.002  10.569  71.255  1.00  0.00     0.000 HD 
HETATM    9  H   UNL     1      -9.723  11.011  70.071  1.00  0.00     0.000 HD 
ENDROOT
BRANCH   5  10
HETATM   10  C   UNL     1     -11.953  12.003  70.061  1.00  0.00    -0.324 C  
BRANCH  10  11
HETATM   11  C   UNL     1     -12.480  13.229  70.788  1.00  0.00    -0.403 A  
HETATM   12  C   UNL     1     -12.095  14.541  70.479  1.00  0.00    -0.395 A  
HETATM   13  C   UNL     1     -12.601  15.627  71.200  1.00  0.00    -0.511 A  
HETATM   14  C   UNL     1     -13.503  15.417  72.241  1.00  0.00    -0.573 A  
HETATM   15  C   UNL     1     -13.905  14.123  72.558  1.00  0.00    -0.590 A  
HETATM   16  C   UNL     1     -13.400  13.038  71.836  1.00  0.00    -0.539 A  
ENDBRANCH  10  11
ENDBRANCH   5  10
TORSDOF 2
ENDMDL
MODEL       32
REMARK 921   NORMALIZED FREE ENERGY PREDICTED BY IDOCK:   -4.68 KCAL/MOL
REMARK 922        TOTAL FREE ENERGY PREDICTED BY IDOCK:   -5.40 KCAL/MOL
REMARK 923 INTER-LIGAND FREE ENERGY PREDICTED BY IDOCK:   -5.25 KCAL/MOL
REMARK 924 INTRA-LIGAND FREE ENERGY PREDICTED BY IDOCK:   -0.14 KCAL/MOL
REMARK 927      BINDING AFFINITY PREDICTED BY RF-SCORE:    0.00 PKD
ROOT
HETATM    1  C   UNL     1     -12.531  12.750  64.951  1.00  0.00    -0.497 C  
HETATM    2  N   UNL     1     -11.968  14.026  65.305  1.00  0.00    -0.360 NA 
HETATM    3  H   UNL     1     -11.900  14.704  64.547  1.00  0.00     0.000 HD 
HETATM    4  C   UNL     1     -11.511  14.451  66.519  1.00  0.00    -0.362 C  
HETATM    5  N   UNL     1     -11.822  13.624  67.559  1.00  0.00    -0.371 NA 
HETATM    6  N   UNL     1     -10.840  15.532  66.719  1.00  0.00    -0.310 NA 
HETATM    7  C   UNL     1     -10.549  16.420  65.609  1.00  0.00    -0.323 C  
HETATM    8  H   UNL     1     -12.217  12.705  67.356  1.00  0.00     0.000 HD 
HETATM    9  H   UNL     1     -10.513  15.763  67.657  1.00  0.00     0.000 HD 
ENDROOT
BRANCH   5  10
HETATM   10  C   UNL     1     -11.609  14.004  68.945  1.00  0.00    -0.315 C  
BRANCH  10  11
HETATM   11  C   UNL     1     -12.096  12.988  69.965  1.00  0.00    -0.367 A  
HETATM   12  C   UNL     1     -12.764  13.333  71.149  1.00  0.00    -0.404 A  
HETATM   13  C   UNL     1     -13.168  12.351  72.057  1.00  0.00    -0.514 A  
HETATM   14  C   UNL     1     -12.914  11.007  71.796  1.00  0.00    -0.544 A  
HETATM   15  C   UNL     1     -12.260  10.643  70.622  1.00  0.00    -0.459 A  
HETATM   16  C   UNL     1     -11.857  11.624  69.713  1.00  0.00    -0.428 A  
ENDBRANCH  10  11
ENDBRANCH   5  10
TORSDOF 2
ENDMDL
MODEL       33
REMARK 921   NORMALIZED FREE ENERGY PREDICTED BY IDOCK:   -4.66 KCAL/MOL
REMARK 922        TOTAL FREE ENERGY PREDICTED BY IDOCK:   -5.38 KCAL/MOL
REMARK 923 INTER-LIGAND FREE ENERGY PREDICTED BY IDOCK:   -5.23 KCAL/MOL
REMARK 924 INTRA-LIGAND FREE ENERGY PREDICTED BY IDOCK:   -0.15 KCAL/MOL
REMARK 927      BINDING AFFINITY PREDICTED BY RF-SCORE:    0.00 PKD
ROOT
HETATM    1  C   UNL     1     -12.461  13.910  65.360  1.00  0.00    -0.501 C  
HETATM    2  N   UNL     1     -12.067  13.440  66.661  1.00  0.00    -0.390 NA 
HETATM    3  H   UNL     1     -12.143  12.433  66.808  1.00  0.00     0.000 HD 
HETATM    4  C   UNL     1     -11.604  14.157  67.726  1.00  0.00    -0.347 C  
HETATM    5  N   UNL     1     -11.290  15.454  67.438  1.00  0.00    -0.290 NA 
HETATM    6  N   UNL     1     -11.459  13.699  68.920  1.00  0.00    -0.281 NA 
HETATM    7  C   UNL     1     -11.762  12.308  69.204  1.00  0.00    -0.323 C  
HETATM    8  H   UNL     1     -11.556  15.834  66.528  1.00  0.00     0.000 HD 
HETATM    9  H   UNL     1     -11.131  14.312  69.666  1.00  0.00     0.000 HD 
ENDROOT
BRANCH   5  10
HETATM   10  C   UNL     1     -10.591  16.313  68.378  1.00  0.00    -0.301 C  
BRANCH  10  11
HETATM   11  C   UNL     1     -10.357  17.732  67.890  1.00  0.00    -0.388 A  
HETATM   12  C   UNL     1     -10.014  18.799  68.734  1.00  0.00    -0.442 A  
HETATM   13  C   UNL     1      -9.832  20.088  68.225  1.00  0.00    -0.475 A  
HETATM   14  C   UNL     1      -9.988  20.332  66.863  1.00  0.00    -0.592 A  
HETATM   15  C   UNL     1     -10.319  19.285  66.006  1.00  0.00    -0.556 A  
HETATM   16  C   UNL     1     -10.499  17.996  66.515  1.00  0.00    -0.341 A  
ENDBRANCH  10  11
ENDBRANCH   5  10
TORSDOF 2
ENDMDL
MODEL       34
REMARK 921   NORMALIZED FREE ENERGY PREDICTED BY IDOCK:   -4.65 KCAL/MOL
REMARK 922        TOTAL FREE ENERGY PREDICTED BY IDOCK:   -5.37 KCAL/MOL
REMARK 923 INTER-LIGAND FREE ENERGY PREDICTED BY IDOCK:   -5.16 KCAL/MOL
REMARK 924 INTRA-LIGAND FREE ENERGY PREDICTED BY IDOCK:   -0.21 KCAL/MOL
REMARK 927      BINDING AFFINITY PREDICTED BY RF-SCORE:    0.00 PKD
ROOT
HETATM    1  C   UNL     1     -13.150  15.394  71.282  1.00  0.00    -0.493 C  
HETATM    2  N   UNL     1     -12.978  13.979  71.082  1.00  0.00    -0.337 NA 
HETATM    3  H   UNL     1     -13.635  13.380  71.582  1.00  0.00     0.000 HD 
HETATM    4  C   UNL     1     -12.055  13.331  70.314  1.00  0.00    -0.335 C  
HETATM    5  N   UNL     1     -11.345  14.144  69.479  1.00  0.00    -0.283 NA 
HETATM    6  N   UNL     1     -11.834  12.062  70.336  1.00  0.00    -0.519 NA 
HETATM    7  C   UNL     1     -12.622  11.205  71.202  1.00  0.00    -0.409 C  
HETATM    8  H   UNL     1     -11.430  15.155  69.588  1.00  0.00     0.000 HD 
HETATM    9  H   UNL     1     -11.105  11.660  69.747  1.00  0.00     0.000 HD 
ENDROOT
BRANCH   5  10
HETATM   10  C   UNL     1     -10.472  13.623  68.442  1.00  0.00    -0.246 C  
BRANCH  10  11
HETATM   11  C   UNL     1     -10.992  13.799  67.025  1.00  0.00    -0.297 A  
HETATM   12  C   UNL     1     -10.750  14.938  66.244  1.00  0.00    -0.320 A  
HETATM   13  C   UNL     1     -11.275  15.049  64.953  1.00  0.00    -0.423 A  
HETATM   14  C   UNL     1     -12.049  14.020  64.421  1.00  0.00    -0.486 A  
HETATM   15  C   UNL     1     -12.293  12.877  65.177  1.00  0.00    -0.547 A  
HETATM   16  C   UNL     1     -11.767  12.766  66.467  1.00  0.00    -0.463 A  
ENDBRANCH  10  11
ENDBRANCH   5  10
TORSDOF 2
ENDMDL
MODEL       35
REMARK 921   NORMALIZED FREE ENERGY PREDICTED BY IDOCK:   -4.62 KCAL/MOL
REMARK 922        TOTAL FREE ENERGY PREDICTED BY IDOCK:   -5.33 KCAL/MOL
REMARK 923 INTER-LIGAND FREE ENERGY PREDICTED BY IDOCK:   -5.16 KCAL/MOL
REMARK 924 INTRA-LIGAND FREE ENERGY PREDICTED BY IDOCK:   -0.18 KCAL/MOL
REMARK 927      BINDING AFFINITY PREDICTED BY RF-SCORE:    0.00 PKD
ROOT
HETATM    1  C   UNL     1     -10.232  17.795  67.116  1.00  0.00    -0.353 C  
HETATM    2  N   UNL     1      -9.473  16.925  67.973  1.00  0.00    -0.238 NA 
HETATM    3  H   UNL     1      -8.498  17.189  68.117  1.00  0.00     0.000 HD 
HETATM    4  C   UNL     1      -9.879  15.794  68.621  1.00  0.00    -0.210 C  
HETATM    5  N   UNL     1     -11.228  15.591  68.606  1.00  0.00    -0.304 NA 
HETATM    6  N   UNL     1      -9.098  14.958  69.211  1.00  0.00    -0.379 NA 
HETATM    7  C   UNL     1      -7.668  15.207  69.250  1.00  0.00    -0.204 C  
HETATM    8  H   UNL     1     -11.808  16.180  68.006  1.00  0.00     0.000 HD 
HETATM    9  H   UNL     1      -9.482  14.121  69.650  1.00  0.00     0.000 HD 
ENDROOT
BRANCH   5  10
HETATM   10  C   UNL     1     -11.870  14.566  69.411  1.00  0.00    -0.325 C  
BRANCH  10  11
HETATM   11  C   UNL     1     -12.426  15.055  70.737  1.00  0.00    -0.411 A  
HETATM   12  C   UNL     1     -11.639  15.628  71.747  1.00  0.00    -0.531 A  
HETATM   13  C   UNL     1     -12.208  16.040  72.955  1.00  0.00    -0.637 A  
HETATM   14  C   UNL     1     -13.575  15.887  73.174  1.00  0.00    -0.580 A  
HETATM   15  C   UNL     1     -14.376  15.329  72.181  1.00  0.00    -0.651 A  
HETATM   16  C   UNL     1     -13.807  14.918  70.972  1.00  0.00    -0.332 A  
ENDBRANCH  10  11
ENDBRANCH   5  10
TORSDOF 2
ENDMDL
MODEL       36
REMARK 921   NORMALIZED FREE ENERGY PREDICTED BY IDOCK:   -4.58 KCAL/MOL
REMARK 922        TOTAL FREE ENERGY PREDICTED BY IDOCK:   -5.29 KCAL/MOL
REMARK 923 INTER-LIGAND FREE ENERGY PREDICTED BY IDOCK:   -5.10 KCAL/MOL
REMARK 924 INTRA-LIGAND FREE ENERGY PREDICTED BY IDOCK:   -0.19 KCAL/MOL
REMARK 927      BINDING AFFINITY PREDICTED BY RF-SCORE:    0.00 PKD
ROOT
HETATM    1  C   UNL     1     -12.228  13.952  70.452  1.00  0.00    -0.368 C  
HETATM    2  N   UNL     1     -11.532  14.936  69.666  1.00  0.00    -0.277 NA 
HETATM    3  H   UNL     1     -10.889  15.537  70.181  1.00  0.00     0.000 HD 
HETATM    4  C   UNL     1     -11.615  15.173  68.325  1.00  0.00    -0.339 C  
HETATM    5  N   UNL     1     -12.295  14.218  67.625  1.00  0.00    -0.582 NA 
HETATM    6  N   UNL     1     -11.115  16.195  67.722  1.00  0.00    -0.297 NA 
HETATM    7  C   UNL     1     -10.364  17.183  68.474  1.00  0.00    -0.364 C  
HETATM    8  H   UNL     1     -12.809  13.504  68.141  1.00  0.00     0.000 HD 
HETATM    9  H   UNL     1     -11.246  16.310  66.717  1.00  0.00     0.000 HD 
ENDROOT
BRANCH   5  10
HETATM   10  C   UNL     1     -12.312  14.183  66.173  1.00  0.00    -0.436 C  
BRANCH  10  11
HETATM   11  C   UNL     1     -11.591  12.995  65.557  1.00  0.00    -0.382 A  
HETATM   12  C   UNL     1     -11.046  11.943  66.307  1.00  0.00    -0.364 A  
HETATM   13  C   UNL     1     -10.375  10.888  65.682  1.00  0.00    -0.305 A  
HETATM   14  C   UNL     1     -10.241  10.866  64.295  1.00  0.00    -0.430 A  
HETATM   15  C   UNL     1     -10.784  11.896  63.532  1.00  0.00    -0.504 A  
HETATM   16  C   UNL     1     -11.455  12.950  64.157  1.00  0.00    -0.449 A  
ENDBRANCH  10  11
ENDBRANCH   5  10
TORSDOF 2
ENDMDL
MODEL       37
REMARK 921   NORMALIZED FREE ENERGY PREDICTED BY IDOCK:   -4.56 KCAL/MOL
REMARK 922        TOTAL FREE ENERGY PREDICTED BY IDOCK:   -5.27 KCAL/MOL
REMARK 923 INTER-LIGAND FREE ENERGY PREDICTED BY IDOCK:   -5.11 KCAL/MOL
REMARK 924 INTRA-LIGAND FREE ENERGY PREDICTED BY IDOCK:   -0.16 KCAL/MOL
REMARK 927      BINDING AFFINITY PREDICTED BY RF-SCORE:    0.00 PKD
ROOT
HETATM    1  C   UNL     1     -12.203  13.812  70.475  1.00  0.00    -0.369 C  
HETATM    2  N   UNL     1     -12.223  12.377  70.573  1.00  0.00    -0.391 NA 
HETATM    3  H   UNL     1     -12.671  11.998  71.407  1.00  0.00     0.000 HD 
HETATM    4  C   UNL     1     -11.724  11.454  69.701  1.00  0.00    -0.345 C  
HETATM    5  N   UNL     1     -11.343  11.966  68.495  1.00  0.00    -0.250 NA 
HETATM    6  N   UNL     1     -11.601  10.196  69.946  1.00  0.00    -0.365 NA 
HETATM    7  C   UNL     1     -12.045   9.659  71.219  1.00  0.00    -0.371 C  
HETATM    8  H   UNL     1     -11.307  12.980  68.381  1.00  0.00     0.000 HD 
HETATM    9  H   UNL     1     -11.193   9.576  69.246  1.00  0.00     0.000 HD 
ENDROOT
BRANCH   5  10
HETATM   10  C   UNL     1     -10.986  11.121  67.368  1.00  0.00    -0.290 C  
BRANCH  10  11
HETATM   11  C   UNL     1     -11.272  11.726  66.004  1.00  0.00    -0.352 A  
HETATM   12  C   UNL     1     -10.766  11.209  64.802  1.00  0.00    -0.334 A  
HETATM   13  C   UNL     1     -11.049  11.825  63.580  1.00  0.00    -0.518 A  
HETATM   14  C   UNL     1     -11.845  12.968  63.539  1.00  0.00    -0.582 A  
HETATM   15  C   UNL     1     -12.365  13.491  64.719  1.00  0.00    -0.435 A  
HETATM   16  C   UNL     1     -12.083  12.874  65.941  1.00  0.00    -0.503 A  
ENDBRANCH  10  11
ENDBRANCH   5  10
TORSDOF 2
ENDMDL
MODEL       38
REMARK 921   NORMALIZED FREE ENERGY PREDICTED BY IDOCK:   -4.54 KCAL/MOL
REMARK 922        TOTAL FREE ENERGY PREDICTED BY IDOCK:   -5.24 KCAL/MOL
REMARK 923 INTER-LIGAND FREE ENERGY PREDICTED BY IDOCK:   -5.06 KCAL/MOL
REMARK 924 INTRA-LIGAND FREE ENERGY PREDICTED BY IDOCK:   -0.18 KCAL/MOL
REMARK 927      BINDING AFFINITY PREDICTED BY RF-SCORE:    0.00 PKD
ROOT
HETATM    1  C   UNL     1      -9.185  16.151  69.063  1.00  0.00    -0.252 C  
HETATM    2  N   UNL     1     -10.525  15.967  69.553  1.00  0.00    -0.258 NA 
HETATM    3  H   UNL     1     -10.880  16.709  70.155  1.00  0.00     0.000 HD 
HETATM    4  C   UNL     1     -11.386  14.933  69.322  1.00  0.00    -0.296 C  
HETATM    5  N   UNL     1     -10.985  14.076  68.338  1.00  0.00    -0.243 NA 
HETATM    6  N   UNL     1     -12.492  14.737  69.949  1.00  0.00    -0.523 NA 
HETATM    7  C   UNL     1     -12.924  15.677  70.967  1.00  0.00    -0.458 C  
HETATM    8  H   UNL     1     -10.039  14.164  67.964  1.00  0.00     0.000 HD 
HETATM    9  H   UNL     1     -13.066  13.922  69.732  1.00  0.00     0.000 HD 
ENDROOT
BRANCH   5  10
HETATM   10  C   UNL     1     -11.855  13.042  67.805  1.00  0.00    -0.347 C  
BRANCH  10  11
HETATM   11  C   UNL     1     -11.943  13.005  66.289  1.00  0.00    -0.477 A  
HETATM   12  C   UNL     1     -11.660  11.866  65.520  1.00  0.00    -0.281 A  
HETATM   13  C   UNL     1     -11.740  11.903  64.125  1.00  0.00    -0.428 A  
HETATM   14  C   UNL     1     -12.107  13.079  63.475  1.00  0.00    -0.617 A  
HETATM   15  C   UNL     1     -12.401  14.218  64.220  1.00  0.00    -0.407 A  
HETATM   16  C   UNL     1     -12.323  14.181  65.615  1.00  0.00    -0.473 A  
ENDBRANCH  10  11
ENDBRANCH   5  10
TORSDOF 2
ENDMDL
MODEL       39
REMARK 921   NORMALIZED FREE ENERGY PREDICTED BY IDOCK:   -4.54 KCAL/MOL
REMARK 922        TOTAL FREE ENERGY PREDICTED BY IDOCK:   -5.24 KCAL/MOL
REMARK 923 INTER-LIGAND FREE ENERGY PREDICTED BY IDOCK:   -5.02 KCAL/MOL
REMARK 924 INTRA-LIGAND FREE ENERGY PREDICTED BY IDOCK:   -0.22 KCAL/MOL
REMARK 927      BINDING AFFINITY PREDICTED BY RF-SCORE:    0.00 PKD
ROOT
HETATM    1  C   UNL     1      -7.196  16.711  68.800  1.00  0.00    -0.206 C  
HETATM    2  N   UNL     1      -8.271  17.632  68.540  1.00  0.00    -0.288 NA 
HETATM    3  H   UNL     1      -7.992  18.543  68.178  1.00  0.00     0.000 HD 
HETATM    4  C   UNL     1      -9.612  17.451  68.711  1.00  0.00    -0.267 C  
HETATM    5  N   UNL     1      -9.978  16.162  68.970  1.00  0.00    -0.229 NA 
HETATM    6  N   UNL     1     -10.499  18.382  68.646  1.00  0.00    -0.396 NA 
HETATM    7  C   UNL     1     -10.098  19.742  68.334  1.00  0.00    -0.454 C  
HETATM    8  H   UNL     1      -9.250  15.474  69.168  1.00  0.00     0.000 HD 
HETATM    9  H   UNL     1     -11.481  18.166  68.814  1.00  0.00     0.000 HD 
ENDROOT
BRANCH   5  10
HETATM   10  C   UNL     1     -11.367  15.733  68.975  1.00  0.00    -0.354 C  
BRANCH  10  11
HETATM   11  C   UNL     1     -11.920  15.385  70.346  1.00  0.00    -0.387 A  
HETATM   12  C   UNL     1     -11.897  16.263  71.440  1.00  0.00    -0.394 A  
HETATM   13  C   UNL     1     -12.404  15.875  72.683  1.00  0.00    -0.581 A  
HETATM   14  C   UNL     1     -12.944  14.602  72.854  1.00  0.00    -0.592 A  
HETATM   15  C   UNL     1     -12.985  13.719  71.779  1.00  0.00    -0.441 A  
HETATM   16  C   UNL     1     -12.479  14.108  70.535  1.00  0.00    -0.431 A  
ENDBRANCH  10  11
ENDBRANCH   5  10
TORSDOF 2
ENDMDL
MODEL       40
REMARK 921   NORMALIZED FREE ENERGY PREDICTED BY IDOCK:   -4.51 KCAL/MOL
REMARK 922        TOTAL FREE ENERGY PREDICTED BY IDOCK:   -5.22 KCAL/MOL
REMARK 923 INTER-LIGAND FREE ENERGY PREDICTED BY IDOCK:   -5.06 KCAL/MOL
REMARK 924 INTRA-LIGAND FREE ENERGY PREDICTED BY IDOCK:   -0.15 KCAL/MOL
REMARK 927      BINDING AFFINITY PREDICTED BY RF-SCORE:    0.00 PKD
ROOT
HETATM    1  C   UNL     1     -12.572  11.977  63.617  1.00  0.00    -0.490 C  
HETATM    2  N   UNL     1     -12.250  13.286  64.122  1.00  0.00    -0.550 NA 
HETATM    3  H   UNL     1     -12.275  14.041  63.437  1.00  0.00     0.000 HD 
HETATM    4  C   UNL     1     -11.917  13.654  65.393  1.00  0.00    -0.378 C  
HETATM    5  N   UNL     1     -12.115  12.682  66.331  1.00  0.00    -0.565 NA 
HETATM    6  N   UNL     1     -11.450  14.805  65.731  1.00  0.00    -0.344 NA 
HETATM    7  C   UNL     1     -11.278  15.840  64.729  1.00  0.00    -0.366 C  
HETATM    8  H   UNL     1     -12.339  11.736  66.019  1.00  0.00     0.000 HD 
HETATM    9  H   UNL     1     -11.201  14.990  66.703  1.00  0.00     0.000 HD 
ENDROOT
BRANCH   5  10
HETATM   10  C   UNL     1     -12.020  12.946  67.757  1.00  0.00    -0.283 C  
BRANCH  10  11
HETATM   11  C   UNL     1     -11.682  11.733  68.606  1.00  0.00    -0.389 A  
HETATM   12  C   UNL     1     -11.092  10.567  68.097  1.00  0.00    -0.346 A  
HETATM   13  C   UNL     1     -10.825   9.475  68.928  1.00  0.00    -0.177 A  
HETATM   14  C   UNL     1     -11.142   9.532  70.284  1.00  0.00    -0.317 A  
HETATM   15  C   UNL     1     -11.720  10.684  70.810  1.00  0.00    -0.435 A  
HETATM   16  C   UNL     1     -11.986  11.776  69.980  1.00  0.00    -0.421 A  
ENDBRANCH  10  11
ENDBRANCH   5  10
TORSDOF 2
ENDMDL
MODEL       41
REMARK 921   NORMALIZED FREE ENERGY PREDICTED BY IDOCK:   -4.49 KCAL/MOL
REMARK 922        TOTAL FREE ENERGY PREDICTED BY IDOCK:   -5.19 KCAL/MOL
REMARK 923 INTER-LIGAND FREE ENERGY PREDICTED BY IDOCK:   -5.00 KCAL/MOL
REMARK 924 INTRA-LIGAND FREE ENERGY PREDICTED BY IDOCK:   -0.19 KCAL/MOL
REMARK 927      BINDING AFFINITY PREDICTED BY RF-SCORE:    0.00 PKD
ROOT
HETATM    1  C   UNL     1     -13.049  15.473  71.262  1.00  0.00    -0.511 C  
HETATM    2  N   UNL     1     -11.993  16.034  70.461  1.00  0.00    -0.444 NA 
HETATM    3  H   UNL     1     -11.400  16.718  70.930  1.00  0.00     0.000 HD 
HETATM    4  C   UNL     1     -11.679  15.775  69.158  1.00  0.00    -0.388 C  
HETATM    5  N   UNL     1     -12.329  14.700  68.625  1.00  0.00    -0.593 NA 
HETATM    6  N   UNL     1     -10.849  16.457  68.448  1.00  0.00    -0.327 NA 
HETATM    7  C   UNL     1     -10.139  17.575  69.039  1.00  0.00    -0.291 C  
HETATM    8  H   UNL     1     -13.090  14.273  69.155  1.00  0.00     0.000 HD 
HETATM    9  H   UNL     1     -10.691  16.211  67.471  1.00  0.00     0.000 HD 
ENDROOT
BRANCH   5  10
HETATM   10  C   UNL     1     -11.977  14.141  67.331  1.00  0.00    -0.404 C  
BRANCH  10  11
HETATM   11  C   UNL     1     -11.548  12.684  67.363  1.00  0.00    -0.421 A  
HETATM   12  C   UNL     1     -10.990  12.013  66.265  1.00  0.00    -0.340 A  
HETATM   13  C   UNL     1     -10.635  10.664  66.352  1.00  0.00    -0.240 A  
HETATM   14  C   UNL     1     -10.830   9.963  67.540  1.00  0.00    -0.307 A  
HETATM   15  C   UNL     1     -11.374  10.613  68.644  1.00  0.00    -0.345 A  
HETATM   16  C   UNL     1     -11.728  11.962  68.557  1.00  0.00    -0.388 A  
ENDBRANCH  10  11
ENDBRANCH   5  10
TORSDOF 2
ENDMDL
MODEL       42
REMARK 921   NORMALIZED FREE ENERGY PREDICTED BY IDOCK:   -4.48 KCAL/MOL
REMARK 922        TOTAL FREE ENERGY PREDICTED BY IDOCK:   -5.18 KCAL/MOL
REMARK 923 INTER-LIGAND FREE ENERGY PREDICTED BY IDOCK:   -4.97 KCAL/MOL
REMARK 924 INTRA-LIGAND FREE ENERGY PREDICTED BY IDOCK:   -0.21 KCAL/MOL
REMARK 927      BINDING AFFINITY PREDICTED BY RF-SCORE:    0.00 PKD
ROOT
HETATM    1  C   UNL     1     -11.575  13.341  65.317  1.00  0.00    -0.310 C  
HETATM    2  N   UNL     1     -10.452  13.667  66.155  1.00  0.00    -0.292 NA 
HETATM    3  H   UNL     1      -9.533  13.486  65.751  1.00  0.00     0.000 HD 
HETATM    4  C   UNL     1     -10.450  14.185  67.417  1.00  0.00    -0.271 C  
HETATM    5  N   UNL     1     -11.666  14.633  67.845  1.00  0.00    -0.380 NA 
HETATM    6  N   UNL     1      -9.417  14.266  68.182  1.00  0.00    -0.198 NA 
HETATM    7  C   UNL     1      -8.123  13.819  67.701  1.00  0.00    -0.177 C  
HETATM    8  H   UNL     1     -12.493  14.420  67.285  1.00  0.00     0.000 HD 
HETATM    9  H   UNL     1      -9.508  14.644  69.125  1.00  0.00     0.000 HD 
ENDROOT
BRANCH   5  10
HETATM   10  C   UNL     1     -11.826  15.403  69.067  1.00  0.00    -0.335 C  
BRANCH  10  11
HETATM   11  C   UNL     1     -12.495  14.653  70.207  1.00  0.00    -0.401 A  
HETATM   12  C   UNL     1     -12.275  13.295  70.480  1.00  0.00    -0.416 A  
HETATM   13  C   UNL     1     -12.938  12.658  71.532  1.00  0.00    -0.380 A  
HETATM   14  C   UNL     1     -13.830  13.368  72.331  1.00  0.00    -0.665 A  
HETATM   15  C   UNL     1     -14.056  14.719  72.083  1.00  0.00    -0.604 A  
HETATM   16  C   UNL     1     -13.392  15.357  71.031  1.00  0.00    -0.545 A  
ENDBRANCH  10  11
ENDBRANCH   5  10
TORSDOF 2
ENDMDL
MODEL       43
REMARK 921   NORMALIZED FREE ENERGY PREDICTED BY IDOCK:   -4.46 KCAL/MOL
REMARK 922        TOTAL FREE ENERGY PREDICTED BY IDOCK:   -5.15 KCAL/MOL
REMARK 923 INTER-LIGAND FREE ENERGY PREDICTED BY IDOCK:   -4.98 KCAL/MOL
REMARK 924 INTRA-LIGAND FREE ENERGY PREDICTED BY IDOCK:   -0.17 KCAL/MOL
REMARK 927      BINDING AFFINITY PREDICTED BY RF-SCORE:    0.00 PKD
ROOT
HETATM    1  C   UNL     1      -7.168  17.839  65.966  1.00  0.00    -0.287 C  
HETATM    2  N   UNL     1      -8.434  18.430  66.311  1.00  0.00    -0.434 NA 
HETATM    3  H   UNL     1      -8.392  19.385  66.668  1.00  0.00     0.000 HD 
HETATM    4  C   UNL     1      -9.683  17.886  66.227  1.00  0.00    -0.269 C  
HETATM    5  N   UNL     1      -9.739  16.710  65.537  1.00  0.00    -0.520 NA 
HETATM    6  N   UNL     1     -10.748  18.398  66.737  1.00  0.00    -0.314 NA 
HETATM    7  C   UNL     1     -10.679  19.668  67.436  1.00  0.00    -0.435 C  
HETATM    8  H   UNL     1      -8.866  16.250  65.276  1.00  0.00     0.000 HD 
HETATM    9  H   UNL     1     -11.641  17.912  66.650  1.00  0.00     0.000 HD 
ENDROOT
BRANCH   5  10
HETATM   10  C   UNL     1     -10.998  16.089  65.161  1.00  0.00    -0.348 C  
BRANCH  10  11
HETATM   11  C   UNL     1     -11.128  14.627  65.555  1.00  0.00    -0.345 A  
HETATM   12  C   UNL     1     -11.733  14.193  66.744  1.00  0.00    -0.432 A  
HETATM   13  C   UNL     1     -11.802  12.834  67.059  1.00  0.00    -0.428 A  
HETATM   14  C   UNL     1     -11.271  11.884  66.189  1.00  0.00    -0.387 A  
HETATM   15  C   UNL     1     -10.675  12.293  65.000  1.00  0.00    -0.336 A  
HETATM   16  C   UNL     1     -10.606  13.653  64.684  1.00  0.00    -0.446 A  
ENDBRANCH  10  11
ENDBRANCH   5  10
TORSDOF 2
ENDMDL
MODEL       44
REMARK 921   NORMALIZED FREE ENERGY PREDICTED BY IDOCK:   -4.45 KCAL/MOL
REMARK 922        TOTAL FREE ENERGY PREDICTED BY IDOCK:   -5.15 KCAL/MOL
REMARK 923 INTER-LIGAND FREE ENERGY PREDICTED BY IDOCK:   -4.95 KCAL/MOL
REMARK 924 INTRA-LIGAND FREE ENERGY PREDICTED BY IDOCK:   -0.19 KCAL/MOL
REMARK 927      BINDING AFFINITY PREDICTED BY RF-SCORE:    0.00 PKD
ROOT
HETATM    1  C   UNL     1      -8.283  13.238  67.572  1.00  0.00    -0.184 C  
HETATM    2  N   UNL     1      -9.399  13.684  66.782  1.00  0.00    -0.258 NA 
HETATM    3  H   UNL     1      -9.439  13.321  65.829  1.00  0.00     0.000 HD 
HETATM    4  C   UNL     1     -10.413  14.527  67.134  1.00  0.00    -0.267 C  
HETATM    5  N   UNL     1     -10.471  14.813  68.467  1.00  0.00    -0.243 NA 
HETATM    6  N   UNL     1     -11.268  15.037  66.317  1.00  0.00    -0.336 NA 
HETATM    7  C   UNL     1     -11.217  14.696  64.908  1.00  0.00    -0.396 C  
HETATM    8  H   UNL     1      -9.698  14.522  69.066  1.00  0.00     0.000 HD 
HETATM    9  H   UNL     1     -11.981  15.681  66.660  1.00  0.00     0.000 HD 
ENDROOT
BRANCH   5  10
HETATM   10  C   UNL     1     -11.594  15.516  69.064  1.00  0.00    -0.365 C  
BRANCH  10  11
HETATM   11  C   UNL     1     -12.329  14.740  70.143  1.00  0.00    -0.381 A  
HETATM   12  C   UNL     1     -13.184  15.334  71.083  1.00  0.00    -0.567 A  
HETATM   13  C   UNL     1     -13.816  14.566  72.065  1.00  0.00    -0.561 A  
HETATM   14  C   UNL     1     -13.605  13.190  72.123  1.00  0.00    -0.637 A  
HETATM   15  C   UNL     1     -12.767  12.580  71.194  1.00  0.00    -0.340 A  
HETATM   16  C   UNL     1     -12.136  13.347  70.211  1.00  0.00    -0.419 A  
ENDBRANCH  10  11
ENDBRANCH   5  10
TORSDOF 2
ENDMDL
MODEL       45
REMARK 921   NORMALIZED FREE ENERGY PREDICTED BY IDOCK:   -4.44 KCAL/MOL
REMARK 922        TOTAL FREE ENERGY PREDICTED BY IDOCK:   -5.13 KCAL/MOL
REMARK 923 INTER-LIGAND FREE ENERGY PREDICTED BY IDOCK:   -4.95 KCAL/MOL
REMARK 924 INTRA-LIGAND FREE ENERGY PREDICTED BY IDOCK:   -0.18 KCAL/MOL
REMARK 927      BINDING AFFINITY PREDICTED BY RF-SCORE:    0.00 PKD
ROOT
HETATM    1  C   UNL     1      -9.794   8.687  71.334  1.00  0.00    -0.256 C  
HETATM    2  N   UNL     1     -11.163   8.964  71.680  1.00  0.00    -0.319 NA 
HETATM    3  H   UNL     1     -11.584   8.329  72.358  1.00  0.00     0.000 HD 
HETATM    4  C   UNL     1     -11.976   9.961  71.223  1.00  0.00    -0.402 C  
HETATM    5  N   UNL     1     -11.333  10.927  70.504  1.00  0.00    -0.450 NA 
HETATM    6  N   UNL     1     -13.246  10.031  71.425  1.00  0.00    -0.396 NA 
HETATM    7  C   UNL     1     -13.909   9.016  72.222  1.00  0.00    -0.484 C  
HETATM    8  H   UNL     1     -10.362  10.771  70.230  1.00  0.00     0.000 HD 
HETATM    9  H   UNL     1     -13.785  10.799  71.024  1.00  0.00     0.000 HD 
ENDROOT
BRANCH   5  10
HETATM   10  C   UNL     1     -11.981  12.168  70.115  1.00  0.00    -0.314 C  
BRANCH  10  11
HETATM   11  C   UNL     1     -11.811  12.542  68.653  1.00  0.00    -0.340 A  
HETATM   12  C   UNL     1     -11.463  11.624  67.651  1.00  0.00    -0.373 A  
HETATM   13  C   UNL     1     -11.302  12.036  66.325  1.00  0.00    -0.415 A  
HETATM   14  C   UNL     1     -11.488  13.372  65.978  1.00  0.00    -0.351 A  
HETATM   15  C   UNL     1     -11.843  14.297  66.956  1.00  0.00    -0.455 A  
HETATM   16  C   UNL     1     -12.006  13.885  68.281  1.00  0.00    -0.392 A  
ENDBRANCH  10  11
ENDBRANCH   5  10
TORSDOF 2
ENDMDL
MODEL       46
REMARK 921   NORMALIZED FREE ENERGY PREDICTED BY IDOCK:   -4.43 KCAL/MOL
REMARK 922        TOTAL FREE ENERGY PREDICTED BY IDOCK:   -5.12 KCAL/MOL
REMARK 923 INTER-LIGAND FREE ENERGY PREDICTED BY IDOCK:   -4.93 KCAL/MOL
REMARK 924 INTRA-LIGAND FREE ENERGY PREDICTED BY IDOCK:   -0.19 KCAL/MOL
REMARK 927      BINDING AFFINITY PREDICTED BY RF-SCORE:    0.00 PKD
ROOT
HETATM    1  C   UNL     1     -12.928  11.810  71.935  1.00  0.00    -0.330 C  
HETATM    2  N   UNL     1     -13.168  13.219  72.098  1.00  0.00    -0.460 NA 
HETATM    3  H   UNL     1     -13.698  13.482  72.929  1.00  0.00     0.000 HD 
HETATM    4  C   UNL     1     -12.783  14.251  71.293  1.00  0.00    -0.357 C  
HETATM    5  N   UNL     1     -11.886  13.905  70.324  1.00  0.00    -0.415 NA 
HETATM    6  N   UNL     1     -13.200  15.464  71.394  1.00  0.00    -0.470 NA 
HETATM    7  C   UNL     1     -14.126  15.825  72.452  1.00  0.00    -0.403 C  
HETATM    8  H   UNL     1     -11.689  12.916  70.167  1.00  0.00     0.000 HD 
HETATM    9  H   UNL     1     -12.881  16.172  70.732  1.00  0.00     0.000 HD 
ENDROOT
BRANCH   5  10
HETATM   10  C   UNL     1     -11.202  14.893  69.508  1.00  0.00    -0.277 C  
BRANCH  10  11
HETATM   11  C   UNL     1     -11.345  14.690  68.009  1.00  0.00    -0.329 A  
HETATM   12  C   UNL     1     -12.103  13.660  67.433  1.00  0.00    -0.375 A  
HETATM   13  C   UNL     1     -12.179  13.514  66.045  1.00  0.00    -0.493 A  
HETATM   14  C   UNL     1     -11.499  14.397  65.209  1.00  0.00    -0.350 A  
HETATM   15  C   UNL     1     -10.749  15.431  65.761  1.00  0.00    -0.360 A  
HETATM   16  C   UNL     1     -10.674  15.579  67.149  1.00  0.00    -0.315 A  
ENDBRANCH  10  11
ENDBRANCH   5  10
TORSDOF 2
ENDMDL
MODEL       47
REMARK 921   NORMALIZED FREE ENERGY PREDICTED BY IDOCK:   -4.43 KCAL/MOL
REMARK 922        TOTAL FREE ENERGY PREDICTED BY IDOCK:   -5.12 KCAL/MOL
REMARK 923 INTER-LIGAND FREE ENERGY PREDICTED BY IDOCK:   -4.98 KCAL/MOL
REMARK 924 INTRA-LIGAND FREE ENERGY PREDICTED BY IDOCK:   -0.14 KCAL/MOL
REMARK 927      BINDING AFFINITY PREDICTED BY RF-SCORE:    0.00 PKD
ROOT
HETATM    1  C   UNL     1     -11.693  12.390  66.273  1.00  0.00    -0.395 C  
HETATM    2  N   UNL     1     -11.790  13.508  67.173  1.00  0.00    -0.376 NA 
HETATM    3  H   UNL     1     -11.882  14.423  66.732  1.00  0.00     0.000 HD 
HETATM    4  C   UNL     1     -11.775  13.510  68.538  1.00  0.00    -0.357 C  
HETATM    5  N   UNL     1     -11.887  12.274  69.104  1.00  0.00    -0.310 NA 
HETATM    6  N   UNL     1     -11.667  14.560  69.275  1.00  0.00    -0.292 NA 
HETATM    7  C   UNL     1     -11.586  15.872  68.659  1.00  0.00    -0.380 C  
HETATM    8  H   UNL     1     -11.817  11.450  68.505  1.00  0.00     0.000 HD 
HETATM    9  H   UNL     1     -11.638  14.471  70.290  1.00  0.00     0.000 HD 
ENDROOT
BRANCH   5  10
HETATM   10  C   UNL     1     -12.100  12.087  70.529  1.00  0.00    -0.311 C  
BRANCH  10  11
HETATM   11  C   UNL     1     -12.127  10.638  70.984  1.00  0.00    -0.473 A  
HETATM   12  C   UNL     1     -11.215   9.667  70.543  1.00  0.00    -0.359 A  
HETATM   13  C   UNL     1     -11.306   8.344  70.983  1.00  0.00    -0.303 A  
HETATM   14  C   UNL     1     -12.310   7.969  71.873  1.00  0.00    -0.360 A  
HETATM   15  C   UNL     1     -13.220   8.918  72.329  1.00  0.00    -0.498 A  
HETATM   16  C   UNL     1     -13.128  10.242  71.891  1.00  0.00    -0.568 A  
ENDBRANCH  10  11
ENDBRANCH   5  10
TORSDOF 2
ENDMDL
MODEL       48
REMARK 921   NORMALIZED FREE ENERGY PREDICTED BY IDOCK:   -4.41 KCAL/MOL
REMARK 922        TOTAL FREE ENERGY PREDICTED BY IDOCK:   -5.10 KCAL/MOL
REMARK 923 INTER-LIGAND FREE ENERGY PREDICTED BY IDOCK:   -4.95 KCAL/MOL
REMARK 924 INTRA-LIGAND FREE ENERGY PREDICTED BY IDOCK:   -0.15 KCAL/MOL
REMARK 927      BINDING AFFINITY PREDICTED BY RF-SCORE:    0.00 PKD
ROOT
HETATM    1  C   UNL     1      -9.080  10.087  66.250  1.00  0.00    -0.151 C  
HETATM    2  N   UNL     1     -10.271  10.855  66.004  1.00  0.00    -0.247 NA 
HETATM    3  H   UNL     1     -10.534  10.959  65.024  1.00  0.00     0.000 HD 
HETATM    4  C   UNL     1     -11.097  11.464  66.904  1.00  0.00    -0.295 C  
HETATM    5  N   UNL     1     -10.863  11.122  68.204  1.00  0.00    -0.202 NA 
HETATM    6  N   UNL     1     -12.031  12.298  66.604  1.00  0.00    -0.622 NA 
HETATM    7  C   UNL     1     -12.291  12.625  65.215  1.00  0.00    -0.466 C  
HETATM    8  H   UNL     1     -10.026  10.582  68.428  1.00  0.00     0.000 HD 
HETATM    9  H   UNL     1     -12.587  12.730  67.343  1.00  0.00     0.000 HD 
ENDROOT
BRANCH   5  10
HETATM   10  C   UNL     1     -11.762  11.497  69.281  1.00  0.00    -0.330 C  
BRANCH  10  11
HETATM   11  C   UNL     1     -11.858  10.487  70.412  1.00  0.00    -0.431 A  
HETATM   12  C   UNL     1     -10.779   9.703  70.847  1.00  0.00    -0.402 A  
HETATM   13  C   UNL     1     -10.937   8.774  71.879  1.00  0.00    -0.435 A  
HETATM   14  C   UNL     1     -12.176   8.616  72.496  1.00  0.00    -0.374 A  
HETATM   15  C   UNL     1     -13.257   9.391  72.086  1.00  0.00    -0.541 A  
HETATM   16  C   UNL     1     -13.099  10.320  71.054  1.00  0.00    -0.458 A  
ENDBRANCH  10  11
ENDBRANCH   5  10
TORSDOF 2
ENDMDL
MODEL       49
REMARK 921   NORMALIZED FREE ENERGY PREDICTED BY IDOCK:   -4.41 KCAL/MOL
REMARK 922        TOTAL FREE ENERGY PREDICTED BY IDOCK:   -5.10 KCAL/MOL
REMARK 923 INTER-LIGAND FREE ENERGY PREDICTED BY IDOCK:   -4.93 KCAL/MOL
REMARK 924 INTRA-LIGAND FREE ENERGY PREDICTED BY IDOCK:   -0.16 KCAL/MOL
REMARK 927      BINDING AFFINITY PREDICTED BY RF-SCORE:    0.00 PKD
ROOT
HETATM    1  C   UNL     1      -9.864  10.777  65.646  1.00  0.00    -0.245 C  
HETATM    2  N   UNL     1     -10.903  11.769  65.720  1.00  0.00    -0.284 NA 
HETATM    3  H   UNL     1     -11.317  12.042  64.828  1.00  0.00     0.000 HD 
HETATM    4  C   UNL     1     -11.410  12.395  66.821  1.00  0.00    -0.335 C  
HETATM    5  N   UNL     1     -11.013  11.855  68.010  1.00  0.00    -0.211 NA 
HETATM    6  N   UNL     1     -12.199  13.413  66.796  1.00  0.00    -0.353 NA 
HETATM    7  C   UNL     1     -12.642  13.954  65.525  1.00  0.00    -0.526 C  
HETATM    8  H   UNL     1     -10.273  11.152  68.007  1.00  0.00     0.000 HD 
HETATM    9  H   UNL     1     -12.512  13.838  67.669  1.00  0.00     0.000 HD 
ENDROOT
BRANCH   5  10
HETATM   10  C   UNL     1     -11.605  12.244  69.278  1.00  0.00    -0.324 C  
BRANCH  10  11
HETATM   11  C   UNL     1     -11.863  11.095  70.238  1.00  0.00    -0.455 A  
HETATM   12  C   UNL     1     -12.878  11.103  71.206  1.00  0.00    -0.515 A  
HETATM   13  C   UNL     1     -13.050  10.022  72.075  1.00  0.00    -0.541 A  
HETATM   14  C   UNL     1     -12.212   8.913  71.989  1.00  0.00    -0.447 A  
HETATM   15  C   UNL     1     -11.204   8.881  71.030  1.00  0.00    -0.342 A  
HETATM   16  C   UNL     1     -11.032   9.962  70.160  1.00  0.00    -0.356 A  
ENDBRANCH  10  11
ENDBRANCH   5  10
TORSDOF 2
ENDMDL
MODEL       50
REMARK 921   NORMALIZED FREE ENERGY PREDICTED BY IDOCK:   -4.40 KCAL/MOL
REMARK 922        TOTAL FREE ENERGY PREDICTED BY IDOCK:   -5.09 KCAL/MOL
REMARK 923 INTER-LIGAND FREE ENERGY PREDICTED BY IDOCK:   -4.93 KCAL/MOL
REMARK 924 INTRA-LIGAND FREE ENERGY PREDICTED BY IDOCK:   -0.17 KCAL/MOL
REMARK 927      BINDING AFFINITY PREDICTED BY RF-SCORE:    0.00 PKD
ROOT
HETATM    1  C   UNL     1      -9.149   9.847  69.801  1.00  0.00    -0.225 C  
HETATM    2  N   UNL     1     -10.412  10.221  70.378  1.00  0.00    -0.430 NA 
HETATM    3  H   UNL     1     -10.618   9.815  71.291  1.00  0.00     0.000 HD 
HETATM    4  C   UNL     1     -11.374  11.045  69.869  1.00  0.00    -0.287 C  
HETATM    5  N   UNL     1     -10.984  11.754  68.770  1.00  0.00    -0.222 NA 
HETATM    6  N   UNL     1     -12.562  11.179  70.347  1.00  0.00    -0.275 NA 
HETATM    7  C   UNL     1     -12.951  10.446  71.537  1.00  0.00    -0.458 C  
HETATM    8  H   UNL     1     -10.097  11.519  68.323  1.00  0.00     0.000 HD 
HETATM    9  H   UNL     1     -13.230  11.799  69.888  1.00  0.00     0.000 HD 
ENDROOT
BRANCH   5  10
HETATM   10  C   UNL     1     -11.785  12.831  68.214  1.00  0.00    -0.344 C  
BRANCH  10  11
HETATM   11  C   UNL     1     -11.797  12.896  66.696  1.00  0.00    -0.461 A  
HETATM   12  C   UNL     1     -11.266  11.894  65.871  1.00  0.00    -0.373 A  
HETATM   13  C   UNL     1     -11.289  12.024  64.479  1.00  0.00    -0.393 A  
HETATM   14  C   UNL     1     -11.845  13.156  63.890  1.00  0.00    -0.533 A  
HETATM   15  C   UNL     1     -12.386  14.158  64.691  1.00  0.00    -0.432 A  
HETATM   16  C   UNL     1     -12.365  14.028  66.082  1.00  0.00    -0.491 A  
ENDBRANCH  10  11
ENDBRANCH   5  10
TORSDOF 2
ENDMDL
MODEL       51
REMARK 921   NORMALIZED FREE ENERGY PREDICTED BY IDOCK:   -4.40 KCAL/MOL
REMARK 922        TOTAL FREE ENERGY PREDICTED BY IDOCK:   -5.09 KCAL/MOL
REMARK 923 INTER-LIGAND FREE ENERGY PREDICTED BY IDOCK:   -4.88 KCAL/MOL
REMARK 924 INTRA-LIGAND FREE ENERGY PREDICTED BY IDOCK:   -0.21 KCAL/MOL
REMARK 927      BINDING AFFINITY PREDICTED BY RF-SCORE:    0.00 PKD
ROOT
HETATM    1  C   UNL     1     -10.016   7.921  73.182  1.00  0.00    -0.290 C  
HETATM    2  N   UNL     1      -9.477   8.504  71.982  1.00  0.00    -0.269 NA 
HETATM    3  H   UNL     1      -8.536   8.204  71.730  1.00  0.00     0.000 HD 
HETATM    4  C   UNL     1     -10.055   9.404  71.135  1.00  0.00    -0.265 C  
HETATM    5  N   UNL     1     -11.386   9.613  71.357  1.00  0.00    -0.379 NA 
HETATM    6  N   UNL     1      -9.443  10.031  70.192  1.00  0.00    -0.396 NA 
HETATM    7  C   UNL     1      -8.036   9.773  69.945  1.00  0.00    -0.182 C  
HETATM    8  H   UNL     1     -11.811   9.224  72.199  1.00  0.00     0.000 HD 
HETATM    9  H   UNL     1      -9.945  10.710  69.619  1.00  0.00     0.000 HD 
ENDROOT
BRANCH   5  10
HETATM   10  C   UNL     1     -12.219  10.368  70.437  1.00  0.00    -0.303 C  
BRANCH  10  11
HETATM   11  C   UNL     1     -12.541  11.783  70.886  1.00  0.00    -0.384 A  
HETATM   12  C   UNL     1     -13.259  12.084  72.053  1.00  0.00    -0.481 A  
HETATM   13  C   UNL     1     -13.541  13.408  72.401  1.00  0.00    -0.708 A  
HETATM   14  C   UNL     1     -13.108  14.454  71.590  1.00  0.00    -0.421 A  
HETATM   15  C   UNL     1     -12.386  14.177  70.432  1.00  0.00    -0.428 A  
HETATM   16  C   UNL     1     -12.102  12.853  70.085  1.00  0.00    -0.373 A  
ENDBRANCH  10  11
ENDBRANCH   5  10
TORSDOF 2
ENDMDL
MODEL       52
REMARK 921   NORMALIZED FREE ENERGY PREDICTED BY IDOCK:   -4.39 KCAL/MOL
REMARK 922        TOTAL FREE ENERGY PREDICTED BY IDOCK:   -5.08 KCAL/MOL
REMARK 923 INTER-LIGAND FREE ENERGY PREDICTED BY IDOCK:   -4.90 KCAL/MOL
REMARK 924 INTRA-LIGAND FREE ENERGY PREDICTED BY IDOCK:   -0.18 KCAL/MOL
REMARK 927      BINDING AFFINITY PREDICTED BY RF-SCORE:    0.00 PKD
ROOT
HETATM    1  C   UNL     1      -9.769  17.215  68.557  1.00  0.00    -0.291 C  
HETATM    2  N   UNL     1     -10.933  16.620  69.158  1.00  0.00    -0.305 NA 
HETATM    3  H   UNL     1     -11.270  17.071  70.008  1.00  0.00     0.000 HD 
HETATM    4  C   UNL     1     -11.647  15.533  68.744  1.00  0.00    -0.378 C  
HETATM    5  N   UNL     1     -11.326  15.091  67.493  1.00  0.00    -0.331 NA 
HETATM    6  N   UNL     1     -12.556  14.938  69.435  1.00  0.00    -0.583 NA 
HETATM    7  C   UNL     1     -12.912  15.442  70.749  1.00  0.00    -0.453 C  
HETATM    8  H   UNL     1     -10.504  15.480  67.030  1.00  0.00     0.000 HD 
HETATM    9  H   UNL     1     -13.025  14.113  69.061  1.00  0.00     0.000 HD 
ENDROOT
BRANCH   5  10
HETATM   10  C   UNL     1     -12.112  14.086  66.797  1.00  0.00    -0.447 C  
BRANCH  10  11
HETATM   11  C   UNL     1     -11.537  12.681  66.848  1.00  0.00    -0.438 A  
HETATM   12  C   UNL     1     -11.576  11.865  67.988  1.00  0.00    -0.401 A  
HETATM   13  C   UNL     1     -11.010  10.588  67.977  1.00  0.00    -0.345 A  
HETATM   14  C   UNL     1     -10.395  10.104  66.825  1.00  0.00    -0.285 A  
HETATM   15  C   UNL     1     -10.354  10.894  65.680  1.00  0.00    -0.305 A  
HETATM   16  C   UNL     1     -10.921  12.171  65.690  1.00  0.00    -0.337 A  
ENDBRANCH  10  11
ENDBRANCH   5  10
TORSDOF 2
ENDMDL
MODEL       53
REMARK 921   NORMALIZED FREE ENERGY PREDICTED BY IDOCK:   -4.39 KCAL/MOL
REMARK 922        TOTAL FREE ENERGY PREDICTED BY IDOCK:   -5.07 KCAL/MOL
REMARK 923 INTER-LIGAND FREE ENERGY PREDICTED BY IDOCK:   -4.91 KCAL/MOL
REMARK 924 INTRA-LIGAND FREE ENERGY PREDICTED BY IDOCK:   -0.16 KCAL/MOL
REMARK 927      BINDING AFFINITY PREDICTED BY RF-SCORE:    0.00 PKD
ROOT
HETATM    1  C   UNL     1     -12.401  13.192  63.613  1.00  0.00    -0.404 C  
HETATM    2  N   UNL     1     -11.359  12.313  64.073  1.00  0.00    -0.365 NA 
HETATM    3  H   UNL     1     -10.677  12.031  63.368  1.00  0.00     0.000 HD 
HETATM    4  C   UNL     1     -11.158  11.806  65.323  1.00  0.00    -0.276 C  
HETATM    5  N   UNL     1     -11.933  12.374  66.293  1.00  0.00    -0.607 NA 
HETATM    6  N   UNL     1     -10.323  10.871  65.617  1.00  0.00    -0.254 NA 
HETATM    7  C   UNL     1      -9.480  10.302  64.583  1.00  0.00    -0.293 C  
HETATM    8  H   UNL     1     -12.690  13.000  66.014  1.00  0.00     0.000 HD 
HETATM    9  H   UNL     1     -10.254  10.531  66.576  1.00  0.00     0.000 HD 
ENDROOT
BRANCH   5  10
HETATM   10  C   UNL     1     -11.720  12.121  67.708  1.00  0.00    -0.320 C  
BRANCH  10  11
HETATM   11  C   UNL     1     -11.843  13.345  68.599  1.00  0.00    -0.397 A  
HETATM   12  C   UNL     1     -11.654  14.659  68.145  1.00  0.00    -0.362 A  
HETATM   13  C   UNL     1     -11.761  15.743  69.021  1.00  0.00    -0.405 A  
HETATM   14  C   UNL     1     -12.062  15.531  70.365  1.00  0.00    -0.426 A  
HETATM   15  C   UNL     1     -12.262  14.236  70.833  1.00  0.00    -0.425 A  
HETATM   16  C   UNL     1     -12.157  13.152  69.957  1.00  0.00    -0.375 A  
ENDBRANCH  10  11
ENDBRANCH   5  10
TORSDOF 2
ENDMDL
MODEL       54
REMARK 921   NORMALIZED FREE ENERGY PREDICTED BY IDOCK:   -4.36 KCAL/MOL
REMARK 922        TOTAL FREE ENERGY PREDICTED BY IDOCK:   -5.04 KCAL/MOL
REMARK 923 INTER-LIGAND FREE ENERGY PREDICTED BY IDOCK:   -4.86 KCAL/MOL
REMARK 924 INTRA-LIGAND FREE ENERGY PREDICTED BY IDOCK:   -0.18 KCAL/MOL
REMARK 927      BINDING AFFINITY PREDICTED BY RF-SCORE:    0.00 PKD
ROOT
HETATM    1  C   UNL     1     -13.721   9.166  72.263  1.00  0.00    -0.487 C  
HETATM    2  N   UNL     1     -12.319   8.862  72.151  1.00  0.00    -0.375 NA 
HETATM    3  H   UNL     1     -11.942   8.248  72.874  1.00  0.00     0.000 HD 
HETATM    4  C   UNL     1     -11.425   9.282  71.210  1.00  0.00    -0.347 C  
HETATM    5  N   UNL     1     -11.990   9.903  70.134  1.00  0.00    -0.454 NA 
HETATM    6  N   UNL     1     -10.148   9.132  71.283  1.00  0.00    -0.309 NA 
HETATM    7  C   UNL     1      -9.564   8.437  72.415  1.00  0.00    -0.303 C  
HETATM    8  H   UNL     1     -12.981  10.145  70.171  1.00  0.00     0.000 HD 
HETATM    9  H   UNL     1      -9.547   9.501  70.546  1.00  0.00     0.000 HD 
ENDROOT
BRANCH   5  10
HETATM   10  C   UNL     1     -11.232  10.233  68.939  1.00  0.00    -0.207 C  
BRANCH  10  11
HETATM   11  C   UNL     1     -11.525  11.606  68.359  1.00  0.00    -0.360 A  
HETATM   12  C   UNL     1     -11.616  11.865  66.983  1.00  0.00    -0.365 A  
HETATM   13  C   UNL     1     -11.867  13.157  66.511  1.00  0.00    -0.456 A  
HETATM   14  C   UNL     1     -12.035  14.210  67.407  1.00  0.00    -0.439 A  
HETATM   15  C   UNL     1     -11.957  13.972  68.777  1.00  0.00    -0.382 A  
HETATM   16  C   UNL     1     -11.707  12.680  69.248  1.00  0.00    -0.379 A  
ENDBRANCH  10  11
ENDBRANCH   5  10
TORSDOF 2
ENDMDL
MODEL       55
REMARK 921   NORMALIZED FREE ENERGY PREDICTED BY IDOCK:   -4.36 KCAL/MOL
REMARK 922        TOTAL FREE ENERGY PREDICTED BY IDOCK:   -5.04 KCAL/MOL
REMARK 923 INTER-LIGAND FREE ENERGY PREDICTED BY IDOCK:   -4.88 KCAL/MOL
REMARK 924 INTRA-LIGAND FREE ENERGY PREDICTED BY IDOCK:   -0.16 KCAL/MOL
REMARK 927      BINDING AFFINITY PREDICTED BY RF-SCORE:    0.00 PKD
ROOT
HETATM    1  C   UNL     1     -12.070  14.144  64.352  1.00  0.00    -0.463 C  
HETATM    2  N   UNL     1     -10.961  13.535  65.037  1.00  0.00    -0.318 NA 
HETATM    3  H   UNL     1     -10.913  12.518  64.982  1.00  0.00     0.000 HD 
HETATM    4  C   UNL     1      -9.964  14.135  65.750  1.00  0.00    -0.309 C  
HETATM    5  N   UNL     1      -9.914  15.492  65.617  1.00  0.00    -0.351 NA 
HETATM    6  N   UNL     1      -9.117  13.519  66.500  1.00  0.00    -0.436 NA 
HETATM    7  C   UNL     1      -9.160  12.072  66.603  1.00  0.00    -0.205 C  
HETATM    8  H   UNL     1     -10.683  15.969  65.144  1.00  0.00     0.000 HD 
HETATM    9  H   UNL     1      -8.418  14.047  67.021  1.00  0.00     0.000 HD 
ENDROOT
BRANCH   5  10
HETATM   10  C   UNL     1      -8.806  16.284  66.124  1.00  0.00    -0.327 C  
BRANCH  10  11
HETATM   11  C   UNL     1      -9.184  17.678  66.595  1.00  0.00    -0.284 A  
HETATM   12  C   UNL     1     -10.501  18.076  66.869  1.00  0.00    -0.350 A  
HETATM   13  C   UNL     1     -10.786  19.381  67.279  1.00  0.00    -0.603 A  
HETATM   14  C   UNL     1      -9.758  20.310  67.425  1.00  0.00    -0.584 A  
HETATM   15  C   UNL     1      -8.443  19.933  67.168  1.00  0.00    -0.376 A  
HETATM   16  C   UNL     1      -8.158  18.627  66.758  1.00  0.00    -0.275 A  
ENDBRANCH  10  11
ENDBRANCH   5  10
TORSDOF 2
ENDMDL
MODEL       56
REMARK 921   NORMALIZED FREE ENERGY PREDICTED BY IDOCK:   -4.32 KCAL/MOL
REMARK 922        TOTAL FREE ENERGY PREDICTED BY IDOCK:   -5.00 KCAL/MOL
REMARK 923 INTER-LIGAND FREE ENERGY PREDICTED BY IDOCK:   -4.87 KCAL/MOL
REMARK 924 INTRA-LIGAND FREE ENERGY PREDICTED BY IDOCK:   -0.13 KCAL/MOL
REMARK 927      BINDING AFFINITY PREDICTED BY RF-SCORE:    0.00 PKD
ROOT
HETATM    1  C   UNL     1     -10.661  15.400  69.928  1.00  0.00    -0.303 C  
HETATM    2  N   UNL     1     -10.412  16.619  69.206  1.00  0.00    -0.320 NA 
HETATM    3  H   UNL     1     -10.048  17.394  69.761  1.00  0.00     0.000 HD 
HETATM    4  C   UNL     1     -10.598  16.880  67.879  1.00  0.00    -0.361 C  
HETATM    5  N   UNL     1     -10.860  15.776  67.120  1.00  0.00    -0.315 NA 
HETATM    6  N   UNL     1     -10.542  18.047  67.340  1.00  0.00    -0.386 NA 
HETATM    7  C   UNL     1     -10.226  19.207  68.154  1.00  0.00    -0.403 C  
HETATM    8  H   UNL     1     -11.049  14.890  67.589  1.00  0.00     0.000 HD 
HETATM    9  H   UNL     1     -10.720  18.158  66.342  1.00  0.00     0.000 HD 
ENDROOT
BRANCH   5  10
HETATM   10  C   UNL     1     -10.879  15.818  65.667  1.00  0.00    -0.307 C  
BRANCH  10  11
HETATM   11  C   UNL     1     -11.025  14.464  64.995  1.00  0.00    -0.398 A  
HETATM   12  C   UNL     1     -10.188  13.370  65.260  1.00  0.00    -0.312 A  
HETATM   13  C   UNL     1     -10.361  12.155  64.590  1.00  0.00    -0.328 A  
HETATM   14  C   UNL     1     -11.376  12.013  63.647  1.00  0.00    -0.536 A  
HETATM   15  C   UNL     1     -12.223  13.084  63.376  1.00  0.00    -0.552 A  
HETATM   16  C   UNL     1     -12.050  14.298  64.046  1.00  0.00    -0.350 A  
ENDBRANCH  10  11
ENDBRANCH   5  10
TORSDOF 2
ENDMDL
MODEL       57
REMARK 921   NORMALIZED FREE ENERGY PREDICTED BY IDOCK:   -4.31 KCAL/MOL
REMARK 922        TOTAL FREE ENERGY PREDICTED BY IDOCK:   -4.99 KCAL/MOL
REMARK 923 INTER-LIGAND FREE ENERGY PREDICTED BY IDOCK:   -4.79 KCAL/MOL
REMARK 924 INTRA-LIGAND FREE ENERGY PREDICTED BY IDOCK:   -0.20 KCAL/MOL
REMARK 927      BINDING AFFINITY PREDICTED BY RF-SCORE:    0.00 PKD
ROOT
HETATM    1  C   UNL     1     -10.051  17.262  67.714  1.00  0.00    -0.311 C  
HETATM    2  N   UNL     1     -10.974  16.661  68.640  1.00  0.00    -0.344 NA 
HETATM    3  H   UNL     1     -11.157  17.196  69.489  1.00  0.00     0.000 HD 
HETATM    4  C   UNL     1     -11.638  15.474  68.537  1.00  0.00    -0.368 C  
HETATM    5  N   UNL     1     -11.562  14.891  67.305  1.00  0.00    -0.352 NA 
HETATM    6  N   UNL     1     -12.293  14.907  69.489  1.00  0.00    -0.541 NA 
HETATM    7  C   UNL     1     -12.396  15.556  70.783  1.00  0.00    -0.414 C  
HETATM    8  H   UNL     1     -10.915  15.279  66.617  1.00  0.00     0.000 HD 
HETATM    9  H   UNL     1     -12.740  14.003  69.335  1.00  0.00     0.000 HD 
ENDROOT
BRANCH   5  10
HETATM   10  C   UNL     1     -12.368  13.740  66.937  1.00  0.00    -0.285 C  
BRANCH  10  11
HETATM   11  C   UNL     1     -11.573  12.509  66.537  1.00  0.00    -0.447 A  
HETATM   12  C   UNL     1     -11.193  12.223  65.217  1.00  0.00    -0.372 A  
HETATM   13  C   UNL     1     -10.479  11.061  64.911  1.00  0.00    -0.371 A  
HETATM   14  C   UNL     1     -10.130  10.166  65.920  1.00  0.00    -0.325 A  
HETATM   15  C   UNL     1     -10.489  10.436  67.237  1.00  0.00    -0.304 A  
HETATM   16  C   UNL     1     -11.202  11.598  67.544  1.00  0.00    -0.355 A  
ENDBRANCH  10  11
ENDBRANCH   5  10
TORSDOF 2
ENDMDL
MODEL       58
REMARK 921   NORMALIZED FREE ENERGY PREDICTED BY IDOCK:   -4.29 KCAL/MOL
REMARK 922        TOTAL FREE ENERGY PREDICTED BY IDOCK:   -4.97 KCAL/MOL
REMARK 923 INTER-LIGAND FREE ENERGY PREDICTED BY IDOCK:   -4.81 KCAL/MOL
REMARK 924 INTRA-LIGAND FREE ENERGY PREDICTED BY IDOCK:   -0.16 KCAL/MOL
REMARK 927      BINDING AFFINITY PREDICTED BY RF-SCORE:    0.00 PKD
ROOT
HETATM    1  C   UNL     1     -10.759   7.677  67.108  1.00  0.00    -0.290 C  
HETATM    2  N   UNL     1     -10.505   8.450  68.295  1.00  0.00    -0.321 NA 
HETATM    3  H   UNL     1     -10.003   7.965  69.038  1.00  0.00     0.000 HD 
HETATM    4  C   UNL     1     -10.845   9.745  68.560  1.00  0.00    -0.188 C  
HETATM    5  N   UNL     1     -11.303  10.440  67.478  1.00  0.00    -0.506 NA 
HETATM    6  N   UNL     1     -10.761  10.310  69.714  1.00  0.00    -0.268 NA 
HETATM    7  C   UNL     1     -10.238   9.569  70.847  1.00  0.00    -0.286 C  
HETATM    8  H   UNL     1     -11.504   9.932  66.616  1.00  0.00     0.000 HD 
HETATM    9  H   UNL     1     -11.062  11.278  69.832  1.00  0.00     0.000 HD 
ENDROOT
BRANCH   5  10
HETATM   10  C   UNL     1     -11.515  11.877  67.510  1.00  0.00    -0.326 C  
BRANCH  10  11
HETATM   11  C   UNL     1     -11.742  12.516  66.151  1.00  0.00    -0.466 A  
HETATM   12  C   UNL     1     -12.192  13.833  65.976  1.00  0.00    -0.495 A  
HETATM   13  C   UNL     1     -12.402  14.357  64.697  1.00  0.00    -0.435 A  
HETATM   14  C   UNL     1     -12.163  13.573  63.571  1.00  0.00    -0.410 A  
HETATM   15  C   UNL     1     -11.707  12.266  63.722  1.00  0.00    -0.566 A  
HETATM   16  C   UNL     1     -11.496  11.743  65.001  1.00  0.00    -0.253 A  
ENDBRANCH  10  11
ENDBRANCH   5  10
TORSDOF 2
ENDMDL
MODEL       59
REMARK 921   NORMALIZED FREE ENERGY PREDICTED BY IDOCK:   -4.29 KCAL/MOL
REMARK 922        TOTAL FREE ENERGY PREDICTED BY IDOCK:   -4.96 KCAL/MOL
REMARK 923 INTER-LIGAND FREE ENERGY PREDICTED BY IDOCK:   -4.81 KCAL/MOL
REMARK 924 INTRA-LIGAND FREE ENERGY PREDICTED BY IDOCK:   -0.16 KCAL/MOL
REMARK 927      BINDING AFFINITY PREDICTED BY RF-SCORE:    0.00 PKD
ROOT
HETATM    1  C   UNL     1     -10.749  19.332  67.179  1.00  0.00    -0.480 C  
HETATM    2  N   UNL     1      -9.389  19.070  66.788  1.00  0.00    -0.313 NA 
HETATM    3  H   UNL     1      -8.744  19.854  66.880  1.00  0.00     0.000 HD 
HETATM    4  C   UNL     1      -8.845  17.912  66.311  1.00  0.00    -0.163 C  
HETATM    5  N   UNL     1      -9.659  16.822  66.416  1.00  0.00    -0.267 NA 
HETATM    6  N   UNL     1      -7.670  17.805  65.797  1.00  0.00    -0.549 NA 
HETATM    7  C   UNL     1      -6.801  18.965  65.726  1.00  0.00    -0.272 C  
HETATM    8  H   UNL     1     -10.634  16.961  66.683  1.00  0.00     0.000 HD 
HETATM    9  H   UNL     1      -7.349  16.905  65.439  1.00  0.00     0.000 HD 
ENDROOT
BRANCH   5  10
HETATM   10  C   UNL     1      -9.188  15.472  66.159  1.00  0.00    -0.344 C  
BRANCH  10  11
HETATM   11  C   UNL     1     -10.272  14.486  65.759  1.00  0.00    -0.354 A  
HETATM   12  C   UNL     1     -10.274  13.135  66.138  1.00  0.00    -0.291 A  
HETATM   13  C   UNL     1     -11.291  12.273  65.719  1.00  0.00    -0.400 A  
HETATM   14  C   UNL     1     -12.324  12.747  64.914  1.00  0.00    -0.551 A  
HETATM   15  C   UNL     1     -12.345  14.086  64.533  1.00  0.00    -0.409 A  
HETATM   16  C   UNL     1     -11.329  14.948  64.954  1.00  0.00    -0.415 A  
ENDBRANCH  10  11
ENDBRANCH   5  10
TORSDOF 2
ENDMDL
MODEL       60
REMARK 921   NORMALIZED FREE ENERGY PREDICTED BY IDOCK:   -4.28 KCAL/MOL
REMARK 922        TOTAL FREE ENERGY PREDICTED BY IDOCK:   -4.96 KCAL/MOL
REMARK 923 INTER-LIGAND FREE ENERGY PREDICTED BY IDOCK:   -4.80 KCAL/MOL
REMARK 924 INTRA-LIGAND FREE ENERGY PREDICTED BY IDOCK:   -0.16 KCAL/MOL
REMARK 927      BINDING AFFINITY PREDICTED BY RF-SCORE:    0.00 PKD
ROOT
HETATM    1  C   UNL     1     -11.336   6.803  71.260  1.00  0.00    -0.289 C  
HETATM    2  N   UNL     1     -11.308   6.955  69.830  1.00  0.00    -0.490 NA 
HETATM    3  H   UNL     1     -11.436   6.098  69.292  1.00  0.00     0.000 HD 
HETATM    4  C   UNL     1     -11.133   8.092  69.095  1.00  0.00     0.205 C  
HETATM    5  N   UNL     1     -11.197   9.247  69.819  1.00  0.00    -0.411 NA 
HETATM    6  N   UNL     1     -10.921   8.126  67.825  1.00  0.00    -0.492 NA 
HETATM    7  C   UNL     1     -10.892   6.892  67.062  1.00  0.00    -0.366 C  
HETATM    8  H   UNL     1     -11.212   9.188  70.838  1.00  0.00     0.000 HD 
HETATM    9  H   UNL     1     -10.774   9.020  67.356  1.00  0.00     0.000 HD 
ENDROOT
BRANCH   5  10
HETATM   10  C   UNL     1     -11.244  10.557  69.193  1.00  0.00    -0.256 C  
BRANCH  10  11
HETATM   11  C   UNL     1     -11.882  11.644  70.040  1.00  0.00    -0.435 A  
HETATM   12  C   UNL     1     -11.753  13.015  69.772  1.00  0.00    -0.346 A  
HETATM   13  C   UNL     1     -12.347  13.968  70.604  1.00  0.00    -0.446 A  
HETATM   14  C   UNL     1     -13.083  13.567  71.716  1.00  0.00    -0.475 A  
HETATM   15  C   UNL     1     -13.231  12.211  71.995  1.00  0.00    -0.496 A  
HETATM   16  C   UNL     1     -12.638  11.258  71.162  1.00  0.00    -0.501 A  
ENDBRANCH  10  11
ENDBRANCH   5  10
TORSDOF 2
ENDMDL
MODEL       61
REMARK 921   NORMALIZED FREE ENERGY PREDICTED BY IDOCK:   -4.28 KCAL/MOL
REMARK 922        TOTAL FREE ENERGY PREDICTED BY IDOCK:   -4.95 KCAL/MOL
REMARK 923 INTER-LIGAND FREE ENERGY PREDICTED BY IDOCK:   -4.74 KCAL/MOL
REMARK 924 INTRA-LIGAND FREE ENERGY PREDICTED BY IDOCK:   -0.22 KCAL/MOL
REMARK 927      BINDING AFFINITY PREDICTED BY RF-SCORE:    0.00 PKD
ROOT
HETATM    1  C   UNL     1     -12.751  13.307  64.878  1.00  0.00    -0.327 C  
HETATM    2  N   UNL     1     -11.720  12.351  65.180  1.00  0.00    -0.370 NA 
HETATM    3  H   UNL     1     -11.365  11.819  64.386  1.00  0.00     0.000 HD 
HETATM    4  C   UNL     1     -11.151  12.059  66.386  1.00  0.00    -0.318 C  
HETATM    5  N   UNL     1     -11.467  12.934  67.385  1.00  0.00    -0.315 NA 
HETATM    6  N   UNL     1     -10.376  11.057  66.615  1.00  0.00    -0.232 NA 
HETATM    7  C   UNL     1     -10.019  10.156  65.535  1.00  0.00    -0.293 C  
HETATM    8  H   UNL     1     -12.199  13.627  67.218  1.00  0.00     0.000 HD 
HETATM    9  H   UNL     1     -10.014  10.895  67.555  1.00  0.00     0.000 HD 
ENDROOT
BRANCH   5  10
HETATM   10  C   UNL     1     -10.801  12.915  68.676  1.00  0.00    -0.258 C  
BRANCH  10  11
HETATM   11  C   UNL     1     -11.663  12.429  69.829  1.00  0.00    -0.361 A  
HETATM   12  C   UNL     1     -11.877  11.075  70.122  1.00  0.00    -0.441 A  
HETATM   13  C   UNL     1     -12.699  10.692  71.186  1.00  0.00    -0.522 A  
HETATM   14  C   UNL     1     -13.318  11.657  71.976  1.00  0.00    -0.405 A  
HETATM   15  C   UNL     1     -13.111  13.007  71.707  1.00  0.00    -0.469 A  
HETATM   16  C   UNL     1     -12.288  13.390  70.644  1.00  0.00    -0.423 A  
ENDBRANCH  10  11
ENDBRANCH   5  10
TORSDOF 2
ENDMDL
MODEL       62
REMARK 921   NORMALIZED FREE ENERGY PREDICTED BY IDOCK:   -4.26 KCAL/MOL
REMARK 922        TOTAL FREE ENERGY PREDICTED BY IDOCK:   -4.93 KCAL/MOL
REMARK 923 INTER-LIGAND FREE ENERGY PREDICTED BY IDOCK:   -4.79 KCAL/MOL
REMARK 924 INTRA-LIGAND FREE ENERGY PREDICTED BY IDOCK:   -0.14 KCAL/MOL
REMARK 927      BINDING AFFINITY PREDICTED BY RF-SCORE:    0.00 PKD
ROOT
HETATM    1  C   UNL     1     -13.783  13.564  72.390  1.00  0.00    -0.602 C  
HETATM    2  N   UNL     1     -12.810  13.784  71.354  1.00  0.00    -0.355 NA 
HETATM    3  H   UNL     1     -12.536  14.755  71.206  1.00  0.00     0.000 HD 
HETATM    4  C   UNL     1     -12.204  12.870  70.542  1.00  0.00    -0.314 C  
HETATM    5  N   UNL     1     -12.405  11.570  70.908  1.00  0.00    -0.382 NA 
HETATM    6  N   UNL     1     -11.493  13.155  69.507  1.00  0.00    -0.408 NA 
HETATM    7  C   UNL     1     -11.258  14.542  69.151  1.00  0.00    -0.269 C  
HETATM    8  H   UNL     1     -13.092  11.365  71.635  1.00  0.00     0.000 HD 
HETATM    9  H   UNL     1     -11.097  12.408  68.938  1.00  0.00     0.000 HD 
ENDROOT
BRANCH   5  10
HETATM   10  C   UNL     1     -11.678  10.469  70.301  1.00  0.00    -0.332 C  
BRANCH  10  11
HETATM   11  C   UNL     1     -11.268   9.369  71.265  1.00  0.00    -0.437 A  
HETATM   12  C   UNL     1     -12.180   8.513  71.901  1.00  0.00    -0.411 A  
HETATM   13  C   UNL     1     -11.741   7.532  72.795  1.00  0.00    -0.232 A  
HETATM   14  C   UNL     1     -10.382   7.390  73.067  1.00  0.00    -0.356 A  
HETATM   15  C   UNL     1      -9.460   8.223  72.439  1.00  0.00    -0.357 A  
HETATM   16  C   UNL     1      -9.899   9.202  71.544  1.00  0.00    -0.335 A  
ENDBRANCH  10  11
ENDBRANCH   5  10
TORSDOF 2
ENDMDL
MODEL       63
REMARK 921   NORMALIZED FREE ENERGY PREDICTED BY IDOCK:   -4.25 KCAL/MOL
REMARK 922        TOTAL FREE ENERGY PREDICTED BY IDOCK:   -4.92 KCAL/MOL
REMARK 923 INTER-LIGAND FREE ENERGY PREDICTED BY IDOCK:   -4.77 KCAL/MOL
REMARK 924 INTRA-LIGAND FREE ENERGY PREDICTED BY IDOCK:   -0.15 KCAL/MOL
REMARK 927      BINDING AFFINITY PREDICTED BY RF-SCORE:    0.00 PKD
ROOT
HETATM    1  C   UNL     1     -11.519   6.600  70.077  1.00  0.00    -0.375 C  
HETATM    2  N   UNL     1     -11.275   6.258  68.701  1.00  0.00    -0.496 NA 
HETATM    3  H   UNL     1     -11.445   5.284  68.452  1.00  0.00     0.000 HD 
HETATM    4  C   UNL     1     -10.846   7.061  67.684  1.00  0.00    -0.242 C  
HETATM    5  N   UNL     1     -10.849   8.394  67.979  1.00  0.00    -0.470 NA 
HETATM    6  N   UNL     1     -10.459   6.647  66.528  1.00  0.00    -0.482 NA 
HETATM    7  C   UNL     1     -10.496   5.231  66.216  1.00  0.00    -0.255 C  
HETATM    8  H   UNL     1     -11.012   8.683  68.944  1.00  0.00     0.000 HD 
HETATM    9  H   UNL     1     -10.128   7.314  65.831  1.00  0.00     0.000 HD 
ENDROOT
BRANCH   5  10
HETATM   10  C   UNL     1     -10.629   9.415  66.969  1.00  0.00    -0.201 C  
BRANCH  10  11
HETATM   11  C   UNL     1     -11.072  10.811  67.370  1.00  0.00    -0.363 A  
HETATM   12  C   UNL     1     -11.292  11.206  68.697  1.00  0.00    -0.342 A  
HETATM   13  C   UNL     1     -11.720  12.502  68.999  1.00  0.00    -0.368 A  
HETATM   14  C   UNL     1     -11.933  13.426  67.979  1.00  0.00    -0.357 A  
HETATM   15  C   UNL     1     -11.711  13.057  66.655  1.00  0.00    -0.438 A  
HETATM   16  C   UNL     1     -11.282  11.761  66.353  1.00  0.00    -0.382 A  
ENDBRANCH  10  11
ENDBRANCH   5  10
TORSDOF 2
ENDMDL
MODEL       64
REMARK 921   NORMALIZED FREE ENERGY PREDICTED BY IDOCK:   -4.23 KCAL/MOL
REMARK 922        TOTAL FREE ENERGY PREDICTED BY IDOCK:   -4.89 KCAL/MOL
REMARK 923 INTER-LIGAND FREE ENERGY PREDICTED BY IDOCK:   -4.69 KCAL/MOL
REMARK 924 INTRA-LIGAND FREE ENERGY PREDICTED BY IDOCK:   -0.20 KCAL/MOL
REMARK 927      BINDING AFFINITY PREDICTED BY RF-SCORE:    0.00 PKD
ROOT
HETATM    1  C   UNL     1      -7.815  12.863  67.309  1.00  0.00    -0.131 C  
HETATM    2  N   UNL     1      -8.920  12.933  66.390  1.00  0.00    -0.435 NA 
HETATM    3  H   UNL     1      -8.983  12.169  65.717  1.00  0.00     0.000 HD 
HETATM    4  C   UNL     1      -9.895  13.883  66.297  1.00  0.00    -0.306 C  
HETATM    5  N   UNL     1      -9.929  14.761  67.341  1.00  0.00    -0.223 NA 
HETATM    6  N   UNL     1     -10.736  13.987  65.327  1.00  0.00    -0.336 NA 
HETATM    7  C   UNL     1     -10.712  13.025  64.241  1.00  0.00    -0.407 C  
HETATM    8  H   UNL     1      -9.163  14.752  68.015  1.00  0.00     0.000 HD 
HETATM    9  H   UNL     1     -11.419  14.745  65.321  1.00  0.00     0.000 HD 
ENDROOT
BRANCH   5  10
HETATM   10  C   UNL     1     -11.016  15.706  67.528  1.00  0.00    -0.309 C  
BRANCH  10  11
HETATM   11  C   UNL     1     -10.604  17.167  67.477  1.00  0.00    -0.323 A  
HETATM   12  C   UNL     1     -10.409  17.880  66.285  1.00  0.00    -0.364 A  
HETATM   13  C   UNL     1     -10.008  19.219  66.305  1.00  0.00    -0.484 A  
HETATM   14  C   UNL     1      -9.798  19.869  67.519  1.00  0.00    -0.538 A  
HETATM   15  C   UNL     1      -9.995  19.183  68.714  1.00  0.00    -0.493 A  
HETATM   16  C   UNL     1     -10.397  17.844  68.694  1.00  0.00    -0.342 A  
ENDBRANCH  10  11
ENDBRANCH   5  10
TORSDOF 2
ENDMDL
MODEL       65
REMARK 921   NORMALIZED FREE ENERGY PREDICTED BY IDOCK:   -4.22 KCAL/MOL
REMARK 922        TOTAL FREE ENERGY PREDICTED BY IDOCK:   -4.88 KCAL/MOL
REMARK 923 INTER-LIGAND FREE ENERGY PREDICTED BY IDOCK:   -4.68 KCAL/MOL
REMARK 924 INTRA-LIGAND FREE ENERGY PREDICTED BY IDOCK:   -0.21 KCAL/MOL
REMARK 927      BINDING AFFINITY PREDICTED BY RF-SCORE:    0.00 PKD
ROOT
HETATM    1  C   UNL     1     -10.463  18.162  67.369  1.00  0.00    -0.399 C  
HETATM    2  N   UNL     1      -9.836  17.085  68.089  1.00  0.00    -0.262 NA 
HETATM    3  H   UNL     1      -9.080  17.357  68.717  1.00  0.00     0.000 HD 
HETATM    4  C   UNL     1     -10.117  15.751  68.046  1.00  0.00    -0.228 C  
HETATM    5  N   UNL     1     -11.271  15.438  67.387  1.00  0.00    -0.317 NA 
HETATM    6  N   UNL     1      -9.389  14.824  68.565  1.00  0.00    -0.194 NA 
HETATM    7  C   UNL     1      -8.183  15.174  69.294  1.00  0.00    -0.216 C  
HETATM    8  H   UNL     1     -11.747  16.169  66.857  1.00  0.00     0.000 HD 
HETATM    9  H   UNL     1      -9.658  13.846  68.464  1.00  0.00     0.000 HD 
ENDROOT
BRANCH   5  10
HETATM   10  C   UNL     1     -11.846  14.104  67.414  1.00  0.00    -0.413 C  
BRANCH  10  11
HETATM   11  C   UNL     1     -11.683  13.316  66.126  1.00  0.00    -0.416 A  
HETATM   12  C   UNL     1     -10.929  12.137  66.025  1.00  0.00    -0.332 A  
HETATM   13  C   UNL     1     -10.801  11.469  64.804  1.00  0.00    -0.360 A  
HETATM   14  C   UNL     1     -11.426  11.967  63.663  1.00  0.00    -0.556 A  
HETATM   15  C   UNL     1     -12.186  13.131  63.744  1.00  0.00    -0.528 A  
HETATM   16  C   UNL     1     -12.316  13.798  64.965  1.00  0.00    -0.456 A  
ENDBRANCH  10  11
ENDBRANCH   5  10
TORSDOF 2
ENDMDL
MODEL       66
REMARK 921   NORMALIZED FREE ENERGY PREDICTED BY IDOCK:   -4.21 KCAL/MOL
REMARK 922        TOTAL FREE ENERGY PREDICTED BY IDOCK:   -4.88 KCAL/MOL
REMARK 923 INTER-LIGAND FREE ENERGY PREDICTED BY IDOCK:   -4.73 KCAL/MOL
REMARK 924 INTRA-LIGAND FREE ENERGY PREDICTED BY IDOCK:   -0.15 KCAL/MOL
REMARK 927      BINDING AFFINITY PREDICTED BY RF-SCORE:    0.00 PKD
ROOT
HETATM    1  C   UNL     1     -12.581  12.018  63.340  1.00  0.00    -0.469 C  
HETATM    2  N   UNL     1     -11.296  11.374  63.410  1.00  0.00    -0.801 NA 
HETATM    3  H   UNL     1     -10.929  11.025  62.525  1.00  0.00     0.000 HD 
HETATM    4  C   UNL     1     -10.503  11.167  64.501  1.00  0.00    -0.350 C  
HETATM    5  N   UNL     1     -10.898  11.839  65.621  1.00  0.00    -0.286 NA 
HETATM    6  N   UNL     1      -9.461  10.411  64.524  1.00  0.00    -0.259 NA 
HETATM    7  C   UNL     1      -9.031   9.732  63.316  1.00  0.00    -0.252 C  
HETATM    8  H   UNL     1     -11.806  12.305  65.620  1.00  0.00     0.000 HD 
HETATM    9  H   UNL     1      -8.937  10.290  65.391  1.00  0.00     0.000 HD 
ENDROOT
BRANCH   5  10
HETATM   10  C   UNL     1     -10.074  11.914  66.815  1.00  0.00    -0.202 C  
BRANCH  10  11
HETATM   11  C   UNL     1     -10.842  11.845  68.124  1.00  0.00    -0.259 A  
HETATM   12  C   UNL     1     -11.419  12.962  68.747  1.00  0.00    -0.345 A  
HETATM   13  C   UNL     1     -12.096  12.836  69.963  1.00  0.00    -0.355 A  
HETATM   14  C   UNL     1     -12.211  11.590  70.575  1.00  0.00    -0.469 A  
HETATM   15  C   UNL     1     -11.654  10.468  69.969  1.00  0.00    -0.392 A  
HETATM   16  C   UNL     1     -10.978  10.593  68.752  1.00  0.00    -0.292 A  
ENDBRANCH  10  11
ENDBRANCH   5  10
TORSDOF 2
ENDMDL
MODEL       67
REMARK 921   NORMALIZED FREE ENERGY PREDICTED BY IDOCK:   -4.20 KCAL/MOL
REMARK 922        TOTAL FREE ENERGY PREDICTED BY IDOCK:   -4.87 KCAL/MOL
REMARK 923 INTER-LIGAND FREE ENERGY PREDICTED BY IDOCK:   -4.67 KCAL/MOL
REMARK 924 INTRA-LIGAND FREE ENERGY PREDICTED BY IDOCK:   -0.20 KCAL/MOL
REMARK 927      BINDING AFFINITY PREDICTED BY RF-SCORE:    0.00 PKD
ROOT
HETATM    1  C   UNL     1      -7.000  17.352  66.332  1.00  0.00    -0.279 C  
HETATM    2  N   UNL     1      -8.278  17.966  66.084  1.00  0.00    -0.484 NA 
HETATM    3  H   UNL     1      -8.249  18.866  65.605  1.00  0.00     0.000 HD 
HETATM    4  C   UNL     1      -9.523  17.507  66.402  1.00  0.00    -0.259 C  
HETATM    5  N   UNL     1      -9.554  16.210  66.826  1.00  0.00    -0.231 NA 
HETATM    6  N   UNL     1     -10.607  18.197  66.327  1.00  0.00    -0.336 NA 
HETATM    7  C   UNL     1     -10.564  19.563  65.840  1.00  0.00    -0.476 C  
HETATM    8  H   UNL     1      -8.671  15.735  67.021  1.00  0.00     0.000 HD 
HETATM    9  H   UNL     1     -11.496  17.784  66.611  1.00  0.00     0.000 HD 
ENDROOT
BRANCH   5  10
HETATM   10  C   UNL     1     -10.797  15.480  67.009  1.00  0.00    -0.314 C  
BRANCH  10  11
HETATM   11  C   UNL     1     -11.200  15.264  68.458  1.00  0.00    -0.308 A  
HETATM   12  C   UNL     1     -11.067  16.241  69.456  1.00  0.00    -0.330 A  
HETATM   13  C   UNL     1     -11.437  15.973  70.777  1.00  0.00    -0.444 A  
HETATM   14  C   UNL     1     -11.948  14.724  71.121  1.00  0.00    -0.392 A  
HETATM   15  C   UNL     1     -12.097  13.744  70.144  1.00  0.00    -0.429 A  
HETATM   16  C   UNL     1     -11.728  14.012  68.823  1.00  0.00    -0.388 A  
ENDBRANCH  10  11
ENDBRANCH   5  10
TORSDOF 2
ENDMDL
MODEL       68
REMARK 921   NORMALIZED FREE ENERGY PREDICTED BY IDOCK:   -4.20 KCAL/MOL
REMARK 922        TOTAL FREE ENERGY PREDICTED BY IDOCK:   -4.87 KCAL/MOL
REMARK 923 INTER-LIGAND FREE ENERGY PREDICTED BY IDOCK:   -4.70 KCAL/MOL
REMARK 924 INTRA-LIGAND FREE ENERGY PREDICTED BY IDOCK:   -0.16 KCAL/MOL
REMARK 927      BINDING AFFINITY PREDICTED BY RF-SCORE:    0.00 PKD
ROOT
HETATM    1  C   UNL     1      -9.879   9.931  65.322  1.00  0.00    -0.303 C  
HETATM    2  N   UNL     1     -10.757  10.958  64.829  1.00  0.00    -0.250 NA 
HETATM    3  H   UNL     1     -11.086  10.834  63.871  1.00  0.00     0.000 HD 
HETATM    4  C   UNL     1     -11.210  12.075  65.468  1.00  0.00    -0.321 C  
HETATM    5  N   UNL     1     -10.952  12.102  66.808  1.00  0.00    -0.266 NA 
HETATM    6  N   UNL     1     -11.833  13.050  64.902  1.00  0.00    -0.342 NA 
HETATM    7  C   UNL     1     -12.133  12.992  63.483  1.00  0.00    -0.542 C  
HETATM    8  H   UNL     1     -10.328  11.397  67.202  1.00  0.00     0.000 HD 
HETATM    9  H   UNL     1     -12.114  13.863  65.450  1.00  0.00     0.000 HD 
ENDROOT
BRANCH   5  10
HETATM   10  C   UNL     1     -11.532  13.098  67.693  1.00  0.00    -0.324 C  
BRANCH  10  11
HETATM   11  C   UNL     1     -11.965  12.568  69.048  1.00  0.00    -0.280 A  
HETATM   12  C   UNL     1     -12.086  11.203  69.348  1.00  0.00    -0.396 A  
HETATM   13  C   UNL     1     -12.511  10.779  70.610  1.00  0.00    -0.461 A  
HETATM   14  C   UNL     1     -12.820  11.713  71.596  1.00  0.00    -0.454 A  
HETATM   15  C   UNL     1     -12.698  13.073  71.322  1.00  0.00    -0.385 A  
HETATM   16  C   UNL     1     -12.272  13.496  70.060  1.00  0.00    -0.381 A  
ENDBRANCH  10  11
ENDBRANCH   5  10
TORSDOF 2
ENDMDL
MODEL       69
REMARK 921   NORMALIZED FREE ENERGY PREDICTED BY IDOCK:   -4.18 KCAL/MOL
REMARK 922        TOTAL FREE ENERGY PREDICTED BY IDOCK:   -4.84 KCAL/MOL
REMARK 923 INTER-LIGAND FREE ENERGY PREDICTED BY IDOCK:   -4.70 KCAL/MOL
REMARK 924 INTRA-LIGAND FREE ENERGY PREDICTED BY IDOCK:   -0.14 KCAL/MOL
REMARK 927      BINDING AFFINITY PREDICTED BY RF-SCORE:    0.00 PKD
ROOT
HETATM    1  C   UNL     1      -7.741  15.861  68.609  1.00  0.00    -0.161 C  
HETATM    2  N   UNL     1      -8.697  16.912  68.382  1.00  0.00    -0.235 NA 
HETATM    3  H   UNL     1      -8.346  17.723  67.872  1.00  0.00     0.000 HD 
HETATM    4  C   UNL     1     -10.007  16.972  68.756  1.00  0.00    -0.293 C  
HETATM    5  N   UNL     1     -10.514  15.795  69.225  1.00  0.00    -0.228 NA 
HETATM    6  N   UNL     1     -10.747  18.024  68.693  1.00  0.00    -0.298 NA 
HETATM    7  C   UNL     1     -10.206  19.260  68.159  1.00  0.00    -0.418 C  
HETATM    8  H   UNL     1      -9.873  15.022  69.407  1.00  0.00     0.000 HD 
HETATM    9  H   UNL     1     -11.713  17.990  69.019  1.00  0.00     0.000 HD 
ENDROOT
BRANCH   5  10
HETATM   10  C   UNL     1     -11.932  15.602  69.473  1.00  0.00    -0.345 C  
BRANCH  10  11
HETATM   11  C   UNL     1     -12.279  14.327  70.223  1.00  0.00    -0.407 A  
HETATM   12  C   UNL     1     -11.884  13.047  69.805  1.00  0.00    -0.381 A  
HETATM   13  C   UNL     1     -12.253  11.910  70.528  1.00  0.00    -0.426 A  
HETATM   14  C   UNL     1     -13.022  12.033  71.684  1.00  0.00    -0.439 A  
HETATM   15  C   UNL     1     -13.416  13.294  72.120  1.00  0.00    -0.655 A  
HETATM   16  C   UNL     1     -13.046  14.432  71.398  1.00  0.00    -0.416 A  
ENDBRANCH  10  11
ENDBRANCH   5  10
TORSDOF 2
ENDMDL
MODEL       70
REMARK 921   NORMALIZED FREE ENERGY PREDICTED BY IDOCK:   -4.15 KCAL/MOL
REMARK 922        TOTAL FREE ENERGY PREDICTED BY IDOCK:   -4.81 KCAL/MOL
REMARK 923 INTER-LIGAND FREE ENERGY PREDICTED BY IDOCK:   -4.60 KCAL/MOL
REMARK 924 INTRA-LIGAND FREE ENERGY PREDICTED BY IDOCK:   -0.21 KCAL/MOL
REMARK 927      BINDING AFFINITY PREDICTED BY RF-SCORE:    0.00 PKD
ROOT
HETATM    1  C   UNL     1     -10.496  19.930  68.007  1.00  0.00    -0.350 C  
HETATM    2  N   UNL     1      -9.477  19.007  68.431  1.00  0.00    -0.344 NA 
HETATM    3  H   UNL     1      -8.623  19.430  68.796  1.00  0.00     0.000 HD 
HETATM    4  C   UNL     1      -9.497  17.643  68.411  1.00  0.00    -0.298 C  
HETATM    5  N   UNL     1     -10.721  17.102  68.142  1.00  0.00    -0.375 NA 
HETATM    6  N   UNL     1      -8.478  16.885  68.619  1.00  0.00    -0.253 NA 
HETATM    7  C   UNL     1      -7.191  17.473  68.940  1.00  0.00    -0.249 C  
HETATM    8  H   UNL     1     -11.473  17.718  67.831  1.00  0.00     0.000 HD 
HETATM    9  H   UNL     1      -8.574  15.871  68.559  1.00  0.00     0.000 HD 
ENDROOT
BRANCH   5  10
HETATM   10  C   UNL     1     -10.991  15.681  68.282  1.00  0.00    -0.315 C  
BRANCH  10  11
HETATM   11  C   UNL     1     -11.186  14.939  66.971  1.00  0.00    -0.344 A  
HETATM   12  C   UNL     1     -10.482  15.238  65.795  1.00  0.00    -0.365 A  
HETATM   13  C   UNL     1     -10.722  14.531  64.614  1.00  0.00    -0.332 A  
HETATM   14  C   UNL     1     -11.670  13.511  64.589  1.00  0.00    -0.412 A  
HETATM   15  C   UNL     1     -12.373  13.191  65.747  1.00  0.00    -0.496 A  
HETATM   16  C   UNL     1     -12.132  13.898  66.928  1.00  0.00    -0.467 A  
ENDBRANCH  10  11
ENDBRANCH   5  10
TORSDOF 2
ENDMDL
MODEL       71
REMARK 921   NORMALIZED FREE ENERGY PREDICTED BY IDOCK:   -4.15 KCAL/MOL
REMARK 922        TOTAL FREE ENERGY PREDICTED BY IDOCK:   -4.81 KCAL/MOL
REMARK 923 INTER-LIGAND FREE ENERGY PREDICTED BY IDOCK:   -4.60 KCAL/MOL
REMARK 924 INTRA-LIGAND FREE ENERGY PREDICTED BY IDOCK:   -0.20 KCAL/MOL
REMARK 927      BINDING AFFINITY PREDICTED BY RF-SCORE:    0.00 PKD
ROOT
HETATM    1  C   UNL     1      -9.827   8.978  66.157  1.00  0.00    -0.278 C  
HETATM    2  N   UNL     1      -9.737   9.679  64.904  1.00  0.00    -0.438 NA 
HETATM    3  H   UNL     1      -9.215   9.202  64.169  1.00  0.00     0.000 HD 
HETATM    4  C   UNL     1     -10.254  10.895  64.566  1.00  0.00    -0.356 C  
HETATM    5  N   UNL     1     -11.135  11.405  65.475  1.00  0.00    -0.194 NA 
HETATM    6  N   UNL     1      -9.968  11.549  63.494  1.00  0.00    -0.360 NA 
HETATM    7  C   UNL     1      -9.057  10.978  62.519  1.00  0.00    -0.323 C  
HETATM    8  H   UNL     1     -11.228  10.945  66.381  1.00  0.00     0.000 HD 
HETATM    9  H   UNL     1     -10.381  12.467  63.330  1.00  0.00     0.000 HD 
ENDROOT
BRANCH   5  10
HETATM   10  C   UNL     1     -11.946  12.579  65.199  1.00  0.00    -0.434 C  
BRANCH  10  11
HETATM   11  C   UNL     1     -11.443  13.863  65.837  1.00  0.00    -0.328 A  
HETATM   12  C   UNL     1     -11.756  14.255  67.147  1.00  0.00    -0.430 A  
HETATM   13  C   UNL     1     -11.278  15.460  67.670  1.00  0.00    -0.311 A  
HETATM   14  C   UNL     1     -10.477  16.292  66.892  1.00  0.00    -0.302 A  
HETATM   15  C   UNL     1     -10.146  15.917  65.593  1.00  0.00    -0.388 A  
HETATM   16  C   UNL     1     -10.623  14.712  65.071  1.00  0.00    -0.461 A  
ENDBRANCH  10  11
ENDBRANCH   5  10
TORSDOF 2
ENDMDL
MODEL       72
REMARK 921   NORMALIZED FREE ENERGY PREDICTED BY IDOCK:   -4.14 KCAL/MOL
REMARK 922        TOTAL FREE ENERGY PREDICTED BY IDOCK:   -4.80 KCAL/MOL
REMARK 923 INTER-LIGAND FREE ENERGY PREDICTED BY IDOCK:   -4.62 KCAL/MOL
REMARK 924 INTRA-LIGAND FREE ENERGY PREDICTED BY IDOCK:   -0.18 KCAL/MOL
REMARK 927      BINDING AFFINITY PREDICTED BY RF-SCORE:    0.00 PKD
ROOT
HETATM    1  C   UNL     1     -11.947  10.546  70.151  1.00  0.00    -0.316 C  
HETATM    2  N   UNL     1     -11.420  10.091  68.891  1.00  0.00    -0.491 NA 
HETATM    3  H   UNL     1     -11.152   9.107  68.855  1.00  0.00     0.000 HD 
HETATM    4  C   UNL     1     -11.230  10.796  67.739  1.00  0.00    -0.316 C  
HETATM    5  N   UNL     1     -11.805  12.034  67.735  1.00  0.00    -0.545 NA 
HETATM    6  N   UNL     1     -10.573  10.377  66.715  1.00  0.00    -0.230 NA 
HETATM    7  C   UNL     1      -9.998   9.044  66.719  1.00  0.00    -0.263 C  
HETATM    8  H   UNL     1     -12.187  12.402  68.607  1.00  0.00     0.000 HD 
HETATM    9  H   UNL     1     -10.455  10.980  65.900  1.00  0.00     0.000 HD 
ENDROOT
BRANCH   5  10
HETATM   10  C   UNL     1     -11.894  12.847  66.534  1.00  0.00    -0.407 C  
BRANCH  10  11
HETATM   11  C   UNL     1     -11.337  14.253  66.676  1.00  0.00    -0.356 A  
HETATM   12  C   UNL     1     -10.851  15.009  65.599  1.00  0.00    -0.356 A  
HETATM   13  C   UNL     1     -10.331  16.291  65.799  1.00  0.00    -0.393 A  
HETATM   14  C   UNL     1     -10.291  16.840  67.078  1.00  0.00    -0.300 A  
HETATM   15  C   UNL     1     -10.776  16.110  68.159  1.00  0.00    -0.315 A  
HETATM   16  C   UNL     1     -11.297  14.828  67.959  1.00  0.00    -0.332 A  
ENDBRANCH  10  11
ENDBRANCH   5  10
TORSDOF 2
ENDMDL
MODEL       73
REMARK 921   NORMALIZED FREE ENERGY PREDICTED BY IDOCK:   -4.14 KCAL/MOL
REMARK 922        TOTAL FREE ENERGY PREDICTED BY IDOCK:   -4.80 KCAL/MOL
REMARK 923 INTER-LIGAND FREE ENERGY PREDICTED BY IDOCK:   -4.63 KCAL/MOL
REMARK 924 INTRA-LIGAND FREE ENERGY PREDICTED BY IDOCK:   -0.17 KCAL/MOL
REMARK 927      BINDING AFFINITY PREDICTED BY RF-SCORE:    0.00 PKD
ROOT
HETATM    1  C   UNL     1     -10.609  19.677  66.296  1.00  0.00    -0.482 C  
HETATM    2  N   UNL     1      -9.400  18.902  66.392  1.00  0.00    -0.335 NA 
HETATM    3  H   UNL     1      -8.581  19.403  66.737  1.00  0.00     0.000 HD 
HETATM    4  C   UNL     1      -9.201  17.588  66.083  1.00  0.00    -0.135 C  
HETATM    5  N   UNL     1     -10.346  16.884  65.849  1.00  0.00    -0.458 NA 
HETATM    6  N   UNL     1      -8.052  17.012  66.005  1.00  0.00    -0.492 NA 
HETATM    7  C   UNL     1      -6.844  17.764  66.292  1.00  0.00    -0.272 C  
HETATM    8  H   UNL     1     -11.228  17.393  65.767  1.00  0.00     0.000 HD 
HETATM    9  H   UNL     1      -7.989  16.029  65.741  1.00  0.00     0.000 HD 
ENDROOT
BRANCH   5  10
HETATM   10  C   UNL     1     -10.357  15.437  65.713  1.00  0.00    -0.361 C  
BRANCH  10  11
HETATM   11  C   UNL     1     -10.924  14.690  66.907  1.00  0.00    -0.324 A  
HETATM   12  C   UNL     1     -11.209  13.317  66.902  1.00  0.00    -0.332 A  
HETATM   13  C   UNL     1     -11.750  12.692  68.029  1.00  0.00    -0.402 A  
HETATM   14  C   UNL     1     -12.014  13.429  69.181  1.00  0.00    -0.363 A  
HETATM   15  C   UNL     1     -11.730  14.791  69.210  1.00  0.00    -0.347 A  
HETATM   16  C   UNL     1     -11.187  15.416  68.084  1.00  0.00    -0.326 A  
ENDBRANCH  10  11
ENDBRANCH   5  10
TORSDOF 2
ENDMDL
MODEL       74
REMARK 921   NORMALIZED FREE ENERGY PREDICTED BY IDOCK:   -4.12 KCAL/MOL
REMARK 922        TOTAL FREE ENERGY PREDICTED BY IDOCK:   -4.78 KCAL/MOL
REMARK 923 INTER-LIGAND FREE ENERGY PREDICTED BY IDOCK:   -4.58 KCAL/MOL
REMARK 924 INTRA-LIGAND FREE ENERGY PREDICTED BY IDOCK:   -0.20 KCAL/MOL
REMARK 927      BINDING AFFINITY PREDICTED BY RF-SCORE:    0.00 PKD
ROOT
HETATM    1  C   UNL     1     -11.829  11.474  70.308  1.00  0.00    -0.342 C  
HETATM    2  N   UNL     1     -12.058  12.884  70.483  1.00  0.00    -0.497 NA 
HETATM    3  H   UNL     1     -12.082  13.210  71.449  1.00  0.00     0.000 HD 
HETATM    4  C   UNL     1     -12.249  13.844  69.532  1.00  0.00    -0.306 C  
HETATM    5  N   UNL     1     -11.984  13.434  68.257  1.00  0.00    -0.346 NA 
HETATM    6  N   UNL     1     -12.645  15.047  69.764  1.00  0.00    -0.589 NA 
HETATM    7  C   UNL     1     -12.888  15.479  71.128  1.00  0.00    -0.489 C  
HETATM    8  H   UNL     1     -11.821  12.442  68.084  1.00  0.00     0.000 HD 
HETATM    9  H   UNL     1     -12.788  15.696  68.990  1.00  0.00     0.000 HD 
ENDROOT
BRANCH   5  10
HETATM   10  C   UNL     1     -11.926  14.360  67.139  1.00  0.00    -0.389 C  
BRANCH  10  11
HETATM   11  C   UNL     1     -10.567  15.001  66.915  1.00  0.00    -0.297 A  
HETATM   12  C   UNL     1      -9.351  14.318  67.061  1.00  0.00    -0.249 A  
HETATM   13  C   UNL     1      -8.131  14.971  66.861  1.00  0.00    -0.161 A  
HETATM   14  C   UNL     1      -8.108  16.318  66.508  1.00  0.00    -0.337 A  
HETATM   15  C   UNL     1      -9.304  17.012  66.349  1.00  0.00    -0.295 A  
HETATM   16  C   UNL     1     -10.523  16.359  66.548  1.00  0.00    -0.282 A  
ENDBRANCH  10  11
ENDBRANCH   5  10
TORSDOF 2
ENDMDL
MODEL       75
REMARK 921   NORMALIZED FREE ENERGY PREDICTED BY IDOCK:   -4.12 KCAL/MOL
REMARK 922        TOTAL FREE ENERGY PREDICTED BY IDOCK:   -4.77 KCAL/MOL
REMARK 923 INTER-LIGAND FREE ENERGY PREDICTED BY IDOCK:   -4.63 KCAL/MOL
REMARK 924 INTRA-LIGAND FREE ENERGY PREDICTED BY IDOCK:   -0.14 KCAL/MOL
REMARK 927      BINDING AFFINITY PREDICTED BY RF-SCORE:    0.00 PKD
ROOT
HETATM    1  C   UNL     1      -9.625   8.231  66.402  1.00  0.00    -0.230 C  
HETATM    2  N   UNL     1      -9.774   9.191  65.340  1.00  0.00    -0.457 NA 
HETATM    3  H   UNL     1      -9.520   8.861  64.409  1.00  0.00     0.000 HD 
HETATM    4  C   UNL     1     -10.210  10.482  65.410  1.00  0.00    -0.270 C  
HETATM    5  N   UNL     1     -10.760  10.827  66.611  1.00  0.00    -0.236 NA 
HETATM    6  N   UNL     1     -10.130  11.342  64.456  1.00  0.00    -0.267 NA 
HETATM    7  C   UNL     1      -9.576  10.951  63.173  1.00  0.00    -0.357 C  
HETATM    8  H   UNL     1     -10.673  10.180  67.396  1.00  0.00     0.000 HD 
HETATM    9  H   UNL     1     -10.457  12.298  64.601  1.00  0.00     0.000 HD 
ENDROOT
BRANCH   5  10
HETATM   10  C   UNL     1     -11.466  12.081  66.812  1.00  0.00    -0.345 C  
BRANCH  10  11
HETATM   11  C   UNL     1     -11.773  12.412  68.263  1.00  0.00    -0.398 A  
HETATM   12  C   UNL     1     -11.890  11.445  69.273  1.00  0.00    -0.417 A  
HETATM   13  C   UNL     1     -12.196  11.813  70.586  1.00  0.00    -0.443 A  
HETATM   14  C   UNL     1     -12.388  13.154  70.912  1.00  0.00    -0.393 A  
HETATM   15  C   UNL     1     -12.267  14.129  69.926  1.00  0.00    -0.416 A  
HETATM   16  C   UNL     1     -11.960  13.761  68.613  1.00  0.00    -0.401 A  
ENDBRANCH  10  11
ENDBRANCH   5  10
TORSDOF 2
ENDMDL
MODEL       76
REMARK 921   NORMALIZED FREE ENERGY PREDICTED BY IDOCK:   -4.11 KCAL/MOL
REMARK 922        TOTAL FREE ENERGY PREDICTED BY IDOCK:   -4.76 KCAL/MOL
REMARK 923 INTER-LIGAND FREE ENERGY PREDICTED BY IDOCK:   -4.56 KCAL/MOL
REMARK 924 INTRA-LIGAND FREE ENERGY PREDICTED BY IDOCK:   -0.20 KCAL/MOL
REMARK 927      BINDING AFFINITY PREDICTED BY RF-SCORE:    0.00 PKD
ROOT
HETATM    1  C   UNL     1      -7.626  14.739  67.166  1.00  0.00    -0.079 C  
HETATM    2  N   UNL     1      -8.799  14.839  66.339  1.00  0.00    -0.470 NA 
HETATM    3  H   UNL     1      -8.722  15.465  65.538  1.00  0.00     0.000 HD 
HETATM    4  C   UNL     1     -10.001  14.208  66.480  1.00  0.00    -0.283 C  
HETATM    5  N   UNL     1     -10.007  13.209  67.410  1.00  0.00    -0.226 NA 
HETATM    6  N   UNL     1     -11.069  14.494  65.820  1.00  0.00    -0.317 NA 
HETATM    7  C   UNL     1     -11.038  15.534  64.809  1.00  0.00    -0.407 C  
HETATM    8  H   UNL     1      -9.199  13.104  68.024  1.00  0.00     0.000 HD 
HETATM    9  H   UNL     1     -11.935  13.989  66.006  1.00  0.00     0.000 HD 
ENDROOT
BRANCH   5  10
HETATM   10  C   UNL     1     -11.122  12.289  67.556  1.00  0.00    -0.275 C  
BRANCH  10  11
HETATM   11  C   UNL     1     -11.697  12.204  68.960  1.00  0.00    -0.377 A  
HETATM   12  C   UNL     1     -12.041  10.998  69.588  1.00  0.00    -0.411 A  
HETATM   13  C   UNL     1     -12.586  10.990  70.875  1.00  0.00    -0.488 A  
HETATM   14  C   UNL     1     -12.794  12.186  71.557  1.00  0.00    -0.394 A  
HETATM   15  C   UNL     1     -12.451  13.393  70.954  1.00  0.00    -0.439 A  
HETATM   16  C   UNL     1     -11.904  13.402  69.668  1.00  0.00    -0.394 A  
ENDBRANCH  10  11
ENDBRANCH   5  10
TORSDOF 2
ENDMDL
MODEL       77
REMARK 921   NORMALIZED FREE ENERGY PREDICTED BY IDOCK:   -4.08 KCAL/MOL
REMARK 922        TOTAL FREE ENERGY PREDICTED BY IDOCK:   -4.73 KCAL/MOL
REMARK 923 INTER-LIGAND FREE ENERGY PREDICTED BY IDOCK:   -4.57 KCAL/MOL
REMARK 924 INTRA-LIGAND FREE ENERGY PREDICTED BY IDOCK:   -0.16 KCAL/MOL
REMARK 927      BINDING AFFINITY PREDICTED BY RF-SCORE:    0.00 PKD
ROOT
HETATM    1  C   UNL     1      -7.557  17.215  68.800  1.00  0.00    -0.259 C  
HETATM    2  N   UNL     1      -8.599  17.925  68.107  1.00  0.00    -0.257 NA 
HETATM    3  H   UNL     1      -8.301  18.756  67.596  1.00  0.00     0.000 HD 
HETATM    4  C   UNL     1      -9.931  17.639  68.041  1.00  0.00    -0.326 C  
HETATM    5  N   UNL     1     -10.268  16.410  68.530  1.00  0.00    -0.245 NA 
HETATM    6  N   UNL     1     -10.835  18.425  67.569  1.00  0.00    -0.357 NA 
HETATM    7  C   UNL     1     -10.457  19.714  67.020  1.00  0.00    -0.479 C  
HETATM    8  H   UNL     1      -9.563  15.871  69.035  1.00  0.00     0.000 HD 
HETATM    9  H   UNL     1     -11.815  18.143  67.581  1.00  0.00     0.000 HD 
ENDROOT
BRANCH   5  10
HETATM   10  C   UNL     1     -11.593  15.840  68.358  1.00  0.00    -0.338 C  
BRANCH  10  11
HETATM   11  C   UNL     1     -11.616  14.468  67.706  1.00  0.00    -0.390 A  
HETATM   12  C   UNL     1     -12.000  14.245  66.376  1.00  0.00    -0.438 A  
HETATM   13  C   UNL     1     -12.020  12.953  65.841  1.00  0.00    -0.504 A  
HETATM   14  C   UNL     1     -11.653  11.864  66.627  1.00  0.00    -0.337 A  
HETATM   15  C   UNL     1     -11.259  12.064  67.947  1.00  0.00    -0.323 A  
HETATM   16  C   UNL     1     -11.238  13.356  68.481  1.00  0.00    -0.316 A  
ENDBRANCH  10  11
ENDBRANCH   5  10
TORSDOF 2
ENDMDL
MODEL       78
REMARK 921   NORMALIZED FREE ENERGY PREDICTED BY IDOCK:   -4.06 KCAL/MOL
REMARK 922        TOTAL FREE ENERGY PREDICTED BY IDOCK:   -4.70 KCAL/MOL
REMARK 923 INTER-LIGAND FREE ENERGY PREDICTED BY IDOCK:   -4.54 KCAL/MOL
REMARK 924 INTRA-LIGAND FREE ENERGY PREDICTED BY IDOCK:   -0.16 KCAL/MOL
REMARK 927      BINDING AFFINITY PREDICTED BY RF-SCORE:    0.00 PKD
ROOT
HETATM    1  C   UNL     1     -10.660   6.062  66.889  1.00  0.00    -0.315 C  
HETATM    2  N   UNL     1     -10.529   7.435  66.478  1.00  0.00    -0.501 NA 
HETATM    3  H   UNL     1     -10.688   7.615  65.487  1.00  0.00     0.000 HD 
HETATM    4  C   UNL     1     -10.222   8.528  67.235  1.00  0.00    -0.276 C  
HETATM    5  N   UNL     1     -10.243   8.305  68.581  1.00  0.00    -0.201 NA 
HETATM    6  N   UNL     1      -9.928   9.691  66.768  1.00  0.00    -0.212 NA 
HETATM    7  C   UNL     1      -9.944   9.922  65.336  1.00  0.00    -0.279 C  
HETATM    8  H   UNL     1     -10.328   7.346  68.920  1.00  0.00     0.000 HD 
HETATM    9  H   UNL     1      -9.683  10.450  67.405  1.00  0.00     0.000 HD 
ENDROOT
BRANCH   5  10
HETATM   10  C   UNL     1     -10.150   9.384  69.550  1.00  0.00    -0.205 C  
BRANCH  10  11
HETATM   11  C   UNL     1     -11.300   9.450  70.541  1.00  0.00    -0.328 A  
HETATM   12  C   UNL     1     -12.068  10.602  70.765  1.00  0.00    -0.474 A  
HETATM   13  C   UNL     1     -13.101  10.604  71.707  1.00  0.00    -0.571 A  
HETATM   14  C   UNL     1     -13.384   9.453  72.439  1.00  0.00    -0.503 A  
HETATM   15  C   UNL     1     -12.639   8.297  72.225  1.00  0.00    -0.357 A  
HETATM   16  C   UNL     1     -11.608   8.294  71.282  1.00  0.00    -0.318 A  
ENDBRANCH  10  11
ENDBRANCH   5  10
TORSDOF 2
ENDMDL
MODEL       79
REMARK 921   NORMALIZED FREE ENERGY PREDICTED BY IDOCK:   -4.06 KCAL/MOL
REMARK 922        TOTAL FREE ENERGY PREDICTED BY IDOCK:   -4.70 KCAL/MOL
REMARK 923 INTER-LIGAND FREE ENERGY PREDICTED BY IDOCK:   -4.53 KCAL/MOL
REMARK 924 INTRA-LIGAND FREE ENERGY PREDICTED BY IDOCK:   -0.17 KCAL/MOL
REMARK 927      BINDING AFFINITY PREDICTED BY RF-SCORE:    0.00 PKD
ROOT
HETATM    1  C   UNL     1     -13.214  11.229  71.643  1.00  0.00    -0.327 C  
HETATM    2  N   UNL     1     -12.109  10.331  71.435  1.00  0.00    -0.377 NA 
HETATM    3  H   UNL     1     -11.879   9.725  72.222  1.00  0.00     0.000 HD 
HETATM    4  C   UNL     1     -11.328  10.179  70.326  1.00  0.00    -0.315 C  
HETATM    5  N   UNL     1     -11.794  10.823  69.216  1.00  0.00    -0.426 NA 
HETATM    6  N   UNL     1     -10.236   9.499  70.278  1.00  0.00    -0.242 NA 
HETATM    7  C   UNL     1      -9.772   8.790  71.456  1.00  0.00    -0.291 C  
HETATM    8  H   UNL     1     -12.572  11.475  69.317  1.00  0.00     0.000 HD 
HETATM    9  H   UNL     1      -9.697   9.458  69.413  1.00  0.00     0.000 HD 
ENDROOT
BRANCH   5  10
HETATM   10  C   UNL     1     -11.222  10.613  67.897  1.00  0.00    -0.308 C  
BRANCH  10  11
HETATM   11  C   UNL     1     -11.297  11.816  66.973  1.00  0.00    -0.387 A  
HETATM   12  C   UNL     1     -10.973  11.770  65.609  1.00  0.00    -0.348 A  
HETATM   13  C   UNL     1     -11.043  12.919  64.815  1.00  0.00    -0.337 A  
HETATM   14  C   UNL     1     -11.440  14.132  65.372  1.00  0.00    -0.325 A  
HETATM   15  C   UNL     1     -11.775  14.197  66.722  1.00  0.00    -0.432 A  
HETATM   16  C   UNL     1     -11.707  13.048  67.515  1.00  0.00    -0.421 A  
ENDBRANCH  10  11
ENDBRANCH   5  10
TORSDOF 2
ENDMDL
MODEL       80
REMARK 921   NORMALIZED FREE ENERGY PREDICTED BY IDOCK:   -4.05 KCAL/MOL
REMARK 922        TOTAL FREE ENERGY PREDICTED BY IDOCK:   -4.70 KCAL/MOL
REMARK 923 INTER-LIGAND FREE ENERGY PREDICTED BY IDOCK:   -4.57 KCAL/MOL
REMARK 924 INTRA-LIGAND FREE ENERGY PREDICTED BY IDOCK:   -0.13 KCAL/MOL
REMARK 927      BINDING AFFINITY PREDICTED BY RF-SCORE:    0.00 PKD
ROOT
HETATM    1  C   UNL     1      -9.331   9.910  68.808  1.00  0.00    -0.157 C  
HETATM    2  N   UNL     1     -10.381  10.257  69.728  1.00  0.00    -0.292 NA 
HETATM    3  H   UNL     1     -10.444   9.677  70.564  1.00  0.00     0.000 HD 
HETATM    4  C   UNL     1     -11.305  11.256  69.633  1.00  0.00    -0.287 C  
HETATM    5  N   UNL     1     -11.062  12.156  68.635  1.00  0.00    -0.235 NA 
HETATM    6  N   UNL     1     -12.337  11.385  70.392  1.00  0.00    -0.328 NA 
HETATM    7  C   UNL     1     -12.564  10.442  71.471  1.00  0.00    -0.439 C  
HETATM    8  H   UNL     1     -10.329  11.949  67.955  1.00  0.00     0.000 HD 
HETATM    9  H   UNL     1     -12.995  12.149  70.235  1.00  0.00     0.000 HD 
ENDROOT
BRANCH   5  10
HETATM   10  C   UNL     1     -11.807  13.397  68.507  1.00  0.00    -0.366 C  
BRANCH  10  11
HETATM   11  C   UNL     1     -11.663  14.088  67.162  1.00  0.00    -0.421 A  
HETATM   12  C   UNL     1     -12.412  13.745  66.027  1.00  0.00    -0.491 A  
HETATM   13  C   UNL     1     -12.217  14.406  64.811  1.00  0.00    -0.458 A  
HETATM   14  C   UNL     1     -11.272  15.425  64.711  1.00  0.00    -0.404 A  
HETATM   15  C   UNL     1     -10.526  15.787  65.828  1.00  0.00    -0.384 A  
HETATM   16  C   UNL     1     -10.721  15.127  67.044  1.00  0.00    -0.307 A  
ENDBRANCH  10  11
ENDBRANCH   5  10
TORSDOF 2
ENDMDL
MODEL       81
REMARK 921   NORMALIZED FREE ENERGY PREDICTED BY IDOCK:   -4.04 KCAL/MOL
REMARK 922        TOTAL FREE ENERGY PREDICTED BY IDOCK:   -4.69 KCAL/MOL
REMARK 923 INTER-LIGAND FREE ENERGY PREDICTED BY IDOCK:   -4.55 KCAL/MOL
REMARK 924 INTRA-LIGAND FREE ENERGY PREDICTED BY IDOCK:   -0.14 KCAL/MOL
REMARK 927      BINDING AFFINITY PREDICTED BY RF-SCORE:    0.00 PKD
ROOT
HETATM    1  C   UNL     1     -14.333   7.820  71.088  1.00  0.00    -0.177 C  
HETATM    2  N   UNL     1     -12.939   8.008  71.389  1.00  0.00    -0.454 NA 
HETATM    3  H   UNL     1     -12.474   7.219  71.838  1.00  0.00     0.000 HD 
HETATM    4  C   UNL     1     -12.153   9.100  71.156  1.00  0.00    -0.299 C  
HETATM    5  N   UNL     1     -12.725  10.044  70.355  1.00  0.00    -0.539 NA 
HETATM    6  N   UNL     1     -10.969   9.273  71.630  1.00  0.00    -0.373 NA 
HETATM    7  C   UNL     1     -10.359   8.244  72.451  1.00  0.00    -0.332 C  
HETATM    8  H   UNL     1     -13.715   9.956  70.119  1.00  0.00     0.000 HD 
HETATM    9  H   UNL     1     -10.459  10.133  71.428  1.00  0.00     0.000 HD 
ENDROOT
BRANCH   5  10
HETATM   10  C   UNL     1     -11.977  11.171  69.824  1.00  0.00    -0.357 C  
BRANCH  10  11
HETATM   11  C   UNL     1     -11.430  10.967  68.422  1.00  0.00    -0.378 A  
HETATM   12  C   UNL     1     -10.766   9.803  68.008  1.00  0.00    -0.298 A  
HETATM   13  C   UNL     1     -10.266   9.685  66.708  1.00  0.00    -0.308 A  
HETATM   14  C   UNL     1     -10.424  10.729  65.799  1.00  0.00    -0.256 A  
HETATM   15  C   UNL     1     -11.088  11.889  66.187  1.00  0.00    -0.374 A  
HETATM   16  C   UNL     1     -11.589  12.006  67.486  1.00  0.00    -0.401 A  
ENDBRANCH  10  11
ENDBRANCH   5  10
TORSDOF 2
ENDMDL
MODEL       82
REMARK 921   NORMALIZED FREE ENERGY PREDICTED BY IDOCK:   -4.02 KCAL/MOL
REMARK 922        TOTAL FREE ENERGY PREDICTED BY IDOCK:   -4.66 KCAL/MOL
REMARK 923 INTER-LIGAND FREE ENERGY PREDICTED BY IDOCK:   -4.47 KCAL/MOL
REMARK 924 INTRA-LIGAND FREE ENERGY PREDICTED BY IDOCK:   -0.19 KCAL/MOL
REMARK 927      BINDING AFFINITY PREDICTED BY RF-SCORE:    0.00 PKD
ROOT
HETATM    1  C   UNL     1     -11.544  12.254  66.160  1.00  0.00    -0.390 C  
HETATM    2  N   UNL     1     -10.524  12.772  67.033  1.00  0.00    -0.236 NA 
HETATM    3  H   UNL     1     -10.280  13.752  66.893  1.00  0.00     0.000 HD 
HETATM    4  C   UNL     1      -9.840  12.129  68.024  1.00  0.00    -0.202 C  
HETATM    5  N   UNL     1     -10.340  10.902  68.349  1.00  0.00    -0.170 NA 
HETATM    6  N   UNL     1      -8.806  12.597  68.631  1.00  0.00    -0.386 NA 
HETATM    7  C   UNL     1      -8.307  13.919  68.301  1.00  0.00    -0.163 C  
HETATM    8  H   UNL     1     -11.061  10.491  67.754  1.00  0.00     0.000 HD 
HETATM    9  H   UNL     1      -8.336  12.038  69.344  1.00  0.00     0.000 HD 
ENDROOT
BRANCH   5  10
HETATM   10  C   UNL     1      -9.884  10.158  69.511  1.00  0.00    -0.232 C  
BRANCH  10  11
HETATM   11  C   UNL     1     -10.972   9.812  70.512  1.00  0.00    -0.384 A  
HETATM   12  C   UNL     1     -10.993   8.625  71.259  1.00  0.00    -0.333 A  
HETATM   13  C   UNL     1     -12.036   8.356  72.150  1.00  0.00    -0.438 A  
HETATM   14  C   UNL     1     -13.074   9.270  72.311  1.00  0.00    -0.517 A  
HETATM   15  C   UNL     1     -13.068  10.458  71.586  1.00  0.00    -0.553 A  
HETATM   16  C   UNL     1     -12.025  10.728  70.696  1.00  0.00    -0.466 A  
ENDBRANCH  10  11
ENDBRANCH   5  10
TORSDOF 2
ENDMDL
MODEL       83
REMARK 921   NORMALIZED FREE ENERGY PREDICTED BY IDOCK:   -4.00 KCAL/MOL
REMARK 922        TOTAL FREE ENERGY PREDICTED BY IDOCK:   -4.65 KCAL/MOL
REMARK 923 INTER-LIGAND FREE ENERGY PREDICTED BY IDOCK:   -4.48 KCAL/MOL
REMARK 924 INTRA-LIGAND FREE ENERGY PREDICTED BY IDOCK:   -0.16 KCAL/MOL
REMARK 927      BINDING AFFINITY PREDICTED BY RF-SCORE:    0.00 PKD
ROOT
HETATM    1  C   UNL     1      -9.286   5.622  70.213  1.00  0.00    -0.152 C  
HETATM    2  N   UNL     1      -9.960   5.316  71.447  1.00  0.00    -0.178 NA 
HETATM    3  H   UNL     1      -9.512   4.610  72.030  1.00  0.00     0.000 HD 
HETATM    4  C   UNL     1     -11.117   5.843  71.943  1.00  0.00    -0.268 C  
HETATM    5  N   UNL     1     -11.571   6.940  71.269  1.00  0.00    -0.291 NA 
HETATM    6  N   UNL     1     -11.765   5.382  72.955  1.00  0.00    -0.536 NA 
HETATM    7  C   UNL     1     -11.251   4.237  73.684  1.00  0.00    -0.240 C  
HETATM    8  H   UNL     1     -11.128   7.192  70.385  1.00  0.00     0.000 HD 
HETATM    9  H   UNL     1     -12.639   5.821  73.245  1.00  0.00     0.000 HD 
ENDROOT
BRANCH   5  10
HETATM   10  C   UNL     1     -12.662   7.761  71.765  1.00  0.00    -0.329 C  
BRANCH  10  11
HETATM   11  C   UNL     1     -12.549   9.238  71.429  1.00  0.00    -0.411 A  
HETATM   12  C   UNL     1     -13.294  10.240  72.068  1.00  0.00    -0.466 A  
HETATM   13  C   UNL     1     -13.159  11.582  71.699  1.00  0.00    -0.478 A  
HETATM   14  C   UNL     1     -12.275  11.944  70.685  1.00  0.00    -0.424 A  
HETATM   15  C   UNL     1     -11.519  10.966  70.045  1.00  0.00    -0.411 A  
HETATM   16  C   UNL     1     -11.653   9.625  70.415  1.00  0.00    -0.299 A  
ENDBRANCH  10  11
ENDBRANCH   5  10
TORSDOF 2
ENDMDL
MODEL       84
REMARK 921   NORMALIZED FREE ENERGY PREDICTED BY IDOCK:   -4.00 KCAL/MOL
REMARK 922        TOTAL FREE ENERGY PREDICTED BY IDOCK:   -4.64 KCAL/MOL
REMARK 923 INTER-LIGAND FREE ENERGY PREDICTED BY IDOCK:   -4.51 KCAL/MOL
REMARK 924 INTRA-LIGAND FREE ENERGY PREDICTED BY IDOCK:   -0.13 KCAL/MOL
REMARK 927      BINDING AFFINITY PREDICTED BY RF-SCORE:    0.00 PKD
ROOT
HETATM    1  C   UNL     1      -7.937  11.781  67.007  1.00  0.00    -0.164 C  
HETATM    2  N   UNL     1      -8.975  11.987  66.032  1.00  0.00    -0.398 NA 
HETATM    3  H   UNL     1      -8.804  11.579  65.113  1.00  0.00     0.000 HD 
HETATM    4  C   UNL     1     -10.158  12.653  66.172  1.00  0.00    -0.257 C  
HETATM    5  N   UNL     1     -10.470  12.985  67.458  1.00  0.00    -0.226 NA 
HETATM    6  N   UNL     1     -10.948  12.968  65.205  1.00  0.00    -0.288 NA 
HETATM    7  C   UNL     1     -10.621  12.576  63.846  1.00  0.00    -0.440 C  
HETATM    8  H   UNL     1      -9.761  12.862  68.183  1.00  0.00     0.000 HD 
HETATM    9  H   UNL     1     -11.803  13.491  65.393  1.00  0.00     0.000 HD 
ENDROOT
BRANCH   5  10
HETATM   10  C   UNL     1     -11.773  13.506  67.833  1.00  0.00    -0.357 C  
BRANCH  10  11
HETATM   11  C   UNL     1     -11.802  14.252  69.156  1.00  0.00    -0.368 A  
HETATM   12  C   UNL     1     -11.262  15.534  69.339  1.00  0.00    -0.302 A  
HETATM   13  C   UNL     1     -11.302  16.158  70.589  1.00  0.00    -0.394 A  
HETATM   14  C   UNL     1     -11.886  15.513  71.677  1.00  0.00    -0.486 A  
HETATM   15  C   UNL     1     -12.436  14.245  71.514  1.00  0.00    -0.435 A  
HETATM   16  C   UNL     1     -12.397  13.621  70.264  1.00  0.00    -0.392 A  
ENDBRANCH  10  11
ENDBRANCH   5  10
TORSDOF 2
ENDMDL
MODEL       85
REMARK 921   NORMALIZED FREE ENERGY PREDICTED BY IDOCK:   -4.00 KCAL/MOL
REMARK 922        TOTAL FREE ENERGY PREDICTED BY IDOCK:   -4.64 KCAL/MOL
REMARK 923 INTER-LIGAND FREE ENERGY PREDICTED BY IDOCK:   -4.49 KCAL/MOL
REMARK 924 INTRA-LIGAND FREE ENERGY PREDICTED BY IDOCK:   -0.15 KCAL/MOL
REMARK 927      BINDING AFFINITY PREDICTED BY RF-SCORE:    0.00 PKD
ROOT
HETATM    1  C   UNL     1     -10.909  19.552  66.963  1.00  0.00    -0.427 C  
HETATM    2  N   UNL     1      -9.697  19.472  67.735  1.00  0.00    -0.336 NA 
HETATM    3  H   UNL     1      -9.171  20.342  67.823  1.00  0.00     0.000 HD 
HETATM    4  C   UNL     1      -9.156  18.390  68.366  1.00  0.00    -0.320 C  
HETATM    5  N   UNL     1      -9.982  17.306  68.435  1.00  0.00    -0.302 NA 
HETATM    6  N   UNL     1      -7.972  18.343  68.871  1.00  0.00    -0.244 NA 
HETATM    7  C   UNL     1      -7.118  19.516  68.823  1.00  0.00    -0.348 C  
HETATM    8  H   UNL     1     -10.850  17.315  67.898  1.00  0.00     0.000 HD 
HETATM    9  H   UNL     1      -7.634  17.484  69.303  1.00  0.00     0.000 HD 
ENDROOT
BRANCH   5  10
HETATM   10  C   UNL     1      -9.670  16.139  69.243  1.00  0.00    -0.242 C  
BRANCH  10  11
HETATM   11  C   UNL     1     -10.866  15.509  69.936  1.00  0.00    -0.311 A  
HETATM   12  C   UNL     1     -11.587  16.133  70.964  1.00  0.00    -0.434 A  
HETATM   13  C   UNL     1     -12.666  15.490  71.577  1.00  0.00    -0.501 A  
HETATM   14  C   UNL     1     -13.044  14.212  71.170  1.00  0.00    -0.398 A  
HETATM   15  C   UNL     1     -12.347  13.579  70.145  1.00  0.00    -0.345 A  
HETATM   16  C   UNL     1     -11.269  14.223  69.531  1.00  0.00    -0.286 A  
ENDBRANCH  10  11
ENDBRANCH   5  10
TORSDOF 2
ENDMDL
MODEL       86
REMARK 921   NORMALIZED FREE ENERGY PREDICTED BY IDOCK:   -3.99 KCAL/MOL
REMARK 922        TOTAL FREE ENERGY PREDICTED BY IDOCK:   -4.63 KCAL/MOL
REMARK 923 INTER-LIGAND FREE ENERGY PREDICTED BY IDOCK:   -4.46 KCAL/MOL
REMARK 924 INTRA-LIGAND FREE ENERGY PREDICTED BY IDOCK:   -0.17 KCAL/MOL
REMARK 927      BINDING AFFINITY PREDICTED BY RF-SCORE:    0.00 PKD
ROOT
HETATM    1  C   UNL     1      -7.832  10.028  68.463  1.00  0.00    -0.093 C  
HETATM    2  N   UNL     1      -8.862   9.141  67.991  1.00  0.00    -0.129 NA 
HETATM    3  H   UNL     1      -9.211   8.468  68.673  1.00  0.00     0.000 HD 
HETATM    4  C   UNL     1      -9.435   9.078  66.754  1.00  0.00    -0.182 C  
HETATM    5  N   UNL     1      -9.126  10.125  65.936  1.00  0.00    -0.150 NA 
HETATM    6  N   UNL     1     -10.208   8.133  66.344  1.00  0.00    -0.472 NA 
HETATM    7  C   UNL     1     -10.557   7.044  67.238  1.00  0.00    -0.325 C  
HETATM    8  H   UNL     1      -8.396  10.777  66.226  1.00  0.00     0.000 HD 
HETATM    9  H   UNL     1     -10.574   8.148  65.392  1.00  0.00     0.000 HD 
ENDROOT
BRANCH   5  10
HETATM   10  C   UNL     1      -9.798  10.346  64.666  1.00  0.00    -0.338 C  
BRANCH  10  11
HETATM   11  C   UNL     1     -10.759  11.522  64.651  1.00  0.00    -0.379 A  
HETATM   12  C   UNL     1     -11.253  12.108  63.477  1.00  0.00    -0.536 A  
HETATM   13  C   UNL     1     -12.119  13.203  63.530  1.00  0.00    -0.585 A  
HETATM   14  C   UNL     1     -12.509  13.729  64.759  1.00  0.00    -0.386 A  
HETATM   15  C   UNL     1     -12.038  13.157  65.937  1.00  0.00    -0.501 A  
HETATM   16  C   UNL     1     -11.172  12.060  65.884  1.00  0.00    -0.385 A  
ENDBRANCH  10  11
ENDBRANCH   5  10
TORSDOF 2
ENDMDL
MODEL       87
REMARK 921   NORMALIZED FREE ENERGY PREDICTED BY IDOCK:   -3.99 KCAL/MOL
REMARK 922        TOTAL FREE ENERGY PREDICTED BY IDOCK:   -4.63 KCAL/MOL
REMARK 923 INTER-LIGAND FREE ENERGY PREDICTED BY IDOCK:   -4.42 KCAL/MOL
REMARK 924 INTRA-LIGAND FREE ENERGY PREDICTED BY IDOCK:   -0.21 KCAL/MOL
REMARK 927      BINDING AFFINITY PREDICTED BY RF-SCORE:    0.00 PKD
ROOT
HETATM    1  C   UNL     1     -10.355  19.267  65.979  1.00  0.00    -0.475 C  
HETATM    2  N   UNL     1      -9.397  18.850  66.968  1.00  0.00    -0.295 NA 
HETATM    3  H   UNL     1      -8.513  19.357  66.966  1.00  0.00     0.000 HD 
HETATM    4  C   UNL     1      -9.511  17.867  67.908  1.00  0.00    -0.272 C  
HETATM    5  N   UNL     1     -10.772  17.363  68.046  1.00  0.00    -0.390 NA 
HETATM    6  N   UNL     1      -8.543  17.416  68.627  1.00  0.00    -0.274 NA 
HETATM    7  C   UNL     1      -7.215  17.986  68.495  1.00  0.00    -0.263 C  
HETATM    8  H   UNL     1     -11.484  17.626  67.364  1.00  0.00     0.000 HD 
HETATM    9  H   UNL     1      -8.709  16.658  69.290  1.00  0.00     0.000 HD 
ENDROOT
BRANCH   5  10
HETATM   10  C   UNL     1     -11.137  16.466  69.130  1.00  0.00    -0.303 C  
BRANCH  10  11
HETATM   11  C   UNL     1     -11.332  15.017  68.717  1.00  0.00    -0.306 A  
HETATM   12  C   UNL     1     -11.196  14.559  67.399  1.00  0.00    -0.337 A  
HETATM   13  C   UNL     1     -11.410  13.215  67.080  1.00  0.00    -0.354 A  
HETATM   14  C   UNL     1     -11.761  12.306  68.076  1.00  0.00    -0.417 A  
HETATM   15  C   UNL     1     -11.892  12.739  69.392  1.00  0.00    -0.359 A  
HETATM   16  C   UNL     1     -11.677  14.082  69.711  1.00  0.00    -0.375 A  
ENDBRANCH  10  11
ENDBRANCH   5  10
TORSDOF 2
ENDMDL
MODEL       88
REMARK 921   NORMALIZED FREE ENERGY PREDICTED BY IDOCK:   -3.99 KCAL/MOL
REMARK 922        TOTAL FREE ENERGY PREDICTED BY IDOCK:   -4.63 KCAL/MOL
REMARK 923 INTER-LIGAND FREE ENERGY PREDICTED BY IDOCK:   -4.44 KCAL/MOL
REMARK 924 INTRA-LIGAND FREE ENERGY PREDICTED BY IDOCK:   -0.19 KCAL/MOL
REMARK 927      BINDING AFFINITY PREDICTED BY RF-SCORE:    0.00 PKD
ROOT
HETATM    1  C   UNL     1     -11.979  10.536  70.537  1.00  0.00    -0.342 C  
HETATM    2  N   UNL     1     -11.573   9.425  69.717  1.00  0.00    -0.442 NA 
HETATM    3  H   UNL     1     -11.935   8.514  69.999  1.00  0.00     0.000 HD 
HETATM    4  C   UNL     1     -10.769   9.425  68.615  1.00  0.00    -0.160 C  
HETATM    5  N   UNL     1     -10.488  10.666  68.122  1.00  0.00    -0.174 NA 
HETATM    6  N   UNL     1     -10.289   8.372  68.050  1.00  0.00    -0.237 NA 
HETATM    7  C   UNL     1     -10.625   7.057  68.563  1.00  0.00    -0.202 C  
HETATM    8  H   UNL     1     -10.752  11.485  68.672  1.00  0.00     0.000 HD 
HETATM    9  H   UNL     1      -9.672   8.462  67.242  1.00  0.00     0.000 HD 
ENDROOT
BRANCH   5  10
HETATM   10  C   UNL     1      -9.828  10.865  66.843  1.00  0.00    -0.189 C  
BRANCH  10  11
HETATM   11  C   UNL     1     -10.709  11.462  65.759  1.00  0.00    -0.309 A  
HETATM   12  C   UNL     1     -11.790  12.318  66.018  1.00  0.00    -0.409 A  
HETATM   13  C   UNL     1     -12.576  12.818  64.977  1.00  0.00    -0.538 A  
HETATM   14  C   UNL     1     -12.293  12.472  63.657  1.00  0.00    -0.618 A  
HETATM   15  C   UNL     1     -11.219  11.632  63.377  1.00  0.00    -0.401 A  
HETATM   16  C   UNL     1     -10.432  11.133  64.419  1.00  0.00    -0.418 A  
ENDBRANCH  10  11
ENDBRANCH   5  10
TORSDOF 2
ENDMDL
MODEL       89
REMARK 921   NORMALIZED FREE ENERGY PREDICTED BY IDOCK:   -3.97 KCAL/MOL
REMARK 922        TOTAL FREE ENERGY PREDICTED BY IDOCK:   -4.61 KCAL/MOL
REMARK 923 INTER-LIGAND FREE ENERGY PREDICTED BY IDOCK:   -4.40 KCAL/MOL
REMARK 924 INTRA-LIGAND FREE ENERGY PREDICTED BY IDOCK:   -0.21 KCAL/MOL
REMARK 927      BINDING AFFINITY PREDICTED BY RF-SCORE:    0.00 PKD
ROOT
HETATM    1  C   UNL     1      -8.207  10.690  69.300  1.00  0.00    -0.115 C  
HETATM    2  N   UNL     1      -9.632  10.811  69.459  1.00  0.00    -0.429 NA 
HETATM    3  H   UNL     1      -9.961  10.917  70.418  1.00  0.00     0.000 HD 
HETATM    4  C   UNL     1     -10.602  10.802  68.500  1.00  0.00    -0.195 C  
HETATM    5  N   UNL     1     -10.132  10.893  67.222  1.00  0.00    -0.185 NA 
HETATM    6  N   UNL     1     -11.867  10.715  68.727  1.00  0.00    -0.662 NA 
HETATM    7  C   UNL     1     -12.354  10.656  70.093  1.00  0.00    -0.295 C  
HETATM    8  H   UNL     1      -9.128  10.806  67.060  1.00  0.00     0.000 HD 
HETATM    9  H   UNL     1     -12.526  10.688  67.949  1.00  0.00     0.000 HD 
ENDROOT
BRANCH   5  10
HETATM   10  C   UNL     1     -11.009  11.109  66.083  1.00  0.00    -0.138 C  
BRANCH  10  11
HETATM   11  C   UNL     1     -11.145  12.559  65.652  1.00  0.00    -0.338 A  
HETATM   12  C   UNL     1     -12.334  13.114  65.156  1.00  0.00    -0.525 A  
HETATM   13  C   UNL     1     -12.389  14.452  64.755  1.00  0.00    -0.427 A  
HETATM   14  C   UNL     1     -11.256  15.258  64.845  1.00  0.00    -0.422 A  
HETATM   15  C   UNL     1     -10.069  14.728  65.343  1.00  0.00    -0.406 A  
HETATM   16  C   UNL     1     -10.014  13.391  65.745  1.00  0.00    -0.264 A  
ENDBRANCH  10  11
ENDBRANCH   5  10
TORSDOF 2
ENDMDL
MODEL       90
REMARK 921   NORMALIZED FREE ENERGY PREDICTED BY IDOCK:   -3.96 KCAL/MOL
REMARK 922        TOTAL FREE ENERGY PREDICTED BY IDOCK:   -4.60 KCAL/MOL
REMARK 923 INTER-LIGAND FREE ENERGY PREDICTED BY IDOCK:   -4.41 KCAL/MOL
REMARK 924 INTRA-LIGAND FREE ENERGY PREDICTED BY IDOCK:   -0.19 KCAL/MOL
REMARK 927      BINDING AFFINITY PREDICTED BY RF-SCORE:    0.00 PKD
ROOT
HETATM    1  C   UNL     1      -9.219   9.694  66.484  1.00  0.00    -0.158 C  
HETATM    2  N   UNL     1     -10.136  10.186  67.478  1.00  0.00    -0.190 NA 
HETATM    3  H   UNL     1     -10.007   9.814  68.419  1.00  0.00     0.000 HD 
HETATM    4  C   UNL     1     -11.155  11.082  67.333  1.00  0.00    -0.305 C  
HETATM    5  N   UNL     1     -11.163  11.736  66.135  1.00  0.00    -0.323 NA 
HETATM    6  N   UNL     1     -12.058  11.325  68.217  1.00  0.00    -0.660 NA 
HETATM    7  C   UNL     1     -12.016  10.648  69.500  1.00  0.00    -0.247 C  
HETATM    8  H   UNL     1     -10.534  11.418  65.397  1.00  0.00     0.000 HD 
HETATM    9  H   UNL     1     -12.803  11.993  68.017  1.00  0.00     0.000 HD 
ENDROOT
BRANCH   5  10
HETATM   10  C   UNL     1     -12.035  12.869  65.873  1.00  0.00    -0.448 C  
BRANCH  10  11
HETATM   11  C   UNL     1     -11.411  14.227  66.143  1.00  0.00    -0.342 A  
HETATM   12  C   UNL     1     -11.211  14.749  67.430  1.00  0.00    -0.346 A  
HETATM   13  C   UNL     1     -10.650  16.016  67.612  1.00  0.00    -0.309 A  
HETATM   14  C   UNL     1     -10.277  16.782  66.510  1.00  0.00    -0.319 A  
HETATM   15  C   UNL     1     -10.458  16.279  65.225  1.00  0.00    -0.324 A  
HETATM   16  C   UNL     1     -11.018  15.011  65.043  1.00  0.00    -0.436 A  
ENDBRANCH  10  11
ENDBRANCH   5  10
TORSDOF 2
ENDMDL
MODEL       91
REMARK 921   NORMALIZED FREE ENERGY PREDICTED BY IDOCK:   -3.96 KCAL/MOL
REMARK 922        TOTAL FREE ENERGY PREDICTED BY IDOCK:   -4.60 KCAL/MOL
REMARK 923 INTER-LIGAND FREE ENERGY PREDICTED BY IDOCK:   -4.39 KCAL/MOL
REMARK 924 INTRA-LIGAND FREE ENERGY PREDICTED BY IDOCK:   -0.21 KCAL/MOL
REMARK 927      BINDING AFFINITY PREDICTED BY RF-SCORE:    0.00 PKD
ROOT
HETATM    1  C   UNL     1     -11.978  15.691  71.360  1.00  0.00    -0.418 C  
HETATM    2  N   UNL     1     -11.204  16.493  70.451  1.00  0.00    -0.473 NA 
HETATM    3  H   UNL     1     -11.170  17.490  70.662  1.00  0.00     0.000 HD 
HETATM    4  C   UNL     1     -10.507  16.100  69.345  1.00  0.00    -0.283 C  
HETATM    5  N   UNL     1     -10.372  14.749  69.215  1.00  0.00    -0.302 NA 
HETATM    6  N   UNL     1     -10.002  16.896  68.468  1.00  0.00    -0.260 NA 
HETATM    7  C   UNL     1     -10.122  18.332  68.639  1.00  0.00    -0.385 C  
HETATM    8  H   UNL     1     -10.908  14.139  69.834  1.00  0.00     0.000 HD 
HETATM    9  H   UNL     1      -9.518  16.518  67.654  1.00  0.00     0.000 HD 
ENDROOT
BRANCH   5  10
HETATM   10  C   UNL     1      -9.494  14.146  68.227  1.00  0.00    -0.211 C  
BRANCH  10  11
HETATM   11  C   UNL     1     -10.197  13.620  66.988  1.00  0.00    -0.250 A  
HETATM   12  C   UNL     1     -10.964  12.446  66.968  1.00  0.00    -0.303 A  
HETATM   13  C   UNL     1     -11.570  12.003  65.788  1.00  0.00    -0.353 A  
HETATM   14  C   UNL     1     -11.420  12.728  64.609  1.00  0.00    -0.367 A  
HETATM   15  C   UNL     1     -10.670  13.901  64.609  1.00  0.00    -0.422 A  
HETATM   16  C   UNL     1     -10.066  14.345  65.789  1.00  0.00    -0.361 A  
ENDBRANCH  10  11
ENDBRANCH   5  10
TORSDOF 2
ENDMDL
MODEL       92
REMARK 921   NORMALIZED FREE ENERGY PREDICTED BY IDOCK:   -3.94 KCAL/MOL
REMARK 922        TOTAL FREE ENERGY PREDICTED BY IDOCK:   -4.57 KCAL/MOL
REMARK 923 INTER-LIGAND FREE ENERGY PREDICTED BY IDOCK:   -4.41 KCAL/MOL
REMARK 924 INTRA-LIGAND FREE ENERGY PREDICTED BY IDOCK:   -0.16 KCAL/MOL
REMARK 927      BINDING AFFINITY PREDICTED BY RF-SCORE:    0.00 PKD
ROOT
HETATM    1  C   UNL     1      -8.203  13.415  68.404  1.00  0.00    -0.139 C  
HETATM    2  N   UNL     1      -9.498  13.522  69.021  1.00  0.00    -0.379 NA 
HETATM    3  H   UNL     1      -9.699  12.836  69.748  1.00  0.00     0.000 HD 
HETATM    4  C   UNL     1     -10.495  14.418  68.765  1.00  0.00    -0.244 C  
HETATM    5  N   UNL     1     -10.125  15.460  67.965  1.00  0.00    -0.225 NA 
HETATM    6  N   UNL     1     -11.699  14.333  69.213  1.00  0.00    -0.299 NA 
HETATM    7  C   UNL     1     -12.069  13.239  70.092  1.00  0.00    -0.333 C  
HETATM    8  H   UNL     1      -9.217  15.425  67.500  1.00  0.00     0.000 HD 
HETATM    9  H   UNL     1     -12.393  15.034  68.951  1.00  0.00     0.000 HD 
ENDROOT
BRANCH   5  10
HETATM   10  C   UNL     1     -10.977  16.617  67.750  1.00  0.00    -0.234 C  
BRANCH  10  11
HETATM   11  C   UNL     1     -10.234  17.933  67.597  1.00  0.00    -0.369 A  
HETATM   12  C   UNL     1     -10.556  18.901  66.633  1.00  0.00    -0.469 A  
HETATM   13  C   UNL     1      -9.820  20.084  66.530  1.00  0.00    -0.581 A  
HETATM   14  C   UNL     1      -8.750  20.321  67.389  1.00  0.00    -0.428 A  
HETATM   15  C   UNL     1      -8.419  19.378  68.358  1.00  0.00    -0.389 A  
HETATM   16  C   UNL     1      -9.157  18.196  68.463  1.00  0.00    -0.318 A  
ENDBRANCH  10  11
ENDBRANCH   5  10
TORSDOF 2
ENDMDL
MODEL       93
REMARK 921   NORMALIZED FREE ENERGY PREDICTED BY IDOCK:   -3.93 KCAL/MOL
REMARK 922        TOTAL FREE ENERGY PREDICTED BY IDOCK:   -4.56 KCAL/MOL
REMARK 923 INTER-LIGAND FREE ENERGY PREDICTED BY IDOCK:   -4.39 KCAL/MOL
REMARK 924 INTRA-LIGAND FREE ENERGY PREDICTED BY IDOCK:   -0.17 KCAL/MOL
REMARK 927      BINDING AFFINITY PREDICTED BY RF-SCORE:    0.00 PKD
ROOT
HETATM    1  C   UNL     1     -10.034   8.851  66.340  1.00  0.00    -0.284 C  
HETATM    2  N   UNL     1     -10.103   7.417  66.245  1.00  0.00    -0.459 NA 
HETATM    3  H   UNL     1      -9.691   7.011  65.405  1.00  0.00     0.000 HD 
HETATM    4  C   UNL     1     -10.645   6.527  67.125  1.00  0.00    -0.328 C  
HETATM    5  N   UNL     1     -10.978   7.063  68.336  1.00  0.00    -0.450 NA 
HETATM    6  N   UNL     1     -10.848   5.278  66.885  1.00  0.00    -0.376 NA 
HETATM    7  C   UNL     1     -10.456   4.714  65.606  1.00  0.00    -0.227 C  
HETATM    8  H   UNL     1     -10.950   8.077  68.448  1.00  0.00     0.000 HD 
HETATM    9  H   UNL     1     -11.284   4.686  67.591  1.00  0.00     0.000 HD 
ENDROOT
BRANCH   5  10
HETATM   10  C   UNL     1     -11.369   6.242  69.469  1.00  0.00    -0.404 C  
BRANCH  10  11
HETATM   11  C   UNL     1     -10.889   6.750  70.818  1.00  0.00    -0.291 A  
HETATM   12  C   UNL     1     -11.215   6.142  72.039  1.00  0.00    -0.335 A  
HETATM   13  C   UNL     1     -10.758   6.671  73.249  1.00  0.00    -0.315 A  
HETATM   14  C   UNL     1      -9.965   7.816  73.259  1.00  0.00    -0.370 A  
HETATM   15  C   UNL     1      -9.623   8.430  72.057  1.00  0.00    -0.344 A  
HETATM   16  C   UNL     1     -10.079   7.900  70.847  1.00  0.00    -0.205 A  
ENDBRANCH  10  11
ENDBRANCH   5  10
TORSDOF 2
ENDMDL
MODEL       94
REMARK 921   NORMALIZED FREE ENERGY PREDICTED BY IDOCK:   -3.83 KCAL/MOL
REMARK 922        TOTAL FREE ENERGY PREDICTED BY IDOCK:   -4.45 KCAL/MOL
REMARK 923 INTER-LIGAND FREE ENERGY PREDICTED BY IDOCK:   -4.31 KCAL/MOL
REMARK 924 INTRA-LIGAND FREE ENERGY PREDICTED BY IDOCK:   -0.14 KCAL/MOL
REMARK 927      BINDING AFFINITY PREDICTED BY RF-SCORE:    0.00 PKD
ROOT
HETATM    1  C   UNL     1     -10.716   4.864  65.943  1.00  0.00    -0.179 C  
HETATM    2  N   UNL     1     -10.799   5.482  67.240  1.00  0.00    -0.324 NA 
HETATM    3  H   UNL     1     -10.922   4.843  68.025  1.00  0.00     0.000 HD 
HETATM    4  C   UNL     1     -10.737   6.807  67.560  1.00  0.00    -0.311 C  
HETATM    5  N   UNL     1     -10.344   7.617  66.535  1.00  0.00    -0.504 NA 
HETATM    6  N   UNL     1     -11.017   7.302  68.716  1.00  0.00    -0.435 NA 
HETATM    7  C   UNL     1     -11.399   6.425  69.806  1.00  0.00    -0.427 C  
HETATM    8  H   UNL     1     -10.276   7.224  65.596  1.00  0.00     0.000 HD 
HETATM    9  H   UNL     1     -10.970   8.310  68.864  1.00  0.00     0.000 HD 
ENDROOT
BRANCH   5  10
HETATM   10  C   UNL     1     -10.016   9.019  66.732  1.00  0.00    -0.263 C  
BRANCH  10  11
HETATM   11  C   UNL     1      -9.755   9.797  65.454  1.00  0.00    -0.383 A  
HETATM   12  C   UNL     1     -10.513  10.905  65.049  1.00  0.00    -0.331 A  
HETATM   13  C   UNL     1     -10.235  11.566  63.849  1.00  0.00    -0.411 A  
HETATM   14  C   UNL     1      -9.192  11.131  63.035  1.00  0.00    -0.329 A  
HETATM   15  C   UNL     1      -8.422  10.039  63.423  1.00  0.00    -0.182 A  
HETATM   16  C   UNL     1      -8.699   9.378  64.624  1.00  0.00    -0.229 A  
ENDBRANCH  10  11
ENDBRANCH   5  10
TORSDOF 2
ENDMDL
MODEL       95
REMARK 921   NORMALIZED FREE ENERGY PREDICTED BY IDOCK:   -3.81 KCAL/MOL
REMARK 922        TOTAL FREE ENERGY PREDICTED BY IDOCK:   -4.43 KCAL/MOL
REMARK 923 INTER-LIGAND FREE ENERGY PREDICTED BY IDOCK:   -4.27 KCAL/MOL
REMARK 924 INTRA-LIGAND FREE ENERGY PREDICTED BY IDOCK:   -0.16 KCAL/MOL
REMARK 927      BINDING AFFINITY PREDICTED BY RF-SCORE:    0.00 PKD
ROOT
HETATM    1  C   UNL     1     -10.411  17.690  68.879  1.00  0.00    -0.323 C  
HETATM    2  N   UNL     1      -9.438  16.722  68.446  1.00  0.00    -0.233 NA 
HETATM    3  H   UNL     1      -8.490  17.077  68.317  1.00  0.00     0.000 HD 
HETATM    4  C   UNL     1      -9.611  15.394  68.186  1.00  0.00    -0.203 C  
HETATM    5  N   UNL     1     -10.816  14.894  68.586  1.00  0.00    -0.242 NA 
HETATM    6  N   UNL     1      -8.744  14.633  67.614  1.00  0.00    -0.168 NA 
HETATM    7  C   UNL     1      -7.452  15.170  67.228  1.00  0.00    -0.194 C  
HETATM    8  H   UNL     1     -11.540  15.544  68.894  1.00  0.00     0.000 HD 
HETATM    9  H   UNL     1      -8.964  13.654  67.433  1.00  0.00     0.000 HD 
ENDROOT
BRANCH   5  10
HETATM   10  C   UNL     1     -11.106  13.470  68.587  1.00  0.00    -0.269 C  
BRANCH  10  11
HETATM   11  C   UNL     1     -11.900  12.984  69.788  1.00  0.00    -0.381 A  
HETATM   12  C   UNL     1     -12.573  13.840  70.673  1.00  0.00    -0.386 A  
HETATM   13  C   UNL     1     -13.270  13.331  71.772  1.00  0.00    -0.495 A  
HETATM   14  C   UNL     1     -13.307  11.958  72.005  1.00  0.00    -0.425 A  
HETATM   15  C   UNL     1     -12.653  11.092  71.133  1.00  0.00    -0.522 A  
HETATM   16  C   UNL     1     -11.958  11.600  70.033  1.00  0.00    -0.429 A  
ENDBRANCH  10  11
ENDBRANCH   5  10
TORSDOF 2
ENDMDL
MODEL       96
REMARK 921   NORMALIZED FREE ENERGY PREDICTED BY IDOCK:   -3.80 KCAL/MOL
REMARK 922        TOTAL FREE ENERGY PREDICTED BY IDOCK:   -4.41 KCAL/MOL
REMARK 923 INTER-LIGAND FREE ENERGY PREDICTED BY IDOCK:   -4.22 KCAL/MOL
REMARK 924 INTRA-LIGAND FREE ENERGY PREDICTED BY IDOCK:   -0.19 KCAL/MOL
REMARK 927      BINDING AFFINITY PREDICTED BY RF-SCORE:    0.00 PKD
ROOT
HETATM    1  C   UNL     1      -6.138  10.599  65.761  1.00  0.00    -0.134 C  
HETATM    2  N   UNL     1      -7.192   9.623  65.842  1.00  0.00    -0.096 NA 
HETATM    3  H   UNL     1      -7.061   8.890  66.539  1.00  0.00     0.000 HD 
HETATM    4  C   UNL     1      -8.342   9.543  65.112  1.00  0.00    -0.142 C  
HETATM    5  N   UNL     1      -8.607  10.649  64.356  1.00  0.00    -0.302 NA 
HETATM    6  N   UNL     1      -9.142   8.535  65.100  1.00  0.00    -0.426 NA 
HETATM    7  C   UNL     1      -8.867   7.382  65.936  1.00  0.00    -0.120 C  
HETATM    8  H   UNL     1      -7.886  11.366  64.264  1.00  0.00     0.000 HD 
HETATM    9  H   UNL     1      -9.970   8.547  64.503  1.00  0.00     0.000 HD 
ENDROOT
BRANCH   5  10
HETATM   10  C   UNL     1      -9.877  10.842  63.678  1.00  0.00    -0.350 C  
BRANCH  10  11
HETATM   11  C   UNL     1     -10.798  11.859  64.331  1.00  0.00    -0.384 A  
HETATM   12  C   UNL     1     -11.061  11.899  65.708  1.00  0.00    -0.367 A  
HETATM   13  C   UNL     1     -11.936  12.848  66.245  1.00  0.00    -0.472 A  
HETATM   14  C   UNL     1     -12.560  13.775  65.413  1.00  0.00    -0.534 A  
HETATM   15  C   UNL     1     -12.305  13.759  64.045  1.00  0.00    -0.370 A  
HETATM   16  C   UNL     1     -11.429  12.810  63.509  1.00  0.00    -0.521 A  
ENDBRANCH  10  11
ENDBRANCH   5  10
TORSDOF 2
ENDMDL
MODEL       97
REMARK 921   NORMALIZED FREE ENERGY PREDICTED BY IDOCK:   -3.79 KCAL/MOL
REMARK 922        TOTAL FREE ENERGY PREDICTED BY IDOCK:   -4.41 KCAL/MOL
REMARK 923 INTER-LIGAND FREE ENERGY PREDICTED BY IDOCK:   -4.25 KCAL/MOL
REMARK 924 INTRA-LIGAND FREE ENERGY PREDICTED BY IDOCK:   -0.16 KCAL/MOL
REMARK 927      BINDING AFFINITY PREDICTED BY RF-SCORE:    0.00 PKD
ROOT
HETATM    1  C   UNL     1      -9.513   7.051  68.703  1.00  0.00    -0.135 C  
HETATM    2  N   UNL     1     -10.425   7.133  69.813  1.00  0.00    -0.218 NA 
HETATM    3  H   UNL     1     -10.444   6.321  70.429  1.00  0.00     0.000 HD 
HETATM    4  C   UNL     1     -11.269   8.151  70.152  1.00  0.00    -0.134 C  
HETATM    5  N   UNL     1     -11.062   9.309  69.460  1.00  0.00    -0.413 NA 
HETATM    6  N   UNL     1     -12.197   8.077  71.041  1.00  0.00    -0.459 NA 
HETATM    7  C   UNL     1     -12.382   6.851  71.794  1.00  0.00    -0.361 C  
HETATM    8  H   UNL     1     -10.427   9.297  68.660  1.00  0.00     0.000 HD 
HETATM    9  H   UNL     1     -12.803   8.879  71.215  1.00  0.00     0.000 HD 
ENDROOT
BRANCH   5  10
HETATM   10  C   UNL     1     -11.711  10.558  69.820  1.00  0.00    -0.281 C  
BRANCH  10  11
HETATM   11  C   UNL     1     -11.680  11.625  68.740  1.00  0.00    -0.392 A  
HETATM   12  C   UNL     1     -11.985  12.975  68.971  1.00  0.00    -0.312 A  
HETATM   13  C   UNL     1     -11.958  13.906  67.929  1.00  0.00    -0.393 A  
HETATM   14  C   UNL     1     -11.624  13.503  66.638  1.00  0.00    -0.396 A  
HETATM   15  C   UNL     1     -11.309  12.170  66.389  1.00  0.00    -0.411 A  
HETATM   16  C   UNL     1     -11.334  11.240  67.431  1.00  0.00    -0.349 A  
ENDBRANCH  10  11
ENDBRANCH   5  10
TORSDOF 2
ENDMDL
MODEL       98
REMARK 921   NORMALIZED FREE ENERGY PREDICTED BY IDOCK:   -3.79 KCAL/MOL
REMARK 922        TOTAL FREE ENERGY PREDICTED BY IDOCK:   -4.41 KCAL/MOL
REMARK 923 INTER-LIGAND FREE ENERGY PREDICTED BY IDOCK:   -4.25 KCAL/MOL
REMARK 924 INTRA-LIGAND FREE ENERGY PREDICTED BY IDOCK:   -0.16 KCAL/MOL
REMARK 927      BINDING AFFINITY PREDICTED BY RF-SCORE:    0.00 PKD
ROOT
HETATM    1  C   UNL     1      -7.395  13.822  67.783  1.00  0.00    -0.164 C  
HETATM    2  N   UNL     1      -8.499  13.895  66.862  1.00  0.00    -0.409 NA 
HETATM    3  H   UNL     1      -8.410  14.590  66.121  1.00  0.00     0.000 HD 
HETATM    4  C   UNL     1      -9.649  13.160  66.847  1.00  0.00    -0.248 C  
HETATM    5  N   UNL     1      -9.646  12.090  67.694  1.00  0.00    -0.184 NA 
HETATM    6  N   UNL     1     -10.678  13.413  66.115  1.00  0.00    -0.282 NA 
HETATM    7  C   UNL     1     -10.654  14.532  65.193  1.00  0.00    -0.410 C  
HETATM    8  H   UNL     1      -8.886  12.000  68.369  1.00  0.00     0.000 HD 
HETATM    9  H   UNL     1     -11.510  12.827  66.184  1.00  0.00     0.000 HD 
ENDROOT
BRANCH   5  10
HETATM   10  C   UNL     1     -10.684  11.075  67.669  1.00  0.00    -0.238 C  
BRANCH  10  11
HETATM   11  C   UNL     1     -11.218  10.678  69.035  1.00  0.00    -0.324 A  
HETATM   12  C   UNL     1     -12.106  11.465  69.782  1.00  0.00    -0.388 A  
HETATM   13  C   UNL     1     -12.544  11.053  71.044  1.00  0.00    -0.512 A  
HETATM   14  C   UNL     1     -12.104   9.845  71.579  1.00  0.00    -0.496 A  
HETATM   15  C   UNL     1     -11.230   9.044  70.849  1.00  0.00    -0.348 A  
HETATM   16  C   UNL     1     -10.792   9.455  69.587  1.00  0.00    -0.245 A  
ENDBRANCH  10  11
ENDBRANCH   5  10
TORSDOF 2
ENDMDL
MODEL       99
REMARK 921   NORMALIZED FREE ENERGY PREDICTED BY IDOCK:   -3.78 KCAL/MOL
REMARK 922        TOTAL FREE ENERGY PREDICTED BY IDOCK:   -4.40 KCAL/MOL
REMARK 923 INTER-LIGAND FREE ENERGY PREDICTED BY IDOCK:   -4.19 KCAL/MOL
REMARK 924 INTRA-LIGAND FREE ENERGY PREDICTED BY IDOCK:   -0.21 KCAL/MOL
REMARK 927      BINDING AFFINITY PREDICTED BY RF-SCORE:    0.00 PKD
ROOT
HETATM    1  C   UNL     1     -12.770  12.704  64.413  1.00  0.00    -0.332 C  
HETATM    2  N   UNL     1     -12.177  12.222  65.632  1.00  0.00    -0.597 NA 
HETATM    3  H   UNL     1     -11.920  11.235  65.638  1.00  0.00     0.000 HD 
HETATM    4  C   UNL     1     -11.912  12.907  66.782  1.00  0.00    -0.350 C  
HETATM    5  N   UNL     1     -12.044  14.261  66.675  1.00  0.00    -0.436 NA 
HETATM    6  N   UNL     1     -11.564  12.369  67.900  1.00  0.00    -0.336 NA 
HETATM    7  C   UNL     1     -11.392  10.931  67.989  1.00  0.00    -0.312 C  
HETATM    8  H   UNL     1     -12.465  14.648  65.830  1.00  0.00     0.000 HD 
HETATM    9  H   UNL     1     -11.410  12.953  68.722  1.00  0.00     0.000 HD 
ENDROOT
BRANCH   5  10
HETATM   10  C   UNL     1     -11.606  15.171  67.720  1.00  0.00    -0.289 C  
BRANCH  10  11
HETATM   11  C   UNL     1     -10.204  15.724  67.536  1.00  0.00    -0.265 A  
HETATM   12  C   UNL     1      -9.715  16.213  66.315  1.00  0.00    -0.332 A  
HETATM   13  C   UNL     1      -8.406  16.690  66.205  1.00  0.00    -0.360 A  
HETATM   14  C   UNL     1      -7.564  16.688  67.315  1.00  0.00    -0.199 A  
HETATM   15  C   UNL     1      -8.032  16.216  68.538  1.00  0.00    -0.175 A  
HETATM   16  C   UNL     1      -9.342  15.740  68.648  1.00  0.00    -0.206 A  
ENDBRANCH  10  11
ENDBRANCH   5  10
TORSDOF 2
ENDMDL
MODEL      100
REMARK 921   NORMALIZED FREE ENERGY PREDICTED BY IDOCK:   -3.78 KCAL/MOL
REMARK 922        TOTAL FREE ENERGY PREDICTED BY IDOCK:   -4.39 KCAL/MOL
REMARK 923 INTER-LIGAND FREE ENERGY PREDICTED BY IDOCK:   -4.19 KCAL/MOL
REMARK 924 INTRA-LIGAND FREE ENERGY PREDICTED BY IDOCK:   -0.20 KCAL/MOL
REMARK 927      BINDING AFFINITY PREDICTED BY RF-SCORE:    0.00 PKD
ROOT
HETATM    1  C   UNL     1     -12.761   9.243  71.892  1.00  0.00    -0.394 C  
HETATM    2  N   UNL     1     -11.524   9.294  71.158  1.00  0.00    -0.304 NA 
HETATM    3  H   UNL     1     -10.846   8.567  71.386  1.00  0.00     0.000 HD 
HETATM    4  C   UNL     1     -11.136  10.183  70.198  1.00  0.00    -0.315 C  
HETATM    5  N   UNL     1     -12.134  10.995  69.745  1.00  0.00    -0.341 NA 
HETATM    6  N   UNL     1      -9.942  10.287  69.727  1.00  0.00    -0.361 NA 
HETATM    7  C   UNL     1      -8.899   9.392  70.191  1.00  0.00    -0.223 C  
HETATM    8  H   UNL     1     -13.028  10.998  70.239  1.00  0.00     0.000 HD 
HETATM    9  H   UNL     1      -9.730  10.999  69.027  1.00  0.00     0.000 HD 
ENDROOT
BRANCH   5  10
HETATM   10  C   UNL     1     -11.972  11.857  68.587  1.00  0.00    -0.233 C  
BRANCH  10  11
HETATM   11  C   UNL     1     -11.757  13.325  68.911  1.00  0.00    -0.369 A  
HETATM   12  C   UNL     1     -11.736  13.838  70.216  1.00  0.00    -0.271 A  
HETATM   13  C   UNL     1     -11.555  15.204  70.448  1.00  0.00    -0.330 A  
HETATM   14  C   UNL     1     -11.390  16.081  69.378  1.00  0.00    -0.355 A  
HETATM   15  C   UNL     1     -11.399  15.591  68.075  1.00  0.00    -0.332 A  
HETATM   16  C   UNL     1     -11.578  14.224  67.844  1.00  0.00    -0.367 A  
ENDBRANCH  10  11
ENDBRANCH   5  10
TORSDOF 2
ENDMDL
MODEL      101
REMARK 921   NORMALIZED FREE ENERGY PREDICTED BY IDOCK:   -3.78 KCAL/MOL
REMARK 922        TOTAL FREE ENERGY PREDICTED BY IDOCK:   -4.39 KCAL/MOL
REMARK 923 INTER-LIGAND FREE ENERGY PREDICTED BY IDOCK:   -4.24 KCAL/MOL
REMARK 924 INTRA-LIGAND FREE ENERGY PREDICTED BY IDOCK:   -0.15 KCAL/MOL
REMARK 927      BINDING AFFINITY PREDICTED BY RF-SCORE:    0.00 PKD
ROOT
HETATM    1  C   UNL     1     -13.051  13.366  71.475  1.00  0.00    -0.342 C  
HETATM    2  N   UNL     1     -13.224  11.946  71.635  1.00  0.00    -0.362 NA 
HETATM    3  H   UNL     1     -14.067  11.658  72.131  1.00  0.00     0.000 HD 
HETATM    4  C   UNL     1     -12.412  10.934  71.214  1.00  0.00    -0.388 C  
HETATM    5  N   UNL     1     -11.422  11.324  70.359  1.00  0.00    -0.482 NA 
HETATM    6  N   UNL     1     -12.526   9.700  71.563  1.00  0.00    -0.359 NA 
HETATM    7  C   UNL     1     -13.606   9.294  72.443  1.00  0.00    -0.463 C  
HETATM    8  H   UNL     1     -11.258  12.322  70.219  1.00  0.00     0.000 HD 
HETATM    9  H   UNL     1     -11.859   9.008  71.222  1.00  0.00     0.000 HD 
ENDROOT
BRANCH   5  10
HETATM   10  C   UNL     1     -10.592  10.370  69.642  1.00  0.00    -0.253 C  
BRANCH  10  11
HETATM   11  C   UNL     1     -10.393  10.683  68.169  1.00  0.00    -0.203 A  
HETATM   12  C   UNL     1     -10.329  11.986  67.652  1.00  0.00    -0.213 A  
HETATM   13  C   UNL     1     -10.165  12.207  66.282  1.00  0.00    -0.249 A  
HETATM   14  C   UNL     1     -10.060  11.130  65.405  1.00  0.00    -0.317 A  
HETATM   15  C   UNL     1     -10.112   9.829  65.899  1.00  0.00    -0.314 A  
HETATM   16  C   UNL     1     -10.274   9.608  67.269  1.00  0.00    -0.292 A  
ENDBRANCH  10  11
ENDBRANCH   5  10
TORSDOF 2
ENDMDL
MODEL      102
REMARK 921   NORMALIZED FREE ENERGY PREDICTED BY IDOCK:   -3.77 KCAL/MOL
REMARK 922        TOTAL FREE ENERGY PREDICTED BY IDOCK:   -4.39 KCAL/MOL
REMARK 923 INTER-LIGAND FREE ENERGY PREDICTED BY IDOCK:   -4.22 KCAL/MOL
REMARK 924 INTRA-LIGAND FREE ENERGY PREDICTED BY IDOCK:   -0.17 KCAL/MOL
REMARK 927      BINDING AFFINITY PREDICTED BY RF-SCORE:    0.00 PKD
ROOT
HETATM    1  C   UNL     1     -12.662  12.393  63.825  1.00  0.00    -0.364 C  
HETATM    2  N   UNL     1     -12.092  13.385  64.697  1.00  0.00    -0.392 NA 
HETATM    3  H   UNL     1     -12.117  14.344  64.349  1.00  0.00     0.000 HD 
HETATM    4  C   UNL     1     -11.523  13.218  65.926  1.00  0.00    -0.332 C  
HETATM    5  N   UNL     1     -11.707  11.980  66.469  1.00  0.00    -0.575 NA 
HETATM    6  N   UNL     1     -10.857  14.119  66.561  1.00  0.00    -0.295 NA 
HETATM    7  C   UNL     1     -10.700  15.443  65.988  1.00  0.00    -0.322 C  
HETATM    8  H   UNL     1     -12.102  11.241  65.885  1.00  0.00     0.000 HD 
HETATM    9  H   UNL     1     -10.440  13.903  67.467  1.00  0.00     0.000 HD 
ENDROOT
BRANCH   5  10
HETATM   10  C   UNL     1     -11.361  11.675  67.847  1.00  0.00    -0.299 C  
BRANCH  10  11
HETATM   11  C   UNL     1     -10.966  10.230  68.098  1.00  0.00    -0.328 A  
HETATM   12  C   UNL     1     -10.878   9.658  69.375  1.00  0.00    -0.239 A  
HETATM   13  C   UNL     1     -10.487   8.326  69.541  1.00  0.00    -0.228 A  
HETATM   14  C   UNL     1     -10.179   7.543  68.431  1.00  0.00    -0.211 A  
HETATM   15  C   UNL     1     -10.268   8.089  67.154  1.00  0.00    -0.362 A  
HETATM   16  C   UNL     1     -10.661   9.420  66.988  1.00  0.00    -0.272 A  
ENDBRANCH  10  11
ENDBRANCH   5  10
TORSDOF 2
ENDMDL
MODEL      103
REMARK 921   NORMALIZED FREE ENERGY PREDICTED BY IDOCK:   -3.77 KCAL/MOL
REMARK 922        TOTAL FREE ENERGY PREDICTED BY IDOCK:   -4.38 KCAL/MOL
REMARK 923 INTER-LIGAND FREE ENERGY PREDICTED BY IDOCK:   -4.20 KCAL/MOL
REMARK 924 INTRA-LIGAND FREE ENERGY PREDICTED BY IDOCK:   -0.18 KCAL/MOL
REMARK 927      BINDING AFFINITY PREDICTED BY RF-SCORE:    0.00 PKD
ROOT
HETATM    1  C   UNL     1     -12.043  13.276  63.471  1.00  0.00    -0.482 C  
HETATM    2  N   UNL     1     -11.280  14.064  64.402  1.00  0.00    -0.556 NA 
HETATM    3  H   UNL     1     -11.602  15.023  64.536  1.00  0.00     0.000 HD 
HETATM    4  C   UNL     1     -10.185  13.703  65.131  1.00  0.00    -0.328 C  
HETATM    5  N   UNL     1      -9.914  12.366  65.116  1.00  0.00    -0.383 NA 
HETATM    6  N   UNL     1      -9.436  14.515  65.792  1.00  0.00    -0.531 NA 
HETATM    7  C   UNL     1      -9.757  15.930  65.829  1.00  0.00    -0.325 C  
HETATM    8  H   UNL     1     -10.426  11.768  64.466  1.00  0.00     0.000 HD 
HETATM    9  H   UNL     1      -8.617  14.165  66.290  1.00  0.00     0.000 HD 
ENDROOT
BRANCH   5  10
HETATM   10  C   UNL     1      -8.923  11.762  65.991  1.00  0.00    -0.107 C  
BRANCH  10  11
HETATM   11  C   UNL     1      -9.478  10.741  66.970  1.00  0.00    -0.186 A  
HETATM   12  C   UNL     1      -9.845   9.437  66.608  1.00  0.00    -0.309 A  
HETATM   13  C   UNL     1     -10.370   8.550  67.553  1.00  0.00    -0.334 A  
HETATM   14  C   UNL     1     -10.533   8.952  68.876  1.00  0.00    -0.225 A  
HETATM   15  C   UNL     1     -10.166  10.240  69.258  1.00  0.00    -0.244 A  
HETATM   16  C   UNL     1      -9.640  11.126  68.313  1.00  0.00    -0.185 A  
ENDBRANCH  10  11
ENDBRANCH   5  10
TORSDOF 2
ENDMDL
MODEL      104
REMARK 921   NORMALIZED FREE ENERGY PREDICTED BY IDOCK:   -3.74 KCAL/MOL
REMARK 922        TOTAL FREE ENERGY PREDICTED BY IDOCK:   -4.35 KCAL/MOL
REMARK 923 INTER-LIGAND FREE ENERGY PREDICTED BY IDOCK:   -4.16 KCAL/MOL
REMARK 924 INTRA-LIGAND FREE ENERGY PREDICTED BY IDOCK:   -0.20 KCAL/MOL
REMARK 927      BINDING AFFINITY PREDICTED BY RF-SCORE:    0.00 PKD
ROOT
HETATM    1  C   UNL     1      -9.445  10.603  62.776  1.00  0.00    -0.328 C  
HETATM    2  N   UNL     1      -9.444  10.295  64.181  1.00  0.00    -0.282 NA 
HETATM    3  H   UNL     1      -8.729   9.636  64.487  1.00  0.00     0.000 HD 
HETATM    4  C   UNL     1     -10.270  10.765  65.160  1.00  0.00    -0.298 C  
HETATM    5  N   UNL     1     -11.060  11.810  64.777  1.00  0.00    -0.310 NA 
HETATM    6  N   UNL     1     -10.339  10.297  66.357  1.00  0.00    -0.218 NA 
HETATM    7  C   UNL     1      -9.468   9.209  66.761  1.00  0.00    -0.175 C  
HETATM    8  H   UNL     1     -11.098  12.061  63.788  1.00  0.00     0.000 HD 
HETATM    9  H   UNL     1     -11.006  10.690  67.022  1.00  0.00     0.000 HD 
ENDROOT
BRANCH   5  10
HETATM   10  C   UNL     1     -11.848  12.579  65.725  1.00  0.00    -0.437 C  
BRANCH  10  11
HETATM   11  C   UNL     1     -11.248  13.920  66.112  1.00  0.00    -0.303 A  
HETATM   12  C   UNL     1     -10.349  14.631  65.304  1.00  0.00    -0.425 A  
HETATM   13  C   UNL     1      -9.816  15.852  65.726  1.00  0.00    -0.380 A  
HETATM   14  C   UNL     1     -10.174  16.383  66.963  1.00  0.00    -0.282 A  
HETATM   15  C   UNL     1     -11.072  15.698  67.775  1.00  0.00    -0.311 A  
HETATM   16  C   UNL     1     -11.607  14.478  67.353  1.00  0.00    -0.406 A  
ENDBRANCH  10  11
ENDBRANCH   5  10
TORSDOF 2
ENDMDL
MODEL      105
REMARK 921   NORMALIZED FREE ENERGY PREDICTED BY IDOCK:   -3.74 KCAL/MOL
REMARK 922        TOTAL FREE ENERGY PREDICTED BY IDOCK:   -4.35 KCAL/MOL
REMARK 923 INTER-LIGAND FREE ENERGY PREDICTED BY IDOCK:   -4.24 KCAL/MOL
REMARK 924 INTRA-LIGAND FREE ENERGY PREDICTED BY IDOCK:   -0.11 KCAL/MOL
REMARK 927      BINDING AFFINITY PREDICTED BY RF-SCORE:    0.00 PKD
ROOT
HETATM    1  C   UNL     1     -12.631   7.301  70.858  1.00  0.00    -0.193 C  
HETATM    2  N   UNL     1     -12.681   8.691  71.223  1.00  0.00    -0.457 NA 
HETATM    3  H   UNL     1     -13.273   8.916  72.023  1.00  0.00     0.000 HD 
HETATM    4  C   UNL     1     -12.044   9.751  70.645  1.00  0.00    -0.230 C  
HETATM    5  N   UNL     1     -11.087   9.405  69.737  1.00  0.00    -0.354 NA 
HETATM    6  N   UNL     1     -12.289  10.989  70.899  1.00  0.00    -0.381 NA 
HETATM    7  C   UNL     1     -13.285  11.341  71.894  1.00  0.00    -0.386 C  
HETATM    8  H   UNL     1     -11.018   8.430  69.442  1.00  0.00     0.000 HD 
HETATM    9  H   UNL     1     -11.784  11.722  70.401  1.00  0.00     0.000 HD 
ENDROOT
BRANCH   5  10
HETATM   10  C   UNL     1     -10.162  10.374  69.174  1.00  0.00    -0.222 C  
BRANCH  10  11
HETATM   11  C   UNL     1     -10.606  10.985  67.856  1.00  0.00    -0.244 A  
HETATM   12  C   UNL     1     -11.424  12.121  67.762  1.00  0.00    -0.398 A  
HETATM   13  C   UNL     1     -11.815  12.623  66.518  1.00  0.00    -0.463 A  
HETATM   14  C   UNL     1     -11.393  12.000  65.346  1.00  0.00    -0.375 A  
HETATM   15  C   UNL     1     -10.572  10.877  65.417  1.00  0.00    -0.243 A  
HETATM   16  C   UNL     1     -10.180  10.376  66.661  1.00  0.00    -0.292 A  
ENDBRANCH  10  11
ENDBRANCH   5  10
TORSDOF 2
ENDMDL
MODEL      106
REMARK 921   NORMALIZED FREE ENERGY PREDICTED BY IDOCK:   -3.74 KCAL/MOL
REMARK 922        TOTAL FREE ENERGY PREDICTED BY IDOCK:   -4.35 KCAL/MOL
REMARK 923 INTER-LIGAND FREE ENERGY PREDICTED BY IDOCK:   -4.20 KCAL/MOL
REMARK 924 INTRA-LIGAND FREE ENERGY PREDICTED BY IDOCK:   -0.15 KCAL/MOL
REMARK 927      BINDING AFFINITY PREDICTED BY RF-SCORE:    0.00 PKD
ROOT
HETATM    1  C   UNL     1     -10.832  14.489  68.798  1.00  0.00    -0.248 C  
HETATM    2  N   UNL     1     -11.267  13.885  67.567  1.00  0.00    -0.292 NA 
HETATM    3  H   UNL     1     -11.492  14.533  66.812  1.00  0.00     0.000 HD 
HETATM    4  C   UNL     1     -11.420  12.561  67.271  1.00  0.00    -0.353 C  
HETATM    5  N   UNL     1     -10.897  11.712  68.203  1.00  0.00    -0.205 NA 
HETATM    6  N   UNL     1     -12.001  12.100  66.219  1.00  0.00    -0.613 NA 
HETATM    7  C   UNL     1     -12.520  13.015  65.219  1.00  0.00    -0.499 C  
HETATM    8  H   UNL     1     -10.581  12.095  69.095  1.00  0.00     0.000 HD 
HETATM    9  H   UNL     1     -12.097  11.093  66.087  1.00  0.00     0.000 HD 
ENDROOT
BRANCH   5  10
HETATM   10  C   UNL     1     -10.774  10.283  67.972  1.00  0.00    -0.255 C  
BRANCH  10  11
HETATM   11  C   UNL     1     -10.739   9.435  69.232  1.00  0.00    -0.228 A  
HETATM   12  C   UNL     1     -10.827   9.965  70.528  1.00  0.00    -0.391 A  
HETATM   13  C   UNL     1     -10.768   9.132  71.649  1.00  0.00    -0.441 A  
HETATM   14  C   UNL     1     -10.622   7.756  71.493  1.00  0.00    -0.247 A  
HETATM   15  C   UNL     1     -10.542   7.209  70.215  1.00  0.00    -0.245 A  
HETATM   16  C   UNL     1     -10.603   8.042  69.094  1.00  0.00    -0.181 A  
ENDBRANCH  10  11
ENDBRANCH   5  10
TORSDOF 2
ENDMDL
MODEL      107
REMARK 921   NORMALIZED FREE ENERGY PREDICTED BY IDOCK:   -3.73 KCAL/MOL
REMARK 922        TOTAL FREE ENERGY PREDICTED BY IDOCK:   -4.34 KCAL/MOL
REMARK 923 INTER-LIGAND FREE ENERGY PREDICTED BY IDOCK:   -4.16 KCAL/MOL
REMARK 924 INTRA-LIGAND FREE ENERGY PREDICTED BY IDOCK:   -0.18 KCAL/MOL
REMARK 927      BINDING AFFINITY PREDICTED BY RF-SCORE:    0.00 PKD
ROOT
HETATM    1  C   UNL     1      -9.953   7.361  66.941  1.00  0.00    -0.236 C  
HETATM    2  N   UNL     1      -8.841   7.929  66.227  1.00  0.00    -0.152 NA 
HETATM    3  H   UNL     1      -7.973   7.395  66.263  1.00  0.00     0.000 HD 
HETATM    4  C   UNL     1      -8.790   9.087  65.507  1.00  0.00    -0.194 C  
HETATM    5  N   UNL     1     -10.006   9.662  65.277  1.00  0.00    -0.405 NA 
HETATM    6  N   UNL     1      -7.713   9.634  65.060  1.00  0.00    -0.113 NA 
HETATM    7  C   UNL     1      -6.430   8.992  65.280  1.00  0.00    -0.068 C  
HETATM    8  H   UNL     1     -10.823   9.297  65.768  1.00  0.00     0.000 HD 
HETATM    9  H   UNL     1      -7.761  10.517  64.552  1.00  0.00     0.000 HD 
ENDROOT
BRANCH   5  10
HETATM   10  C   UNL     1     -10.180  10.776  64.361  1.00  0.00    -0.364 C  
BRANCH  10  11
HETATM   11  C   UNL     1     -10.936  11.962  64.937  1.00  0.00    -0.367 A  
HETATM   12  C   UNL     1     -11.198  12.126  66.305  1.00  0.00    -0.382 A  
HETATM   13  C   UNL     1     -11.918  13.230  66.770  1.00  0.00    -0.438 A  
HETATM   14  C   UNL     1     -12.386  14.190  65.875  1.00  0.00    -0.486 A  
HETATM   15  C   UNL     1     -12.128  14.050  64.514  1.00  0.00    -0.484 A  
HETATM   16  C   UNL     1     -11.407  12.947  64.049  1.00  0.00    -0.466 A  
ENDBRANCH  10  11
ENDBRANCH   5  10
TORSDOF 2
ENDMDL
MODEL      108
REMARK 921   NORMALIZED FREE ENERGY PREDICTED BY IDOCK:   -3.73 KCAL/MOL
REMARK 922        TOTAL FREE ENERGY PREDICTED BY IDOCK:   -4.34 KCAL/MOL
REMARK 923 INTER-LIGAND FREE ENERGY PREDICTED BY IDOCK:   -4.11 KCAL/MOL
REMARK 924 INTRA-LIGAND FREE ENERGY PREDICTED BY IDOCK:   -0.22 KCAL/MOL
REMARK 927      BINDING AFFINITY PREDICTED BY RF-SCORE:    0.00 PKD
ROOT
HETATM    1  C   UNL     1      -7.188  12.400  68.692  1.00  0.00    -0.104 C  
HETATM    2  N   UNL     1      -8.271  13.333  68.857  1.00  0.00    -0.351 NA 
HETATM    3  H   UNL     1      -8.010  14.254  69.210  1.00  0.00     0.000 HD 
HETATM    4  C   UNL     1      -9.599  13.153  68.604  1.00  0.00    -0.029 C  
HETATM    5  N   UNL     1      -9.893  12.009  67.920  1.00  0.00    -0.190 NA 
HETATM    6  N   UNL     1     -10.536  13.962  68.961  1.00  0.00    -0.368 NA 
HETATM    7  C   UNL     1     -10.205  15.192  69.656  1.00  0.00    -0.208 C  
HETATM    8  H   UNL     1      -9.158  11.315  67.785  1.00  0.00     0.000 HD 
HETATM    9  H   UNL     1     -11.510  13.738  68.755  1.00  0.00     0.000 HD 
ENDROOT
BRANCH   5  10
HETATM   10  C   UNL     1     -11.215  11.745  67.378  1.00  0.00    -0.297 C  
BRANCH  10  11
HETATM   11  C   UNL     1     -11.382  12.095  65.910  1.00  0.00    -0.407 A  
HETATM   12  C   UNL     1     -10.750  11.401  64.868  1.00  0.00    -0.350 A  
HETATM   13  C   UNL     1     -10.928  11.787  63.536  1.00  0.00    -0.499 A  
HETATM   14  C   UNL     1     -11.743  12.872  63.224  1.00  0.00    -0.408 A  
HETATM   15  C   UNL     1     -12.387  13.569  64.242  1.00  0.00    -0.392 A  
HETATM   16  C   UNL     1     -12.211  13.182  65.574  1.00  0.00    -0.513 A  
ENDBRANCH  10  11
ENDBRANCH   5  10
TORSDOF 2
ENDMDL
MODEL      109
REMARK 921   NORMALIZED FREE ENERGY PREDICTED BY IDOCK:   -3.72 KCAL/MOL
REMARK 922        TOTAL FREE ENERGY PREDICTED BY IDOCK:   -4.33 KCAL/MOL
REMARK 923 INTER-LIGAND FREE ENERGY PREDICTED BY IDOCK:   -4.17 KCAL/MOL
REMARK 924 INTRA-LIGAND FREE ENERGY PREDICTED BY IDOCK:   -0.16 KCAL/MOL
REMARK 927      BINDING AFFINITY PREDICTED BY RF-SCORE:    0.00 PKD
ROOT
HETATM    1  C   UNL     1     -11.187   5.148  73.152  1.00  0.00    -0.330 C  
HETATM    2  N   UNL     1     -12.058   6.149  72.594  1.00  0.00    -0.530 NA 
HETATM    3  H   UNL     1     -12.738   6.551  73.239  1.00  0.00     0.000 HD 
HETATM    4  C   UNL     1     -12.097   6.633  71.319  1.00  0.00    -0.341 C  
HETATM    5  N   UNL     1     -11.040   6.259  70.541  1.00  0.00    -0.311 NA 
HETATM    6  N   UNL     1     -13.028   7.382  70.840  1.00  0.00    -0.602 NA 
HETATM    7  C   UNL     1     -14.128   7.802  71.690  1.00  0.00    -0.429 C  
HETATM    8  H   UNL     1     -10.399   5.546  70.893  1.00  0.00     0.000 HD 
HETATM    9  H   UNL     1     -12.995   7.680  69.865  1.00  0.00     0.000 HD 
ENDROOT
BRANCH   5  10
HETATM   10  C   UNL     1     -10.794   6.837  69.231  1.00  0.00    -0.264 C  
BRANCH  10  11
HETATM   11  C   UNL     1     -10.414   5.835  68.155  1.00  0.00    -0.277 A  
HETATM   12  C   UNL     1     -10.995   5.807  66.878  1.00  0.00    -0.242 A  
HETATM   13  C   UNL     1     -10.617   4.844  65.938  1.00  0.00    -0.280 A  
HETATM   14  C   UNL     1      -9.650   3.895  66.257  1.00  0.00    -0.198 A  
HETATM   15  C   UNL     1      -9.054   3.911  67.515  1.00  0.00    -0.176 A  
HETATM   16  C   UNL     1      -9.431   4.874  68.455  1.00  0.00    -0.194 A  
ENDBRANCH  10  11
ENDBRANCH   5  10
TORSDOF 2
ENDMDL
MODEL      110
REMARK 921   NORMALIZED FREE ENERGY PREDICTED BY IDOCK:   -3.72 KCAL/MOL
REMARK 922        TOTAL FREE ENERGY PREDICTED BY IDOCK:   -4.33 KCAL/MOL
REMARK 923 INTER-LIGAND FREE ENERGY PREDICTED BY IDOCK:   -4.19 KCAL/MOL
REMARK 924 INTRA-LIGAND FREE ENERGY PREDICTED BY IDOCK:   -0.14 KCAL/MOL
REMARK 927      BINDING AFFINITY PREDICTED BY RF-SCORE:    0.00 PKD
ROOT
HETATM    1  C   UNL     1     -11.756  11.636  68.195  1.00  0.00    -0.295 C  
HETATM    2  N   UNL     1     -11.080  11.488  66.934  1.00  0.00    -0.296 NA 
HETATM    3  H   UNL     1     -11.083  10.548  66.540  1.00  0.00     0.000 HD 
HETATM    4  C   UNL     1     -10.435  12.435  66.193  1.00  0.00    -0.248 C  
HETATM    5  N   UNL     1     -10.640  13.717  66.615  1.00  0.00    -0.276 NA 
HETATM    6  N   UNL     1      -9.684  12.194  65.175  1.00  0.00    -0.417 NA 
HETATM    7  C   UNL     1      -9.504  10.829  64.715  1.00  0.00    -0.247 C  
HETATM    8  H   UNL     1     -11.109  13.871  67.509  1.00  0.00     0.000 HD 
HETATM    9  H   UNL     1      -9.216  12.961  64.692  1.00  0.00     0.000 HD 
ENDROOT
BRANCH   5  10
HETATM   10  C   UNL     1     -10.214  14.870  65.840  1.00  0.00    -0.314 C  
BRANCH  10  11
HETATM   11  C   UNL     1     -10.332  16.201  66.563  1.00  0.00    -0.311 A  
HETATM   12  C   UNL     1     -10.392  16.325  67.958  1.00  0.00    -0.279 A  
HETATM   13  C   UNL     1     -10.522  17.579  68.562  1.00  0.00    -0.361 A  
HETATM   14  C   UNL     1     -10.591  18.730  67.781  1.00  0.00    -0.452 A  
HETATM   15  C   UNL     1     -10.524  18.629  66.394  1.00  0.00    -0.463 A  
HETATM   16  C   UNL     1     -10.393  17.375  65.790  1.00  0.00    -0.226 A  
ENDBRANCH  10  11
ENDBRANCH   5  10
TORSDOF 2
ENDMDL
MODEL      111
REMARK 921   NORMALIZED FREE ENERGY PREDICTED BY IDOCK:   -3.71 KCAL/MOL
REMARK 922        TOTAL FREE ENERGY PREDICTED BY IDOCK:   -4.32 KCAL/MOL
REMARK 923 INTER-LIGAND FREE ENERGY PREDICTED BY IDOCK:   -4.18 KCAL/MOL
REMARK 924 INTRA-LIGAND FREE ENERGY PREDICTED BY IDOCK:   -0.14 KCAL/MOL
REMARK 927      BINDING AFFINITY PREDICTED BY RF-SCORE:    0.00 PKD
ROOT
HETATM    1  C   UNL     1     -12.280  12.258  63.373  1.00  0.00    -0.527 C  
HETATM    2  N   UNL     1     -10.925  11.774  63.412  1.00  0.00    -0.608 NA 
HETATM    3  H   UNL     1     -10.565  11.400  62.534  1.00  0.00     0.000 HD 
HETATM    4  C   UNL     1     -10.057  11.749  64.464  1.00  0.00    -0.274 C  
HETATM    5  N   UNL     1     -10.471  12.458  65.554  1.00  0.00    -0.268 NA 
HETATM    6  N   UNL     1      -8.932  11.123  64.480  1.00  0.00    -0.378 NA 
HETATM    7  C   UNL     1      -8.487  10.402  63.301  1.00  0.00    -0.177 C  
HETATM    8  H   UNL     1     -11.427  12.816  65.574  1.00  0.00     0.000 HD 
HETATM    9  H   UNL     1      -8.353  11.133  65.320  1.00  0.00     0.000 HD 
ENDROOT
BRANCH   5  10
HETATM   10  C   UNL     1      -9.601  12.724  66.687  1.00  0.00    -0.255 C  
BRANCH  10  11
HETATM   11  C   UNL     1     -10.065  13.849  67.595  1.00  0.00    -0.241 A  
HETATM   12  C   UNL     1     -11.399  14.275  67.687  1.00  0.00    -0.344 A  
HETATM   13  C   UNL     1     -11.759  15.331  68.528  1.00  0.00    -0.352 A  
HETATM   14  C   UNL     1     -10.792  15.979  69.294  1.00  0.00    -0.300 A  
HETATM   15  C   UNL     1      -9.465  15.565  69.225  1.00  0.00    -0.263 A  
HETATM   16  C   UNL     1      -9.105  14.508  68.385  1.00  0.00    -0.191 A  
ENDBRANCH  10  11
ENDBRANCH   5  10
TORSDOF 2
ENDMDL
MODEL      112
REMARK 921   NORMALIZED FREE ENERGY PREDICTED BY IDOCK:   -3.71 KCAL/MOL
REMARK 922        TOTAL FREE ENERGY PREDICTED BY IDOCK:   -4.32 KCAL/MOL
REMARK 923 INTER-LIGAND FREE ENERGY PREDICTED BY IDOCK:   -4.15 KCAL/MOL
REMARK 924 INTRA-LIGAND FREE ENERGY PREDICTED BY IDOCK:   -0.16 KCAL/MOL
REMARK 927      BINDING AFFINITY PREDICTED BY RF-SCORE:    0.00 PKD
ROOT
HETATM    1  C   UNL     1     -11.672  10.754  69.786  1.00  0.00    -0.324 C  
HETATM    2  N   UNL     1     -12.491   9.902  70.607  1.00  0.00    -0.466 NA 
HETATM    3  H   UNL     1     -13.473   9.842  70.339  1.00  0.00     0.000 HD 
HETATM    4  C   UNL     1     -12.132   9.162  71.696  1.00  0.00    -0.362 C  
HETATM    5  N   UNL     1     -10.785   9.071  71.896  1.00  0.00    -0.355 NA 
HETATM    6  N   UNL     1     -12.954   8.581  72.499  1.00  0.00    -0.596 NA 
HETATM    7  C   UNL     1     -14.382   8.656  72.253  1.00  0.00    -0.396 C  
HETATM    8  H   UNL     1     -10.165   9.662  71.341  1.00  0.00     0.000 HD 
HETATM    9  H   UNL     1     -12.601   8.068  73.308  1.00  0.00     0.000 HD 
ENDROOT
BRANCH   5  10
HETATM   10  C   UNL     1     -10.202   8.164  72.870  1.00  0.00    -0.270 C  
BRANCH  10  11
HETATM   11  C   UNL     1     -10.108   6.718  72.415  1.00  0.00    -0.188 A  
HETATM   12  C   UNL     1      -9.555   6.324  71.188  1.00  0.00    -0.190 A  
HETATM   13  C   UNL     1      -9.517   4.977  70.818  1.00  0.00    -0.230 A  
HETATM   14  C   UNL     1     -10.027   4.000  71.670  1.00  0.00    -0.232 A  
HETATM   15  C   UNL     1     -10.571   4.370  72.897  1.00  0.00    -0.264 A  
HETATM   16  C   UNL     1     -10.609   5.717  73.268  1.00  0.00    -0.279 A  
ENDBRANCH  10  11
ENDBRANCH   5  10
TORSDOF 2
ENDMDL
MODEL      113
REMARK 921   NORMALIZED FREE ENERGY PREDICTED BY IDOCK:   -3.67 KCAL/MOL
REMARK 922        TOTAL FREE ENERGY PREDICTED BY IDOCK:   -4.27 KCAL/MOL
REMARK 923 INTER-LIGAND FREE ENERGY PREDICTED BY IDOCK:   -4.14 KCAL/MOL
REMARK 924 INTRA-LIGAND FREE ENERGY PREDICTED BY IDOCK:   -0.13 KCAL/MOL
REMARK 927      BINDING AFFINITY PREDICTED BY RF-SCORE:    0.00 PKD
ROOT
HETATM    1  C   UNL     1     -13.716  13.325  72.296  1.00  0.00    -0.589 C  
HETATM    2  N   UNL     1     -13.259  12.066  71.769  1.00  0.00    -0.410 NA 
HETATM    3  H   UNL     1     -13.709  11.237  72.156  1.00  0.00     0.000 HD 
HETATM    4  C   UNL     1     -12.305  11.831  70.823  1.00  0.00    -0.337 C  
HETATM    5  N   UNL     1     -11.886  12.946  70.157  1.00  0.00    -0.504 NA 
HETATM    6  N   UNL     1     -11.808  10.676  70.544  1.00  0.00    -0.329 NA 
HETATM    7  C   UNL     1     -12.289   9.495  71.235  1.00  0.00    -0.345 C  
HETATM    8  H   UNL     1     -12.179  13.862  70.498  1.00  0.00     0.000 HD 
HETATM    9  H   UNL     1     -11.076  10.592  69.838  1.00  0.00     0.000 HD 
ENDROOT
BRANCH   5  10
HETATM   10  C   UNL     1     -11.036  12.876  68.980  1.00  0.00    -0.233 C  
BRANCH  10  11
HETATM   11  C   UNL     1     -10.691  14.221  68.364  1.00  0.00    -0.257 A  
HETATM   12  C   UNL     1      -9.726  15.092  68.891  1.00  0.00    -0.224 A  
HETATM   13  C   UNL     1      -9.469  16.328  68.289  1.00  0.00    -0.214 A  
HETATM   14  C   UNL     1     -10.171  16.711  67.149  1.00  0.00    -0.290 A  
HETATM   15  C   UNL     1     -11.126  15.858  66.605  1.00  0.00    -0.045 A  
HETATM   16  C   UNL     1     -11.383  14.622  67.206  1.00  0.00    -0.364 A  
ENDBRANCH  10  11
ENDBRANCH   5  10
TORSDOF 2
ENDMDL
MODEL      114
REMARK 921   NORMALIZED FREE ENERGY PREDICTED BY IDOCK:   -3.66 KCAL/MOL
REMARK 922        TOTAL FREE ENERGY PREDICTED BY IDOCK:   -4.26 KCAL/MOL
REMARK 923 INTER-LIGAND FREE ENERGY PREDICTED BY IDOCK:   -4.09 KCAL/MOL
REMARK 924 INTRA-LIGAND FREE ENERGY PREDICTED BY IDOCK:   -0.17 KCAL/MOL
REMARK 927      BINDING AFFINITY PREDICTED BY RF-SCORE:    0.00 PKD
ROOT
HETATM    1  C   UNL     1     -12.899  12.033  63.478  1.00  0.00    -0.341 C  
HETATM    2  N   UNL     1     -12.603  12.573  64.778  1.00  0.00    -0.640 NA 
HETATM    3  H   UNL     1     -13.300  13.214  65.158  1.00  0.00     0.000 HD 
HETATM    4  C   UNL     1     -11.517  12.345  65.572  1.00  0.00    -0.361 C  
HETATM    5  N   UNL     1     -10.721  11.318  65.155  1.00  0.00    -0.274 NA 
HETATM    6  N   UNL     1     -11.222  13.012  66.633  1.00  0.00    -0.296 NA 
HETATM    7  C   UNL     1     -12.098  14.077  67.085  1.00  0.00    -0.401 C  
HETATM    8  H   UNL     1     -10.889  10.907  64.236  1.00  0.00     0.000 HD 
HETATM    9  H   UNL     1     -10.374  12.792  67.156  1.00  0.00     0.000 HD 
ENDROOT
BRANCH   5  10
HETATM   10  C   UNL     1      -9.642  10.788  65.972  1.00  0.00    -0.201 C  
BRANCH  10  11
HETATM   11  C   UNL     1      -9.682   9.284  66.180  1.00  0.00    -0.349 A  
HETATM   12  C   UNL     1     -10.661   8.630  66.943  1.00  0.00    -0.270 A  
HETATM   13  C   UNL     1     -10.630   7.243  67.113  1.00  0.00    -0.416 A  
HETATM   14  C   UNL     1      -9.622   6.486  66.522  1.00  0.00    -0.184 A  
HETATM   15  C   UNL     1      -8.646   7.114  65.753  1.00  0.00    -0.143 A  
HETATM   16  C   UNL     1      -8.677   8.501  65.581  1.00  0.00    -0.213 A  
ENDBRANCH  10  11
ENDBRANCH   5  10
TORSDOF 2
ENDMDL
MODEL      115
REMARK 921   NORMALIZED FREE ENERGY PREDICTED BY IDOCK:   -3.66 KCAL/MOL
REMARK 922        TOTAL FREE ENERGY PREDICTED BY IDOCK:   -4.26 KCAL/MOL
REMARK 923 INTER-LIGAND FREE ENERGY PREDICTED BY IDOCK:   -4.07 KCAL/MOL
REMARK 924 INTRA-LIGAND FREE ENERGY PREDICTED BY IDOCK:   -0.19 KCAL/MOL
REMARK 927      BINDING AFFINITY PREDICTED BY RF-SCORE:    0.00 PKD
ROOT
HETATM    1  C   UNL     1      -7.657  15.972  66.822  1.00  0.00    -0.212 C  
HETATM    2  N   UNL     1      -9.014  15.937  67.302  1.00  0.00    -0.190 NA 
HETATM    3  H   UNL     1      -9.282  16.702  67.922  1.00  0.00     0.000 HD 
HETATM    4  C   UNL     1      -9.990  15.021  67.039  1.00  0.00    -0.242 C  
HETATM    5  N   UNL     1      -9.687  14.147  66.036  1.00  0.00    -0.417 NA 
HETATM    6  N   UNL     1     -11.117  14.943  67.657  1.00  0.00    -0.301 NA 
HETATM    7  C   UNL     1     -11.440  15.902  68.697  1.00  0.00    -0.391 C  
HETATM    8  H   UNL     1      -8.735  14.131  65.668  1.00  0.00     0.000 HD 
HETATM    9  H   UNL     1     -11.782  14.209  67.416  1.00  0.00     0.000 HD 
ENDROOT
BRANCH   5  10
HETATM   10  C   UNL     1     -10.671  13.239  65.471  1.00  0.00    -0.289 C  
BRANCH  10  11
HETATM   11  C   UNL     1     -10.539  11.796  65.927  1.00  0.00    -0.314 A  
HETATM   12  C   UNL     1      -9.915  10.794  65.168  1.00  0.00    -0.351 A  
HETATM   13  C   UNL     1      -9.845   9.479  65.634  1.00  0.00    -0.343 A  
HETATM   14  C   UNL     1     -10.396   9.142  66.869  1.00  0.00    -0.321 A  
HETATM   15  C   UNL     1     -11.011  10.123  67.642  1.00  0.00    -0.331 A  
HETATM   16  C   UNL     1     -11.080  11.439  67.176  1.00  0.00    -0.366 A  
ENDBRANCH  10  11
ENDBRANCH   5  10
TORSDOF 2
ENDMDL
MODEL      116
REMARK 921   NORMALIZED FREE ENERGY PREDICTED BY IDOCK:   -3.65 KCAL/MOL
REMARK 922        TOTAL FREE ENERGY PREDICTED BY IDOCK:   -4.24 KCAL/MOL
REMARK 923 INTER-LIGAND FREE ENERGY PREDICTED BY IDOCK:   -4.04 KCAL/MOL
REMARK 924 INTRA-LIGAND FREE ENERGY PREDICTED BY IDOCK:   -0.20 KCAL/MOL
REMARK 927      BINDING AFFINITY PREDICTED BY RF-SCORE:    0.00 PKD
ROOT
HETATM    1  C   UNL     1      -8.338   8.600  67.605  1.00  0.00    -0.121 C  
HETATM    2  N   UNL     1      -9.205   9.694  67.955  1.00  0.00    -0.125 NA 
HETATM    3  H   UNL     1      -9.488  10.297  67.182  1.00  0.00     0.000 HD 
HETATM    4  C   UNL     1      -9.701  10.034  69.180  1.00  0.00    -0.209 C  
HETATM    5  N   UNL     1      -9.504   9.093  70.148  1.00  0.00    -0.192 NA 
HETATM    6  N   UNL     1     -10.308  11.136  69.452  1.00  0.00    -0.425 NA 
HETATM    7  C   UNL     1     -10.542  12.112  68.404  1.00  0.00    -0.226 C  
HETATM    8  H   UNL     1      -8.891   8.302  69.948  1.00  0.00     0.000 HD 
HETATM    9  H   UNL     1     -10.624  11.324  70.404  1.00  0.00     0.000 HD 
ENDROOT
BRANCH   5  10
HETATM   10  C   UNL     1     -10.136   9.176  71.454  1.00  0.00    -0.322 C  
BRANCH  10  11
HETATM   11  C   UNL     1     -11.532   8.582  71.524  1.00  0.00    -0.350 A  
HETATM   12  C   UNL     1     -11.807   7.218  71.342  1.00  0.00    -0.338 A  
HETATM   13  C   UNL     1     -13.118   6.736  71.397  1.00  0.00    -0.214 A  
HETATM   14  C   UNL     1     -14.176   7.610  71.638  1.00  0.00    -0.578 A  
HETATM   15  C   UNL     1     -13.924   8.965  71.831  1.00  0.00    -0.476 A  
HETATM   16  C   UNL     1     -12.613   9.447  71.777  1.00  0.00    -0.470 A  
ENDBRANCH  10  11
ENDBRANCH   5  10
TORSDOF 2
ENDMDL
MODEL      117
REMARK 921   NORMALIZED FREE ENERGY PREDICTED BY IDOCK:   -3.62 KCAL/MOL
REMARK 922        TOTAL FREE ENERGY PREDICTED BY IDOCK:   -4.22 KCAL/MOL
REMARK 923 INTER-LIGAND FREE ENERGY PREDICTED BY IDOCK:   -4.06 KCAL/MOL
REMARK 924 INTRA-LIGAND FREE ENERGY PREDICTED BY IDOCK:   -0.16 KCAL/MOL
REMARK 927      BINDING AFFINITY PREDICTED BY RF-SCORE:    0.00 PKD
ROOT
HETATM    1  C   UNL     1     -11.188   6.406  69.274  1.00  0.00    -0.375 C  
HETATM    2  N   UNL     1     -10.963   5.903  67.945  1.00  0.00    -0.275 NA 
HETATM    3  H   UNL     1     -11.349   4.979  67.753  1.00  0.00     0.000 HD 
HETATM    4  C   UNL     1     -10.303   6.494  66.908  1.00  0.00    -0.243 C  
HETATM    5  N   UNL     1     -10.001   7.810  67.108  1.00  0.00    -0.205 NA 
HETATM    6  N   UNL     1      -9.969   5.906  65.812  1.00  0.00    -0.367 NA 
HETATM    7  C   UNL     1     -10.329   4.516  65.598  1.00  0.00    -0.247 C  
HETATM    8  H   UNL     1     -10.138   8.209  68.038  1.00  0.00     0.000 HD 
HETATM    9  H   UNL     1      -9.452   6.415  65.096  1.00  0.00     0.000 HD 
ENDROOT
BRANCH   5  10
HETATM   10  C   UNL     1      -9.491   8.662  66.048  1.00  0.00    -0.208 C  
BRANCH  10  11
HETATM   11  C   UNL     1     -10.181  10.010  65.929  1.00  0.00    -0.275 A  
HETATM   12  C   UNL     1     -10.780  10.675  67.009  1.00  0.00    -0.317 A  
HETATM   13  C   UNL     1     -11.418  11.906  66.831  1.00  0.00    -0.390 A  
HETATM   14  C   UNL     1     -11.465  12.494  65.569  1.00  0.00    -0.389 A  
HETATM   15  C   UNL     1     -10.868  11.856  64.486  1.00  0.00    -0.368 A  
HETATM   16  C   UNL     1     -10.229  10.626  64.665  1.00  0.00    -0.404 A  
ENDBRANCH  10  11
ENDBRANCH   5  10
TORSDOF 2
ENDMDL
MODEL      118
REMARK 921   NORMALIZED FREE ENERGY PREDICTED BY IDOCK:   -3.59 KCAL/MOL
REMARK 922        TOTAL FREE ENERGY PREDICTED BY IDOCK:   -4.19 KCAL/MOL
REMARK 923 INTER-LIGAND FREE ENERGY PREDICTED BY IDOCK:   -4.05 KCAL/MOL
REMARK 924 INTRA-LIGAND FREE ENERGY PREDICTED BY IDOCK:   -0.14 KCAL/MOL
REMARK 927      BINDING AFFINITY PREDICTED BY RF-SCORE:    0.00 PKD
ROOT
HETATM    1  C   UNL     1     -10.135  10.922  69.065  1.00  0.00    -0.196 C  
HETATM    2  N   UNL     1     -11.260  11.362  69.847  1.00  0.00    -0.462 NA 
HETATM    3  H   UNL     1     -11.610  12.295  69.629  1.00  0.00     0.000 HD 
HETATM    4  C   UNL     1     -11.921  10.701  70.841  1.00  0.00    -0.363 C  
HETATM    5  N   UNL     1     -11.592   9.381  70.956  1.00  0.00    -0.305 NA 
HETATM    6  N   UNL     1     -12.790  11.230  71.630  1.00  0.00    -0.425 NA 
HETATM    7  C   UNL     1     -13.157  12.625  71.472  1.00  0.00    -0.278 C  
HETATM    8  H   UNL     1     -10.796   9.025  70.425  1.00  0.00     0.000 HD 
HETATM    9  H   UNL     1     -13.220  10.669  72.366  1.00  0.00     0.000 HD 
ENDROOT
BRANCH   5  10
HETATM   10  C   UNL     1     -12.332   8.466  71.807  1.00  0.00    -0.331 C  
BRANCH  10  11
HETATM   11  C   UNL     1     -11.502   7.345  72.409  1.00  0.00    -0.343 A  
HETATM   12  C   UNL     1     -10.709   7.494  73.557  1.00  0.00    -0.299 A  
HETATM   13  C   UNL     1      -9.951   6.428  74.049  1.00  0.00    -0.301 A  
HETATM   14  C   UNL     1      -9.975   5.194  73.404  1.00  0.00    -0.185 A  
HETATM   15  C   UNL     1     -10.763   5.022  72.269  1.00  0.00    -0.246 A  
HETATM   16  C   UNL     1     -11.522   6.088  71.777  1.00  0.00    -0.314 A  
ENDBRANCH  10  11
ENDBRANCH   5  10
TORSDOF 2
ENDMDL
MODEL      119
REMARK 921   NORMALIZED FREE ENERGY PREDICTED BY IDOCK:   -3.59 KCAL/MOL
REMARK 922        TOTAL FREE ENERGY PREDICTED BY IDOCK:   -4.19 KCAL/MOL
REMARK 923 INTER-LIGAND FREE ENERGY PREDICTED BY IDOCK:   -4.00 KCAL/MOL
REMARK 924 INTRA-LIGAND FREE ENERGY PREDICTED BY IDOCK:   -0.18 KCAL/MOL
REMARK 927      BINDING AFFINITY PREDICTED BY RF-SCORE:    0.00 PKD
ROOT
HETATM    1  C   UNL     1     -10.749  11.818  66.300  1.00  0.00    -0.270 C  
HETATM    2  N   UNL     1     -10.113  10.532  66.406  1.00  0.00    -0.221 NA 
HETATM    3  H   UNL     1      -9.740  10.151  65.537  1.00  0.00     0.000 HD 
HETATM    4  C   UNL     1      -9.941   9.753  67.513  1.00  0.00    -0.184 C  
HETATM    5  N   UNL     1     -10.233  10.375  68.692  1.00  0.00    -0.172 NA 
HETATM    6  N   UNL     1      -9.541   8.529  67.501  1.00  0.00    -0.149 NA 
HETATM    7  C   UNL     1      -9.199   7.891  66.243  1.00  0.00    -0.178 C  
HETATM    8  H   UNL     1     -10.691  11.287  68.665  1.00  0.00     0.000 HD 
HETATM    9  H   UNL     1      -9.464   8.008  68.375  1.00  0.00     0.000 HD 
ENDROOT
BRANCH   5  10
HETATM   10  C   UNL     1      -9.917   9.787  69.982  1.00  0.00    -0.254 C  
BRANCH  10  11
HETATM   11  C   UNL     1     -11.117   9.535  70.878  1.00  0.00    -0.406 A  
HETATM   12  C   UNL     1     -11.310   8.352  71.606  1.00  0.00    -0.349 A  
HETATM   13  C   UNL     1     -12.448   8.172  72.397  1.00  0.00    -0.309 A  
HETATM   14  C   UNL     1     -13.412   9.175  72.475  1.00  0.00    -0.490 A  
HETATM   15  C   UNL     1     -13.236  10.360  71.768  1.00  0.00    -0.529 A  
HETATM   16  C   UNL     1     -12.097  10.540  70.978  1.00  0.00    -0.492 A  
ENDBRANCH  10  11
ENDBRANCH   5  10
TORSDOF 2
ENDMDL
MODEL      120
REMARK 921   NORMALIZED FREE ENERGY PREDICTED BY IDOCK:   -3.59 KCAL/MOL
REMARK 922        TOTAL FREE ENERGY PREDICTED BY IDOCK:   -4.18 KCAL/MOL
REMARK 923 INTER-LIGAND FREE ENERGY PREDICTED BY IDOCK:   -3.96 KCAL/MOL
REMARK 924 INTRA-LIGAND FREE ENERGY PREDICTED BY IDOCK:   -0.22 KCAL/MOL
REMARK 927      BINDING AFFINITY PREDICTED BY RF-SCORE:    0.00 PKD
ROOT
HETATM    1  C   UNL     1     -11.881  14.818  71.503  1.00  0.00    -0.331 C  
HETATM    2  N   UNL     1     -11.767  14.499  70.105  1.00  0.00    -0.283 NA 
HETATM    3  H   UNL     1     -11.532  15.281  69.492  1.00  0.00     0.000 HD 
HETATM    4  C   UNL     1     -11.929  13.294  69.486  1.00  0.00    -0.307 C  
HETATM    5  N   UNL     1     -12.010  12.230  70.338  1.00  0.00    -0.502 NA 
HETATM    6  N   UNL     1     -12.007  13.120  68.213  1.00  0.00    -0.335 NA 
HETATM    7  C   UNL     1     -11.883  14.256  67.318  1.00  0.00    -0.413 C  
HETATM    8  H   UNL     1     -12.099  12.408  71.339  1.00  0.00     0.000 HD 
HETATM    9  H   UNL     1     -12.156  12.185  67.833  1.00  0.00     0.000 HD 
ENDROOT
BRANCH   5  10
HETATM   10  C   UNL     1     -11.973  10.855  69.871  1.00  0.00    -0.353 C  
BRANCH  10  11
HETATM   11  C   UNL     1     -10.605  10.199  69.932  1.00  0.00    -0.331 A  
HETATM   12  C   UNL     1      -9.608  10.387  68.963  1.00  0.00    -0.212 A  
HETATM   13  C   UNL     1      -8.375   9.737  69.066  1.00  0.00    -0.127 A  
HETATM   14  C   UNL     1      -8.117   8.890  70.141  1.00  0.00    -0.122 A  
HETATM   15  C   UNL     1      -9.089   8.696  71.118  1.00  0.00    -0.263 A  
HETATM   16  C   UNL     1     -10.321   9.347  71.016  1.00  0.00    -0.382 A  
ENDBRANCH  10  11
ENDBRANCH   5  10
TORSDOF 2
ENDMDL
MODEL      121
REMARK 921   NORMALIZED FREE ENERGY PREDICTED BY IDOCK:   -3.59 KCAL/MOL
REMARK 922        TOTAL FREE ENERGY PREDICTED BY IDOCK:   -4.18 KCAL/MOL
REMARK 923 INTER-LIGAND FREE ENERGY PREDICTED BY IDOCK:   -3.96 KCAL/MOL
REMARK 924 INTRA-LIGAND FREE ENERGY PREDICTED BY IDOCK:   -0.22 KCAL/MOL
REMARK 927      BINDING AFFINITY PREDICTED BY RF-SCORE:    0.00 PKD
ROOT
HETATM    1  C   UNL     1     -10.326   8.790  66.566  1.00  0.00    -0.184 C  
HETATM    2  N   UNL     1     -10.102  10.056  67.211  1.00  0.00    -0.197 NA 
HETATM    3  H   UNL     1      -9.773  10.808  66.605  1.00  0.00     0.000 HD 
HETATM    4  C   UNL     1     -10.269  10.387  68.524  1.00  0.00    -0.173 C  
HETATM    5  N   UNL     1     -10.924   9.446  69.264  1.00  0.00    -0.392 NA 
HETATM    6  N   UNL     1      -9.862  11.481  69.069  1.00  0.00    -0.411 NA 
HETATM    7  C   UNL     1      -9.199  12.488  68.262  1.00  0.00    -0.186 C  
HETATM    8  H   UNL     1     -11.100   8.530  68.849  1.00  0.00     0.000 HD 
HETATM    9  H   UNL     1     -10.005  11.639  70.067  1.00  0.00     0.000 HD 
ENDROOT
BRANCH   5  10
HETATM   10  C   UNL     1     -11.381   9.701  70.619  1.00  0.00    -0.312 C  
BRANCH  10  11
HETATM   11  C   UNL     1     -10.684   8.879  71.690  1.00  0.00    -0.418 A  
HETATM   12  C   UNL     1      -9.305   8.941  71.943  1.00  0.00    -0.275 A  
HETATM   13  C   UNL     1      -8.720   8.143  72.929  1.00  0.00    -0.290 A  
HETATM   14  C   UNL     1      -9.503   7.271  73.682  1.00  0.00    -0.293 A  
HETATM   15  C   UNL     1     -10.874   7.202  73.454  1.00  0.00    -0.360 A  
HETATM   16  C   UNL     1     -11.460   8.001  72.468  1.00  0.00    -0.471 A  
ENDBRANCH  10  11
ENDBRANCH   5  10
TORSDOF 2
ENDMDL
MODEL      122
REMARK 921   NORMALIZED FREE ENERGY PREDICTED BY IDOCK:   -3.58 KCAL/MOL
REMARK 922        TOTAL FREE ENERGY PREDICTED BY IDOCK:   -4.17 KCAL/MOL
REMARK 923 INTER-LIGAND FREE ENERGY PREDICTED BY IDOCK:   -4.02 KCAL/MOL
REMARK 924 INTRA-LIGAND FREE ENERGY PREDICTED BY IDOCK:   -0.16 KCAL/MOL
REMARK 927      BINDING AFFINITY PREDICTED BY RF-SCORE:    0.00 PKD
ROOT
HETATM    1  C   UNL     1     -10.600   9.237  67.989  1.00  0.00    -0.208 C  
HETATM    2  N   UNL     1      -9.679  10.338  68.084  1.00  0.00    -0.142 NA 
HETATM    3  H   UNL     1      -8.698  10.108  67.928  1.00  0.00     0.000 HD 
HETATM    4  C   UNL     1      -9.941  11.650  68.355  1.00  0.00    -0.201 C  
HETATM    5  N   UNL     1     -11.266  11.977  68.329  1.00  0.00    -0.239 NA 
HETATM    6  N   UNL     1      -9.051  12.542  68.619  1.00  0.00    -0.390 NA 
HETATM    7  C   UNL     1      -7.644  12.188  68.607  1.00  0.00    -0.097 C  
HETATM    8  H   UNL     1     -11.956  11.228  68.270  1.00  0.00     0.000 HD 
HETATM    9  H   UNL     1      -9.335  13.498  68.838  1.00  0.00     0.000 HD 
ENDROOT
BRANCH   5  10
HETATM   10  C   UNL     1     -11.728  13.354  68.384  1.00  0.00    -0.355 C  
BRANCH  10  11
HETATM   11  C   UNL     1     -11.650  14.104  67.066  1.00  0.00    -0.404 A  
HETATM   12  C   UNL     1     -12.345  13.719  65.910  1.00  0.00    -0.516 A  
HETATM   13  C   UNL     1     -12.214  14.441  64.720  1.00  0.00    -0.458 A  
HETATM   14  C   UNL     1     -11.387  15.561  64.667  1.00  0.00    -0.363 A  
HETATM   15  C   UNL     1     -10.696  15.965  65.805  1.00  0.00    -0.325 A  
HETATM   16  C   UNL     1     -10.828  15.244  66.996  1.00  0.00    -0.321 A  
ENDBRANCH  10  11
ENDBRANCH   5  10
TORSDOF 2
ENDMDL
MODEL      123
REMARK 921   NORMALIZED FREE ENERGY PREDICTED BY IDOCK:   -3.57 KCAL/MOL
REMARK 922        TOTAL FREE ENERGY PREDICTED BY IDOCK:   -4.16 KCAL/MOL
REMARK 923 INTER-LIGAND FREE ENERGY PREDICTED BY IDOCK:   -3.99 KCAL/MOL
REMARK 924 INTRA-LIGAND FREE ENERGY PREDICTED BY IDOCK:   -0.17 KCAL/MOL
REMARK 927      BINDING AFFINITY PREDICTED BY RF-SCORE:    0.00 PKD
ROOT
HETATM    1  C   UNL     1     -12.116  12.727  63.381  1.00  0.00    -0.534 C  
HETATM    2  N   UNL     1     -10.883  12.188  63.892  1.00  0.00    -0.364 NA 
HETATM    3  H   UNL     1     -10.422  11.501  63.297  1.00  0.00     0.000 HD 
HETATM    4  C   UNL     1     -10.247  12.474  65.065  1.00  0.00    -0.279 C  
HETATM    5  N   UNL     1     -10.750  13.553  65.731  1.00  0.00    -0.272 NA 
HETATM    6  N   UNL     1      -9.254  11.812  65.548  1.00  0.00    -0.407 NA 
HETATM    7  C   UNL     1      -8.706  10.688  64.811  1.00  0.00    -0.160 C  
HETATM    8  H   UNL     1     -11.627  13.965  65.409  1.00  0.00     0.000 HD 
HETATM    9  H   UNL     1      -8.852  12.076  66.447  1.00  0.00     0.000 HD 
ENDROOT
BRANCH   5  10
HETATM   10  C   UNL     1     -10.083  14.138  66.882  1.00  0.00    -0.258 C  
BRANCH  10  11
HETATM   11  C   UNL     1      -9.619  15.571  66.687  1.00  0.00    -0.273 A  
HETATM   12  C   UNL     1      -8.277  15.972  66.770  1.00  0.00    -0.307 A  
HETATM   13  C   UNL     1      -7.916  17.312  66.601  1.00  0.00    -0.296 A  
HETATM   14  C   UNL     1      -8.890  18.273  66.344  1.00  0.00    -0.256 A  
HETATM   15  C   UNL     1     -10.226  17.895  66.248  1.00  0.00    -0.363 A  
HETATM   16  C   UNL     1     -10.587  16.555  66.415  1.00  0.00    -0.221 A  
ENDBRANCH  10  11
ENDBRANCH   5  10
TORSDOF 2
ENDMDL
MODEL      124
REMARK 921   NORMALIZED FREE ENERGY PREDICTED BY IDOCK:   -3.57 KCAL/MOL
REMARK 922        TOTAL FREE ENERGY PREDICTED BY IDOCK:   -4.16 KCAL/MOL
REMARK 923 INTER-LIGAND FREE ENERGY PREDICTED BY IDOCK:   -4.02 KCAL/MOL
REMARK 924 INTRA-LIGAND FREE ENERGY PREDICTED BY IDOCK:   -0.15 KCAL/MOL
REMARK 927      BINDING AFFINITY PREDICTED BY RF-SCORE:    0.00 PKD
ROOT
HETATM    1  C   UNL     1     -10.553   5.479  66.727  1.00  0.00    -0.291 C  
HETATM    2  N   UNL     1     -10.478   6.903  66.528  1.00  0.00    -0.502 NA 
HETATM    3  H   UNL     1     -10.415   7.210  65.558  1.00  0.00     0.000 HD 
HETATM    4  C   UNL     1     -10.481   7.897  67.463  1.00  0.00    -0.262 C  
HETATM    5  N   UNL     1     -10.798   7.485  68.724  1.00  0.00    -0.409 NA 
HETATM    6  N   UNL     1     -10.212   9.134  67.227  1.00  0.00    -0.234 NA 
HETATM    7  C   UNL     1      -9.912   9.565  65.874  1.00  0.00    -0.272 C  
HETATM    8  H   UNL     1     -10.856   6.483  68.914  1.00  0.00     0.000 HD 
HETATM    9  H   UNL     1     -10.211   9.811  67.990  1.00  0.00     0.000 HD 
ENDROOT
BRANCH   5  10
HETATM   10  C   UNL     1     -11.057   8.419  69.807  1.00  0.00    -0.056 C  
BRANCH  10  11
HETATM   11  C   UNL     1     -10.788   7.871  71.198  1.00  0.00    -0.257 A  
HETATM   12  C   UNL     1      -9.994   8.525  72.151  1.00  0.00    -0.387 A  
HETATM   13  C   UNL     1      -9.767   7.958  73.408  1.00  0.00    -0.318 A  
HETATM   14  C   UNL     1     -10.331   6.726  73.733  1.00  0.00    -0.397 A  
HETATM   15  C   UNL     1     -11.129   6.065  72.805  1.00  0.00    -0.305 A  
HETATM   16  C   UNL     1     -11.358   6.633  71.548  1.00  0.00    -0.326 A  
ENDBRANCH  10  11
ENDBRANCH   5  10
TORSDOF 2
ENDMDL
MODEL      125
REMARK 921   NORMALIZED FREE ENERGY PREDICTED BY IDOCK:   -3.56 KCAL/MOL
REMARK 922        TOTAL FREE ENERGY PREDICTED BY IDOCK:   -4.15 KCAL/MOL
REMARK 923 INTER-LIGAND FREE ENERGY PREDICTED BY IDOCK:   -3.94 KCAL/MOL
REMARK 924 INTRA-LIGAND FREE ENERGY PREDICTED BY IDOCK:   -0.21 KCAL/MOL
REMARK 927      BINDING AFFINITY PREDICTED BY RF-SCORE:    0.00 PKD
ROOT
HETATM    1  C   UNL     1     -12.455  11.034  70.654  1.00  0.00    -0.373 C  
HETATM    2  N   UNL     1     -11.763  10.170  69.734  1.00  0.00    -0.425 NA 
HETATM    3  H   UNL     1     -12.165   9.241  69.615  1.00  0.00     0.000 HD 
HETATM    4  C   UNL     1     -10.641  10.427  69.001  1.00  0.00    -0.221 C  
HETATM    5  N   UNL     1     -10.258  11.737  68.996  1.00  0.00    -0.408 NA 
HETATM    6  N   UNL     1      -9.964   9.545  68.351  1.00  0.00    -0.159 NA 
HETATM    7  C   UNL     1     -10.404   8.162  68.335  1.00  0.00    -0.199 C  
HETATM    8  H   UNL     1     -10.717  12.385  69.637  1.00  0.00     0.000 HD 
HETATM    9  H   UNL     1      -9.120   9.818  67.848  1.00  0.00     0.000 HD 
ENDROOT
BRANCH   5  10
HETATM   10  C   UNL     1      -9.221  12.242  68.113  1.00  0.00    -0.197 C  
BRANCH  10  11
HETATM   11  C   UNL     1      -9.721  13.141  66.995  1.00  0.00    -0.241 A  
HETATM   12  C   UNL     1      -9.875  14.530  67.125  1.00  0.00    -0.245 A  
HETATM   13  C   UNL     1     -10.360  15.300  66.065  1.00  0.00    -0.327 A  
HETATM   14  C   UNL     1     -10.696  14.696  64.856  1.00  0.00    -0.447 A  
HETATM   15  C   UNL     1     -10.541  13.321  64.703  1.00  0.00    -0.421 A  
HETATM   16  C   UNL     1     -10.055  12.551  65.763  1.00  0.00    -0.278 A  
ENDBRANCH  10  11
ENDBRANCH   5  10
TORSDOF 2
ENDMDL
MODEL      126
REMARK 921   NORMALIZED FREE ENERGY PREDICTED BY IDOCK:   -3.56 KCAL/MOL
REMARK 922        TOTAL FREE ENERGY PREDICTED BY IDOCK:   -4.15 KCAL/MOL
REMARK 923 INTER-LIGAND FREE ENERGY PREDICTED BY IDOCK:   -3.93 KCAL/MOL
REMARK 924 INTRA-LIGAND FREE ENERGY PREDICTED BY IDOCK:   -0.21 KCAL/MOL
REMARK 927      BINDING AFFINITY PREDICTED BY RF-SCORE:    0.00 PKD
ROOT
HETATM    1  C   UNL     1     -10.587   9.946  70.477  1.00  0.00    -0.293 C  
HETATM    2  N   UNL     1      -9.379  10.264  69.762  1.00  0.00    -0.401 NA 
HETATM    3  H   UNL     1      -8.610   9.605  69.881  1.00  0.00     0.000 HD 
HETATM    4  C   UNL     1      -9.125  11.327  68.945  1.00  0.00    -0.053 C  
HETATM    5  N   UNL     1     -10.227  12.062  68.616  1.00  0.00    -0.301 NA 
HETATM    6  N   UNL     1      -7.963  11.654  68.497  1.00  0.00    -0.142 NA 
HETATM    7  C   UNL     1      -6.805  10.842  68.826  1.00  0.00    -0.070 C  
HETATM    8  H   UNL     1     -11.105  11.876  69.103  1.00  0.00     0.000 HD 
HETATM    9  H   UNL     1      -7.855  12.482  67.911  1.00  0.00     0.000 HD 
ENDROOT
BRANCH   5  10
HETATM   10  C   UNL     1     -10.196  13.098  67.598  1.00  0.00    -0.224 C  
BRANCH  10  11
HETATM   11  C   UNL     1     -10.916  12.744  66.308  1.00  0.00    -0.307 A  
HETATM   12  C   UNL     1     -12.219  13.165  66.005  1.00  0.00    -0.478 A  
HETATM   13  C   UNL     1     -12.835  12.787  64.808  1.00  0.00    -0.374 A  
HETATM   14  C   UNL     1     -12.157  11.985  63.894  1.00  0.00    -0.557 A  
HETATM   15  C   UNL     1     -10.860  11.565  64.172  1.00  0.00    -0.435 A  
HETATM   16  C   UNL     1     -10.243  11.943  65.367  1.00  0.00    -0.300 A  
ENDBRANCH  10  11
ENDBRANCH   5  10
TORSDOF 2
ENDMDL
MODEL      127
REMARK 921   NORMALIZED FREE ENERGY PREDICTED BY IDOCK:   -3.55 KCAL/MOL
REMARK 922        TOTAL FREE ENERGY PREDICTED BY IDOCK:   -4.14 KCAL/MOL
REMARK 923 INTER-LIGAND FREE ENERGY PREDICTED BY IDOCK:   -3.94 KCAL/MOL
REMARK 924 INTRA-LIGAND FREE ENERGY PREDICTED BY IDOCK:   -0.20 KCAL/MOL
REMARK 927      BINDING AFFINITY PREDICTED BY RF-SCORE:    0.00 PKD
ROOT
HETATM    1  C   UNL     1     -12.049  12.548  70.548  1.00  0.00    -0.274 C  
HETATM    2  N   UNL     1     -12.410  11.301  71.169  1.00  0.00    -0.352 NA 
HETATM    3  H   UNL     1     -13.353  11.258  71.555  1.00  0.00     0.000 HD 
HETATM    4  C   UNL     1     -11.662  10.169  71.311  1.00  0.00    -0.341 C  
HETATM    5  N   UNL     1     -10.502  10.166  70.591  1.00  0.00    -0.391 NA 
HETATM    6  N   UNL     1     -11.976   9.163  72.049  1.00  0.00    -0.367 NA 
HETATM    7  C   UNL     1     -13.230   9.165  72.781  1.00  0.00    -0.146 C  
HETATM    8  H   UNL     1     -10.202  11.031  70.138  1.00  0.00     0.000 HD 
HETATM    9  H   UNL     1     -11.345   8.364  72.121  1.00  0.00     0.000 HD 
ENDROOT
BRANCH   5  10
HETATM   10  C   UNL     1      -9.679   8.978  70.446  1.00  0.00    -0.206 C  
BRANCH  10  11
HETATM   11  C   UNL     1     -10.095   8.050  69.317  1.00  0.00    -0.198 A  
HETATM   12  C   UNL     1     -10.552   6.739  69.516  1.00  0.00    -0.265 A  
HETATM   13  C   UNL     1     -10.900   5.928  68.432  1.00  0.00    -0.322 A  
HETATM   14  C   UNL     1     -10.799   6.415  67.131  1.00  0.00    -0.467 A  
HETATM   15  C   UNL     1     -10.356   7.717  66.913  1.00  0.00    -0.388 A  
HETATM   16  C   UNL     1     -10.010   8.528  67.996  1.00  0.00    -0.221 A  
ENDBRANCH  10  11
ENDBRANCH   5  10
TORSDOF 2
ENDMDL
MODEL      128
REMARK 921   NORMALIZED FREE ENERGY PREDICTED BY IDOCK:   -3.54 KCAL/MOL
REMARK 922        TOTAL FREE ENERGY PREDICTED BY IDOCK:   -4.13 KCAL/MOL
REMARK 923 INTER-LIGAND FREE ENERGY PREDICTED BY IDOCK:   -3.92 KCAL/MOL
REMARK 924 INTRA-LIGAND FREE ENERGY PREDICTED BY IDOCK:   -0.21 KCAL/MOL
REMARK 927      BINDING AFFINITY PREDICTED BY RF-SCORE:    0.00 PKD
ROOT
HETATM    1  C   UNL     1     -10.314  15.336  67.120  1.00  0.00    -0.265 C  
HETATM    2  N   UNL     1     -10.931  14.336  66.291  1.00  0.00    -0.312 NA 
HETATM    3  H   UNL     1     -10.896  14.512  65.287  1.00  0.00     0.000 HD 
HETATM    4  C   UNL     1     -11.558  13.183  66.665  1.00  0.00    -0.356 C  
HETATM    5  N   UNL     1     -11.392  12.853  67.979  1.00  0.00    -0.272 NA 
HETATM    6  N   UNL     1     -12.260  12.436  65.886  1.00  0.00    -0.632 NA 
HETATM    7  C   UNL     1     -12.398  12.781  64.483  1.00  0.00    -0.445 C  
HETATM    8  H   UNL     1     -10.964  13.534  68.607  1.00  0.00     0.000 HD 
HETATM    9  H   UNL     1     -12.719  11.602  66.254  1.00  0.00     0.000 HD 
ENDROOT
BRANCH   5  10
HETATM   10  C   UNL     1     -11.802  11.566  68.516  1.00  0.00    -0.297 C  
BRANCH  10  11
HETATM   11  C   UNL     1     -10.722  10.498  68.500  1.00  0.00    -0.259 A  
HETATM   12  C   UNL     1      -9.676  10.436  69.432  1.00  0.00    -0.222 A  
HETATM   13  C   UNL     1      -8.700   9.438  69.351  1.00  0.00    -0.157 A  
HETATM   14  C   UNL     1      -8.755   8.484  68.338  1.00  0.00    -0.143 A  
HETATM   15  C   UNL     1      -9.790   8.522  67.409  1.00  0.00    -0.244 A  
HETATM   16  C   UNL     1     -10.767   9.519  67.490  1.00  0.00    -0.311 A  
ENDBRANCH  10  11
ENDBRANCH   5  10
TORSDOF 2
ENDMDL
MODEL      129
REMARK 921   NORMALIZED FREE ENERGY PREDICTED BY IDOCK:   -3.53 KCAL/MOL
REMARK 922        TOTAL FREE ENERGY PREDICTED BY IDOCK:   -4.12 KCAL/MOL
REMARK 923 INTER-LIGAND FREE ENERGY PREDICTED BY IDOCK:   -3.93 KCAL/MOL
REMARK 924 INTRA-LIGAND FREE ENERGY PREDICTED BY IDOCK:   -0.18 KCAL/MOL
REMARK 927      BINDING AFFINITY PREDICTED BY RF-SCORE:    0.00 PKD
ROOT
HETATM    1  C   UNL     1      -9.800   4.406  69.991  1.00  0.00    -0.223 C  
HETATM    2  N   UNL     1      -8.932   5.114  70.894  1.00  0.00    -0.133 NA 
HETATM    3  H   UNL     1      -7.933   4.958  70.758  1.00  0.00     0.000 HD 
HETATM    4  C   UNL     1      -9.263   5.965  71.908  1.00  0.00    -0.147 C  
HETATM    5  N   UNL     1     -10.576   6.339  71.924  1.00  0.00    -0.213 NA 
HETATM    6  N   UNL     1      -8.446   6.407  72.800  1.00  0.00    -0.122 NA 
HETATM    7  C   UNL     1      -7.046   6.030  72.750  1.00  0.00    -0.081 C  
HETATM    8  H   UNL     1     -11.231   5.859  71.305  1.00  0.00     0.000 HD 
HETATM    9  H   UNL     1      -8.783   7.021  73.542  1.00  0.00     0.000 HD 
ENDROOT
BRANCH   5  10
HETATM   10  C   UNL     1     -11.074   7.393  72.790  1.00  0.00    -0.346 C  
BRANCH  10  11
HETATM   11  C   UNL     1     -11.524   8.651  72.066  1.00  0.00    -0.437 A  
HETATM   12  C   UNL     1     -12.743   9.299  72.317  1.00  0.00    -0.435 A  
HETATM   13  C   UNL     1     -13.109  10.442  71.601  1.00  0.00    -0.553 A  
HETATM   14  C   UNL     1     -12.262  10.958  70.623  1.00  0.00    -0.472 A  
HETATM   15  C   UNL     1     -11.045  10.335  70.364  1.00  0.00    -0.391 A  
HETATM   16  C   UNL     1     -10.677   9.192  71.081  1.00  0.00    -0.380 A  
ENDBRANCH  10  11
ENDBRANCH   5  10
TORSDOF 2
ENDMDL
MODEL      130
REMARK 921   NORMALIZED FREE ENERGY PREDICTED BY IDOCK:   -3.52 KCAL/MOL
REMARK 922        TOTAL FREE ENERGY PREDICTED BY IDOCK:   -4.11 KCAL/MOL
REMARK 923 INTER-LIGAND FREE ENERGY PREDICTED BY IDOCK:   -3.91 KCAL/MOL
REMARK 924 INTRA-LIGAND FREE ENERGY PREDICTED BY IDOCK:   -0.20 KCAL/MOL
REMARK 927      BINDING AFFINITY PREDICTED BY RF-SCORE:    0.00 PKD
ROOT
HETATM    1  C   UNL     1     -10.449   4.988  67.213  1.00  0.00    -0.084 C  
HETATM    2  N   UNL     1     -10.566   6.402  67.453  1.00  0.00    -0.251 NA 
HETATM    3  H   UNL     1     -10.349   7.003  66.658  1.00  0.00     0.000 HD 
HETATM    4  C   UNL     1     -10.927   7.048  68.600  1.00  0.00    -0.090 C  
HETATM    5  N   UNL     1     -11.432   6.232  69.570  1.00  0.00    -0.536 NA 
HETATM    6  N   UNL     1     -10.818   8.315  68.801  1.00  0.00    -0.428 NA 
HETATM    7  C   UNL     1     -10.313   9.175  67.747  1.00  0.00    -0.245 C  
HETATM    8  H   UNL     1     -11.366   5.221  69.446  1.00  0.00     0.000 HD 
HETATM    9  H   UNL     1     -11.088   8.714  69.700  1.00  0.00     0.000 HD 
ENDROOT
BRANCH   5  10
HETATM   10  C   UNL     1     -12.062   6.751  70.772  1.00  0.00    -0.347 C  
BRANCH  10  11
HETATM   11  C   UNL     1     -11.332   6.424  72.064  1.00  0.00    -0.338 A  
HETATM   12  C   UNL     1     -11.389   5.173  72.695  1.00  0.00    -0.254 A  
HETATM   13  C   UNL     1     -10.710   4.942  73.894  1.00  0.00    -0.363 A  
HETATM   14  C   UNL     1      -9.960   5.958  74.482  1.00  0.00    -0.301 A  
HETATM   15  C   UNL     1      -9.883   7.204  73.868  1.00  0.00    -0.346 A  
HETATM   16  C   UNL     1     -10.561   7.435  72.667  1.00  0.00    -0.322 A  
ENDBRANCH  10  11
ENDBRANCH   5  10
TORSDOF 2
ENDMDL
MODEL      131
REMARK 921   NORMALIZED FREE ENERGY PREDICTED BY IDOCK:   -3.51 KCAL/MOL
REMARK 922        TOTAL FREE ENERGY PREDICTED BY IDOCK:   -4.09 KCAL/MOL
REMARK 923 INTER-LIGAND FREE ENERGY PREDICTED BY IDOCK:   -4.06 KCAL/MOL
REMARK 924 INTRA-LIGAND FREE ENERGY PREDICTED BY IDOCK:   -0.04 KCAL/MOL
REMARK 927      BINDING AFFINITY PREDICTED BY RF-SCORE:    0.00 PKD
ROOT
HETATM    1  C   UNL     1     -12.771  11.843  63.350  1.00  0.00    -0.366 C  
HETATM    2  N   UNL     1     -12.504  13.174  63.828  1.00  0.00    -0.706 NA 
HETATM    3  H   UNL     1     -12.664  13.924  63.156  1.00  0.00     0.000 HD 
HETATM    4  C   UNL     1     -12.064  13.567  65.058  1.00  0.00    -0.397 C  
HETATM    5  N   UNL     1     -12.080  12.583  66.004  1.00  0.00    -0.612 NA 
HETATM    6  N   UNL     1     -11.658  14.753  65.354  1.00  0.00    -0.338 NA 
HETATM    7  C   UNL     1     -11.682  15.799  64.348  1.00  0.00    -0.201 C  
HETATM    8  H   UNL     1     -12.259  11.622  65.710  1.00  0.00     0.000 HD 
HETATM    9  H   UNL     1     -11.320  14.957  66.294  1.00  0.00     0.000 HD 
ENDROOT
BRANCH   5  10
HETATM   10  C   UNL     1     -11.850  12.854  67.413  1.00  0.00    -0.360 C  
BRANCH  10  11
HETATM   11  C   UNL     1     -10.390  13.007  67.801  1.00  0.00    -0.227 A  
HETATM   12  C   UNL     1      -9.838  14.197  68.298  1.00  0.00    -0.235 A  
HETATM   13  C   UNL     1      -8.480  14.280  68.618  1.00  0.00    -0.142 A  
HETATM   14  C   UNL     1      -7.651  13.173  68.449  1.00  0.00    -0.133 A  
HETATM   15  C   UNL     1      -8.181  11.980  67.967  1.00  0.00    -0.156 A  
HETATM   16  C   UNL     1      -9.539  11.897  67.648  1.00  0.00    -0.185 A  
ENDBRANCH  10  11
ENDBRANCH   5  10
TORSDOF 2
ENDMDL
MODEL      132
REMARK 921   NORMALIZED FREE ENERGY PREDICTED BY IDOCK:   -3.50 KCAL/MOL
REMARK 922        TOTAL FREE ENERGY PREDICTED BY IDOCK:   -4.08 KCAL/MOL
REMARK 923 INTER-LIGAND FREE ENERGY PREDICTED BY IDOCK:   -3.87 KCAL/MOL
REMARK 924 INTRA-LIGAND FREE ENERGY PREDICTED BY IDOCK:   -0.22 KCAL/MOL
REMARK 927      BINDING AFFINITY PREDICTED BY RF-SCORE:    0.00 PKD
ROOT
HETATM    1  C   UNL     1      -9.153   8.485  72.011  1.00  0.00    -0.247 C  
HETATM    2  N   UNL     1     -10.532   8.887  71.915  1.00  0.00    -0.347 NA 
HETATM    3  H   UNL     1     -11.056   8.874  72.790  1.00  0.00     0.000 HD 
HETATM    4  C   UNL     1     -11.232   9.282  70.813  1.00  0.00    -0.288 C  
HETATM    5  N   UNL     1     -10.463   9.514  69.710  1.00  0.00    -0.217 NA 
HETATM    6  N   UNL     1     -12.510   9.436  70.765  1.00  0.00    -0.488 NA 
HETATM    7  C   UNL     1     -13.311   9.220  71.955  1.00  0.00    -0.450 C  
HETATM    8  H   UNL     1      -9.480   9.239  69.729  1.00  0.00     0.000 HD 
HETATM    9  H   UNL     1     -12.959   9.709  69.890  1.00  0.00     0.000 HD 
ENDROOT
BRANCH   5  10
HETATM   10  C   UNL     1     -10.993  10.137  68.509  1.00  0.00    -0.232 C  
BRANCH  10  11
HETATM   11  C   UNL     1     -10.871  11.651  68.472  1.00  0.00    -0.257 A  
HETATM   12  C   UNL     1     -11.934  12.524  68.746  1.00  0.00    -0.283 A  
HETATM   13  C   UNL     1     -11.762  13.909  68.674  1.00  0.00    -0.396 A  
HETATM   14  C   UNL     1     -10.524  14.445  68.330  1.00  0.00    -0.245 A  
HETATM   15  C   UNL     1      -9.453  13.596  68.063  1.00  0.00    -0.209 A  
HETATM   16  C   UNL     1      -9.624  12.211  68.136  1.00  0.00    -0.208 A  
ENDBRANCH  10  11
ENDBRANCH   5  10
TORSDOF 2
ENDMDL
MODEL      133
REMARK 921   NORMALIZED FREE ENERGY PREDICTED BY IDOCK:   -3.50 KCAL/MOL
REMARK 922        TOTAL FREE ENERGY PREDICTED BY IDOCK:   -4.08 KCAL/MOL
REMARK 923 INTER-LIGAND FREE ENERGY PREDICTED BY IDOCK:   -3.89 KCAL/MOL
REMARK 924 INTRA-LIGAND FREE ENERGY PREDICTED BY IDOCK:   -0.19 KCAL/MOL
REMARK 927      BINDING AFFINITY PREDICTED BY RF-SCORE:    0.00 PKD
ROOT
HETATM    1  C   UNL     1     -10.062   8.685  66.608  1.00  0.00    -0.294 C  
HETATM    2  N   UNL     1     -10.100   9.597  65.496  1.00  0.00    -0.332 NA 
HETATM    3  H   UNL     1     -10.447   9.209  64.619  1.00  0.00     0.000 HD 
HETATM    4  C   UNL     1      -9.734  10.911  65.455  1.00  0.00    -0.238 C  
HETATM    5  N   UNL     1      -9.496  11.468  66.678  1.00  0.00    -0.188 NA 
HETATM    6  N   UNL     1      -9.607  11.611  64.381  1.00  0.00    -0.408 NA 
HETATM    7  C   UNL     1      -9.899  11.015  63.091  1.00  0.00    -0.363 C  
HETATM    8  H   UNL     1      -9.454  10.859  67.496  1.00  0.00     0.000 HD 
HETATM    9  H   UNL     1      -9.303  12.583  64.438  1.00  0.00     0.000 HD 
ENDROOT
BRANCH   5  10
HETATM   10  C   UNL     1      -9.302  12.897  66.858  1.00  0.00    -0.240 C  
BRANCH  10  11
HETATM   11  C   UNL     1     -10.313  13.566  67.773  1.00  0.00    -0.241 A  
HETATM   12  C   UNL     1     -10.573  14.944  67.768  1.00  0.00    -0.262 A  
HETATM   13  C   UNL     1     -11.502  15.502  68.651  1.00  0.00    -0.367 A  
HETATM   14  C   UNL     1     -12.188  14.691  69.552  1.00  0.00    -0.297 A  
HETATM   15  C   UNL     1     -11.951  13.319  69.566  1.00  0.00    -0.366 A  
HETATM   16  C   UNL     1     -11.024  12.761  68.683  1.00  0.00    -0.295 A  
ENDBRANCH  10  11
ENDBRANCH   5  10
TORSDOF 2
ENDMDL
MODEL      134
REMARK 921   NORMALIZED FREE ENERGY PREDICTED BY IDOCK:   -3.49 KCAL/MOL
REMARK 922        TOTAL FREE ENERGY PREDICTED BY IDOCK:   -4.07 KCAL/MOL
REMARK 923 INTER-LIGAND FREE ENERGY PREDICTED BY IDOCK:   -3.87 KCAL/MOL
REMARK 924 INTRA-LIGAND FREE ENERGY PREDICTED BY IDOCK:   -0.20 KCAL/MOL
REMARK 927      BINDING AFFINITY PREDICTED BY RF-SCORE:    0.00 PKD
ROOT
HETATM    1  C   UNL     1     -11.915  16.110  72.502  1.00  0.00    -0.561 C  
HETATM    2  N   UNL     1     -11.653  16.103  71.088  1.00  0.00    -0.518 NA 
HETATM    3  H   UNL     1     -11.092  16.880  70.739  1.00  0.00     0.000 HD 
HETATM    4  C   UNL     1     -12.051  15.196  70.149  1.00  0.00    -0.343 C  
HETATM    5  N   UNL     1     -12.594  14.054  70.662  1.00  0.00    -0.344 NA 
HETATM    6  N   UNL     1     -11.949  15.357  68.875  1.00  0.00    -0.544 NA 
HETATM    7  C   UNL     1     -11.337  16.561  68.344  1.00  0.00    -0.209 C  
HETATM    8  H   UNL     1     -12.804  14.015  71.661  1.00  0.00     0.000 HD 
HETATM    9  H   UNL     1     -12.297  14.639  68.240  1.00  0.00     0.000 HD 
ENDROOT
BRANCH   5  10
HETATM   10  C   UNL     1     -12.883  12.892  69.840  1.00  0.00     0.598 C  
BRANCH  10  11
HETATM   11  C   UNL     1     -11.797  11.830  69.835  1.00  0.00    -0.423 A  
HETATM   12  C   UNL     1     -11.790  10.720  70.693  1.00  0.00    -0.460 A  
HETATM   13  C   UNL     1     -10.749   9.789  70.653  1.00  0.00    -0.394 A  
HETATM   14  C   UNL     1      -9.698   9.950  69.754  1.00  0.00    -0.266 A  
HETATM   15  C   UNL     1      -9.690  11.039  68.887  1.00  0.00    -0.184 A  
HETATM   16  C   UNL     1     -10.732  11.970  68.926  1.00  0.00    -0.222 A  
ENDBRANCH  10  11
ENDBRANCH   5  10
TORSDOF 2
ENDMDL
MODEL      135
REMARK 921   NORMALIZED FREE ENERGY PREDICTED BY IDOCK:   -3.47 KCAL/MOL
REMARK 922        TOTAL FREE ENERGY PREDICTED BY IDOCK:   -4.05 KCAL/MOL
REMARK 923 INTER-LIGAND FREE ENERGY PREDICTED BY IDOCK:   -3.88 KCAL/MOL
REMARK 924 INTRA-LIGAND FREE ENERGY PREDICTED BY IDOCK:   -0.17 KCAL/MOL
REMARK 927      BINDING AFFINITY PREDICTED BY RF-SCORE:    0.00 PKD
ROOT
HETATM    1  C   UNL     1      -8.816  10.030  69.398  1.00  0.00    -0.190 C  
HETATM    2  N   UNL     1      -7.866  10.468  68.410  1.00  0.00    -0.105 NA 
HETATM    3  H   UNL     1      -6.901  10.548  68.732  1.00  0.00     0.000 HD 
HETATM    4  C   UNL     1      -8.080  10.792  67.102  1.00  0.00    -0.124 C  
HETATM    5  N   UNL     1      -9.319  10.459  66.635  1.00  0.00    -0.156 NA 
HETATM    6  N   UNL     1      -7.222  11.365  66.332  1.00  0.00    -0.338 NA 
HETATM    7  C   UNL     1      -5.897  11.681  66.832  1.00  0.00    -0.143 C  
HETATM    8  H   UNL     1     -10.028  10.148  67.300  1.00  0.00     0.000 HD 
HETATM    9  H   UNL     1      -7.474  11.597  65.371  1.00  0.00     0.000 HD 
ENDROOT
BRANCH   5  10
HETATM   10  C   UNL     1      -9.664  10.529  65.225  1.00  0.00    -0.270 C  
BRANCH  10  11
HETATM   11  C   UNL     1     -10.589  11.675  64.854  1.00  0.00    -0.349 A  
HETATM   12  C   UNL     1     -11.273  11.758  63.632  1.00  0.00    -0.519 A  
HETATM   13  C   UNL     1     -12.095  12.851  63.342  1.00  0.00    -0.610 A  
HETATM   14  C   UNL     1     -12.248  13.879  64.269  1.00  0.00    -0.447 A  
HETATM   15  C   UNL     1     -11.585  13.812  65.491  1.00  0.00    -0.335 A  
HETATM   16  C   UNL     1     -10.764  12.718  65.783  1.00  0.00    -0.296 A  
ENDBRANCH  10  11
ENDBRANCH   5  10
TORSDOF 2
ENDMDL
MODEL      136
REMARK 921   NORMALIZED FREE ENERGY PREDICTED BY IDOCK:   -3.47 KCAL/MOL
REMARK 922        TOTAL FREE ENERGY PREDICTED BY IDOCK:   -4.05 KCAL/MOL
REMARK 923 INTER-LIGAND FREE ENERGY PREDICTED BY IDOCK:   -3.90 KCAL/MOL
REMARK 924 INTRA-LIGAND FREE ENERGY PREDICTED BY IDOCK:   -0.15 KCAL/MOL
REMARK 927      BINDING AFFINITY PREDICTED BY RF-SCORE:    0.00 PKD
ROOT
HETATM    1  C   UNL     1     -10.838  10.640  68.343  1.00  0.00    -0.237 C  
HETATM    2  N   UNL     1     -11.760  10.710  69.445  1.00  0.00    -0.383 NA 
HETATM    3  H   UNL     1     -12.236  11.604  69.565  1.00  0.00     0.000 HD 
HETATM    4  C   UNL     1     -12.084   9.743  70.351  1.00  0.00    -0.106 C  
HETATM    5  N   UNL     1     -11.620   8.498  70.038  1.00  0.00    -0.451 NA 
HETATM    6  N   UNL     1     -12.765   9.936  71.427  1.00  0.00    -0.370 NA 
HETATM    7  C   UNL     1     -13.283  11.257  71.729  1.00  0.00    -0.375 C  
HETATM    8  H   UNL     1     -10.958   8.400  69.267  1.00  0.00     0.000 HD 
HETATM    9  H   UNL     1     -12.941   9.161  72.066  1.00  0.00     0.000 HD 
ENDROOT
BRANCH   5  10
HETATM   10  C   UNL     1     -12.034   7.308  70.761  1.00  0.00    -0.272 C  
BRANCH  10  11
HETATM   11  C   UNL     1     -11.068   6.140  70.668  1.00  0.00    -0.384 A  
HETATM   12  C   UNL     1     -10.689   5.355  71.767  1.00  0.00    -0.271 A  
HETATM   13  C   UNL     1      -9.779   4.305  71.620  1.00  0.00    -0.243 A  
HETATM   14  C   UNL     1      -9.233   4.020  70.370  1.00  0.00    -0.204 A  
HETATM   15  C   UNL     1      -9.603   4.781  69.265  1.00  0.00    -0.243 A  
HETATM   16  C   UNL     1     -10.515   5.830  69.412  1.00  0.00    -0.360 A  
ENDBRANCH  10  11
ENDBRANCH   5  10
TORSDOF 2
ENDMDL
MODEL      137
REMARK 921   NORMALIZED FREE ENERGY PREDICTED BY IDOCK:   -3.46 KCAL/MOL
REMARK 922        TOTAL FREE ENERGY PREDICTED BY IDOCK:   -4.04 KCAL/MOL
REMARK 923 INTER-LIGAND FREE ENERGY PREDICTED BY IDOCK:   -3.83 KCAL/MOL
REMARK 924 INTRA-LIGAND FREE ENERGY PREDICTED BY IDOCK:   -0.22 KCAL/MOL
REMARK 927      BINDING AFFINITY PREDICTED BY RF-SCORE:    0.00 PKD
ROOT
HETATM    1  C   UNL     1      -5.625  10.571  64.301  1.00  0.00    -0.115 C  
HETATM    2  N   UNL     1      -6.165  10.944  65.581  1.00  0.00    -0.334 NA 
HETATM    3  H   UNL     1      -5.556  11.515  66.168  1.00  0.00     0.000 HD 
HETATM    4  C   UNL     1      -7.382  10.639  66.117  1.00  0.00    -0.138 C  
HETATM    5  N   UNL     1      -8.262  10.080  65.236  1.00  0.00    -0.141 NA 
HETATM    6  N   UNL     1      -7.722  10.838  67.343  1.00  0.00    -0.105 NA 
HETATM    7  C   UNL     1      -6.789  11.465  68.260  1.00  0.00    -0.069 C  
HETATM    8  H   UNL     1      -7.922   9.794  64.317  1.00  0.00     0.000 HD 
HETATM    9  H   UNL     1      -8.646  10.555  67.670  1.00  0.00     0.000 HD 
ENDROOT
BRANCH   5  10
HETATM   10  C   UNL     1      -9.665   9.880  65.558  1.00  0.00    -0.302 C  
BRANCH  10  11
HETATM   11  C   UNL     1     -10.574  11.040  65.190  1.00  0.00    -0.295 A  
HETATM   12  C   UNL     1     -11.212  11.857  66.135  1.00  0.00    -0.387 A  
HETATM   13  C   UNL     1     -12.054  12.897  65.732  1.00  0.00    -0.513 A  
HETATM   14  C   UNL     1     -12.270  13.140  64.377  1.00  0.00    -0.462 A  
HETATM   15  C   UNL     1     -11.639  12.346  63.424  1.00  0.00    -0.541 A  
HETATM   16  C   UNL     1     -10.796  11.307  63.826  1.00  0.00    -0.424 A  
ENDBRANCH  10  11
ENDBRANCH   5  10
TORSDOF 2
ENDMDL
MODEL      138
REMARK 921   NORMALIZED FREE ENERGY PREDICTED BY IDOCK:   -3.45 KCAL/MOL
REMARK 922        TOTAL FREE ENERGY PREDICTED BY IDOCK:   -4.03 KCAL/MOL
REMARK 923 INTER-LIGAND FREE ENERGY PREDICTED BY IDOCK:   -3.82 KCAL/MOL
REMARK 924 INTRA-LIGAND FREE ENERGY PREDICTED BY IDOCK:   -0.21 KCAL/MOL
REMARK 927      BINDING AFFINITY PREDICTED BY RF-SCORE:    0.00 PKD
ROOT
HETATM    1  C   UNL     1     -12.593   7.112  71.401  1.00  0.00    -0.394 C  
HETATM    2  N   UNL     1     -12.614   8.542  71.562  1.00  0.00    -0.314 NA 
HETATM    3  H   UNL     1     -13.291   8.900  72.236  1.00  0.00     0.000 HD 
HETATM    4  C   UNL     1     -11.851   9.484  70.936  1.00  0.00    -0.309 C  
HETATM    5  N   UNL     1     -10.805   8.977  70.221  1.00  0.00    -0.232 NA 
HETATM    6  N   UNL     1     -12.059  10.754  70.981  1.00  0.00    -0.352 NA 
HETATM    7  C   UNL     1     -13.154  11.281  71.775  1.00  0.00    -0.422 C  
HETATM    8  H   UNL     1     -10.752   7.968  70.075  1.00  0.00     0.000 HD 
HETATM    9  H   UNL     1     -11.454  11.389  70.460  1.00  0.00     0.000 HD 
ENDROOT
BRANCH   5  10
HETATM   10  C   UNL     1      -9.764   9.822  69.661  1.00  0.00    -0.222 C  
BRANCH  10  11
HETATM   11  C   UNL     1      -9.915  10.118  68.178  1.00  0.00    -0.170 A  
HETATM   12  C   UNL     1      -9.702   9.167  67.169  1.00  0.00    -0.236 A  
HETATM   13  C   UNL     1      -9.837   9.509  65.821  1.00  0.00    -0.363 A  
HETATM   14  C   UNL     1     -10.189  10.807  65.459  1.00  0.00    -0.330 A  
HETATM   15  C   UNL     1     -10.414  11.763  66.445  1.00  0.00    -0.271 A  
HETATM   16  C   UNL     1     -10.280  11.421  67.793  1.00  0.00    -0.202 A  
ENDBRANCH  10  11
ENDBRANCH   5  10
TORSDOF 2
ENDMDL
MODEL      139
REMARK 921   NORMALIZED FREE ENERGY PREDICTED BY IDOCK:   -3.45 KCAL/MOL
REMARK 922        TOTAL FREE ENERGY PREDICTED BY IDOCK:   -4.02 KCAL/MOL
REMARK 923 INTER-LIGAND FREE ENERGY PREDICTED BY IDOCK:   -3.88 KCAL/MOL
REMARK 924 INTRA-LIGAND FREE ENERGY PREDICTED BY IDOCK:   -0.15 KCAL/MOL
REMARK 927      BINDING AFFINITY PREDICTED BY RF-SCORE:    0.00 PKD
ROOT
HETATM    1  C   UNL     1      -9.072  10.564  69.268  1.00  0.00    -0.145 C  
HETATM    2  N   UNL     1     -10.397  10.398  69.803  1.00  0.00    -0.348 NA 
HETATM    3  H   UNL     1     -10.921  11.260  69.957  1.00  0.00     0.000 HD 
HETATM    4  C   UNL     1     -11.047   9.245  70.134  1.00  0.00    -0.230 C  
HETATM    5  N   UNL     1     -10.427   8.107  69.707  1.00  0.00    -0.224 NA 
HETATM    6  N   UNL     1     -12.152   9.181  70.791  1.00  0.00    -0.458 NA 
HETATM    7  C   UNL     1     -12.819  10.402  71.206  1.00  0.00    -0.433 C  
HETATM    8  H   UNL     1      -9.483   8.174  69.326  1.00  0.00     0.000 HD 
HETATM    9  H   UNL     1     -12.559   8.275  71.020  1.00  0.00     0.000 HD 
ENDROOT
BRANCH   5  10
HETATM   10  C   UNL     1     -11.062   6.802  69.776  1.00  0.00    -0.316 C  
BRANCH  10  11
HETATM   11  C   UNL     1     -10.600   5.813  68.720  1.00  0.00    -0.321 A  
HETATM   12  C   UNL     1      -9.878   4.646  69.011  1.00  0.00    -0.224 A  
HETATM   13  C   UNL     1      -9.462   3.786  67.991  1.00  0.00    -0.221 A  
HETATM   14  C   UNL     1      -9.764   4.077  66.662  1.00  0.00    -0.215 A  
HETATM   15  C   UNL     1     -10.487   5.225  66.353  1.00  0.00    -0.347 A  
HETATM   16  C   UNL     1     -10.904   6.084  67.374  1.00  0.00    -0.394 A  
ENDBRANCH  10  11
ENDBRANCH   5  10
TORSDOF 2
ENDMDL
MODEL      140
REMARK 921   NORMALIZED FREE ENERGY PREDICTED BY IDOCK:   -3.44 KCAL/MOL
REMARK 922        TOTAL FREE ENERGY PREDICTED BY IDOCK:   -4.01 KCAL/MOL
REMARK 923 INTER-LIGAND FREE ENERGY PREDICTED BY IDOCK:   -3.82 KCAL/MOL
REMARK 924 INTRA-LIGAND FREE ENERGY PREDICTED BY IDOCK:   -0.19 KCAL/MOL
REMARK 927      BINDING AFFINITY PREDICTED BY RF-SCORE:    0.00 PKD
ROOT
HETATM    1  C   UNL     1      -6.071  17.579  66.971  1.00  0.00    -0.152 C  
HETATM    2  N   UNL     1      -7.314  18.205  67.336  1.00  0.00    -0.209 NA 
HETATM    3  H   UNL     1      -7.407  19.186  67.073  1.00  0.00     0.000 HD 
HETATM    4  C   UNL     1      -8.385  17.664  67.987  1.00  0.00    -0.246 C  
HETATM    5  N   UNL     1      -8.337  16.307  68.120  1.00  0.00    -0.169 NA 
HETATM    6  N   UNL     1      -9.380  18.333  68.455  1.00  0.00    -0.313 NA 
HETATM    7  C   UNL     1      -9.436  19.772  68.274  1.00  0.00    -0.346 C  
HETATM    8  H   UNL     1      -7.473  15.820  67.879  1.00  0.00     0.000 HD 
HETATM    9  H   UNL     1     -10.130  17.852  68.954  1.00  0.00     0.000 HD 
ENDROOT
BRANCH   5  10
HETATM   10  C   UNL     1      -9.470  15.531  68.593  1.00  0.00    -0.204 C  
BRANCH  10  11
HETATM   11  C   UNL     1     -10.334  14.935  67.495  1.00  0.00    -0.239 A  
HETATM   12  C   UNL     1     -11.664  14.531  67.685  1.00  0.00    -0.410 A  
HETATM   13  C   UNL     1     -12.401  13.969  66.638  1.00  0.00    -0.408 A  
HETATM   14  C   UNL     1     -11.820  13.804  65.383  1.00  0.00    -0.371 A  
HETATM   15  C   UNL     1     -10.505  14.206  65.171  1.00  0.00    -0.422 A  
HETATM   16  C   UNL     1      -9.769  14.769  66.217  1.00  0.00    -0.326 A  
ENDBRANCH  10  11
ENDBRANCH   5  10
TORSDOF 2
ENDMDL
MODEL      141
REMARK 921   NORMALIZED FREE ENERGY PREDICTED BY IDOCK:   -3.43 KCAL/MOL
REMARK 922        TOTAL FREE ENERGY PREDICTED BY IDOCK:   -4.00 KCAL/MOL
REMARK 923 INTER-LIGAND FREE ENERGY PREDICTED BY IDOCK:   -3.83 KCAL/MOL
REMARK 924 INTRA-LIGAND FREE ENERGY PREDICTED BY IDOCK:   -0.17 KCAL/MOL
REMARK 927      BINDING AFFINITY PREDICTED BY RF-SCORE:    0.00 PKD
ROOT
HETATM    1  C   UNL     1      -7.298   5.128  66.442  1.00  0.00    -0.086 C  
HETATM    2  N   UNL     1      -8.581   4.690  65.959  1.00  0.00    -0.114 NA 
HETATM    3  H   UNL     1      -8.559   3.958  65.249  1.00  0.00     0.000 HD 
HETATM    4  C   UNL     1      -9.824   5.121  66.322  1.00  0.00    -0.192 C  
HETATM    5  N   UNL     1      -9.842   5.923  67.427  1.00  0.00    -0.122 NA 
HETATM    6  N   UNL     1     -10.917   4.828  65.709  1.00  0.00    -0.852 NA 
HETATM    7  C   UNL     1     -10.887   3.945  64.557  1.00  0.00    -0.098 C  
HETATM    8  H   UNL     1      -8.956   6.263  67.801  1.00  0.00     0.000 HD 
HETATM    9  H   UNL     1     -11.804   5.215  66.031  1.00  0.00     0.000 HD 
ENDROOT
BRANCH   5  10
HETATM   10  C   UNL     1     -11.077   6.309  68.088  1.00  0.00    -0.266 C  
BRANCH  10  11
HETATM   11  C   UNL     1     -11.087   6.090  69.591  1.00  0.00    -0.474 A  
HETATM   12  C   UNL     1     -10.187   5.249  70.262  1.00  0.00    -0.345 A  
HETATM   13  C   UNL     1     -10.263   5.074  71.646  1.00  0.00    -0.275 A  
HETATM   14  C   UNL     1     -11.239   5.739  72.385  1.00  0.00    -0.343 A  
HETATM   15  C   UNL     1     -12.136   6.586  71.740  1.00  0.00    -0.393 A  
HETATM   16  C   UNL     1     -12.059   6.762  70.356  1.00  0.00    -0.270 A  
ENDBRANCH  10  11
ENDBRANCH   5  10
TORSDOF 2
ENDMDL
MODEL      142
REMARK 921   NORMALIZED FREE ENERGY PREDICTED BY IDOCK:   -3.43 KCAL/MOL
REMARK 922        TOTAL FREE ENERGY PREDICTED BY IDOCK:   -4.00 KCAL/MOL
REMARK 923 INTER-LIGAND FREE ENERGY PREDICTED BY IDOCK:   -3.86 KCAL/MOL
REMARK 924 INTRA-LIGAND FREE ENERGY PREDICTED BY IDOCK:   -0.14 KCAL/MOL
REMARK 927      BINDING AFFINITY PREDICTED BY RF-SCORE:    0.00 PKD
ROOT
HETATM    1  C   UNL     1      -7.831   9.695  68.606  1.00  0.00    -0.081 C  
HETATM    2  N   UNL     1      -8.936   8.925  69.113  1.00  0.00    -0.139 NA 
HETATM    3  H   UNL     1      -8.692   8.027  69.530  1.00  0.00     0.000 HD 
HETATM    4  C   UNL     1     -10.265   9.234  69.111  1.00  0.00    -0.206 C  
HETATM    5  N   UNL     1     -10.543  10.524  68.766  1.00  0.00    -0.193 NA 
HETATM    6  N   UNL     1     -11.215   8.414  69.401  1.00  0.00    -0.429 NA 
HETATM    7  C   UNL     1     -10.902   7.055  69.802  1.00  0.00    -0.248 C  
HETATM    8  H   UNL     1      -9.792  11.107  68.395  1.00  0.00     0.000 HD 
HETATM    9  H   UNL     1     -12.187   8.720  69.349  1.00  0.00     0.000 HD 
ENDROOT
BRANCH   5  10
HETATM   10  C   UNL     1     -11.870  11.099  68.907  1.00  0.00    -0.337 C  
BRANCH  10  11
HETATM   11  C   UNL     1     -11.891  12.599  69.145  1.00  0.00    -0.349 A  
HETATM   12  C   UNL     1     -12.075  13.185  70.406  1.00  0.00    -0.392 A  
HETATM   13  C   UNL     1     -12.105  14.574  70.556  1.00  0.00    -0.395 A  
HETATM   14  C   UNL     1     -11.950  15.402  69.446  1.00  0.00    -0.351 A  
HETATM   15  C   UNL     1     -11.758  14.841  68.187  1.00  0.00    -0.353 A  
HETATM   16  C   UNL     1     -11.726  13.452  68.037  1.00  0.00    -0.391 A  
ENDBRANCH  10  11
ENDBRANCH   5  10
TORSDOF 2
ENDMDL
MODEL      143
REMARK 921   NORMALIZED FREE ENERGY PREDICTED BY IDOCK:   -3.39 KCAL/MOL
REMARK 922        TOTAL FREE ENERGY PREDICTED BY IDOCK:   -3.96 KCAL/MOL
REMARK 923 INTER-LIGAND FREE ENERGY PREDICTED BY IDOCK:   -3.75 KCAL/MOL
REMARK 924 INTRA-LIGAND FREE ENERGY PREDICTED BY IDOCK:   -0.20 KCAL/MOL
REMARK 927      BINDING AFFINITY PREDICTED BY RF-SCORE:    0.00 PKD
ROOT
HETATM    1  C   UNL     1      -8.248   7.248  62.837  1.00  0.00     0.016 C  
HETATM    2  N   UNL     1      -7.599   8.513  62.612  1.00  0.00    -0.108 NA 
HETATM    3  H   UNL     1      -6.651   8.461  62.240  1.00  0.00     0.000 HD 
HETATM    4  C   UNL     1      -8.080   9.771  62.830  1.00  0.00    -0.139 C  
HETATM    5  N   UNL     1      -9.416   9.824  63.103  1.00  0.00    -0.534 NA 
HETATM    6  N   UNL     1      -7.375  10.848  62.794  1.00  0.00    -0.364 NA 
HETATM    7  C   UNL     1      -5.963  10.780  62.467  1.00  0.00    -0.113 C  
HETATM    8  H   UNL     1      -9.917   8.952  63.276  1.00  0.00     0.000 HD 
HETATM    9  H   UNL     1      -7.809  11.749  62.996  1.00  0.00     0.000 HD 
ENDROOT
BRANCH   5  10
HETATM   10  C   UNL     1     -10.150  11.077  63.156  1.00  0.00    -0.302 C  
BRANCH  10  11
HETATM   11  C   UNL     1     -10.691  11.439  64.529  1.00  0.00    -0.391 A  
HETATM   12  C   UNL     1     -10.384  10.728  65.698  1.00  0.00    -0.297 A  
HETATM   13  C   UNL     1     -10.931  11.100  66.929  1.00  0.00    -0.333 A  
HETATM   14  C   UNL     1     -11.793  12.191  67.012  1.00  0.00    -0.288 A  
HETATM   15  C   UNL     1     -12.103  12.916  65.865  1.00  0.00    -0.503 A  
HETATM   16  C   UNL     1     -11.555  12.545  64.634  1.00  0.00    -0.396 A  
ENDBRANCH  10  11
ENDBRANCH   5  10
TORSDOF 2
ENDMDL
MODEL      144
REMARK 921   NORMALIZED FREE ENERGY PREDICTED BY IDOCK:   -3.38 KCAL/MOL
REMARK 922        TOTAL FREE ENERGY PREDICTED BY IDOCK:   -3.95 KCAL/MOL
REMARK 923 INTER-LIGAND FREE ENERGY PREDICTED BY IDOCK:   -3.76 KCAL/MOL
REMARK 924 INTRA-LIGAND FREE ENERGY PREDICTED BY IDOCK:   -0.19 KCAL/MOL
REMARK 927      BINDING AFFINITY PREDICTED BY RF-SCORE:    0.00 PKD
ROOT
HETATM    1  C   UNL     1      -8.513   5.047  72.317  1.00  0.00    -0.124 C  
HETATM    2  N   UNL     1      -9.071   5.282  71.011  1.00  0.00    -0.140 NA 
HETATM    3  H   UNL     1      -9.360   4.449  70.499  1.00  0.00     0.000 HD 
HETATM    4  C   UNL     1      -9.264   6.468  70.366  1.00  0.00    -0.155 C  
HETATM    5  N   UNL     1      -9.090   7.572  71.150  1.00  0.00    -0.146 NA 
HETATM    6  N   UNL     1      -9.583   6.592  69.124  1.00  0.00    -0.134 NA 
HETATM    7  C   UNL     1      -9.801   5.409  68.312  1.00  0.00    -0.150 C  
HETATM    8  H   UNL     1      -8.691   7.454  72.082  1.00  0.00     0.000 HD 
HETATM    9  H   UNL     1      -9.683   7.519  68.712  1.00  0.00     0.000 HD 
ENDROOT
BRANCH   5  10
HETATM   10  C   UNL     1      -9.452   8.907  70.707  1.00  0.00    -0.228 C  
BRANCH  10  11
HETATM   11  C   UNL     1     -10.833   9.368  71.140  1.00  0.00    -0.427 A  
HETATM   12  C   UNL     1     -11.615   8.696  72.091  1.00  0.00    -0.440 A  
HETATM   13  C   UNL     1     -12.888   9.160  72.432  1.00  0.00    -0.438 A  
HETATM   14  C   UNL     1     -13.400  10.307  71.830  1.00  0.00    -0.487 A  
HETATM   15  C   UNL     1     -12.637  10.995  70.891  1.00  0.00    -0.488 A  
HETATM   16  C   UNL     1     -11.363  10.531  70.551  1.00  0.00    -0.400 A  
ENDBRANCH  10  11
ENDBRANCH   5  10
TORSDOF 2
ENDMDL
MODEL      145
REMARK 921   NORMALIZED FREE ENERGY PREDICTED BY IDOCK:   -3.38 KCAL/MOL
REMARK 922        TOTAL FREE ENERGY PREDICTED BY IDOCK:   -3.95 KCAL/MOL
REMARK 923 INTER-LIGAND FREE ENERGY PREDICTED BY IDOCK:   -3.75 KCAL/MOL
REMARK 924 INTRA-LIGAND FREE ENERGY PREDICTED BY IDOCK:   -0.20 KCAL/MOL
REMARK 927      BINDING AFFINITY PREDICTED BY RF-SCORE:    0.00 PKD
ROOT
HETATM    1  C   UNL     1     -10.030  11.147  66.036  1.00  0.00    -0.236 C  
HETATM    2  N   UNL     1     -10.902  12.079  65.372  1.00  0.00    -0.282 NA 
HETATM    3  H   UNL     1     -11.277  11.771  64.475  1.00  0.00     0.000 HD 
HETATM    4  C   UNL     1     -11.295  13.321  65.779  1.00  0.00    -0.307 C  
HETATM    5  N   UNL     1     -10.975  13.617  67.073  1.00  0.00    -0.286 NA 
HETATM    6  N   UNL     1     -11.916  14.178  65.046  1.00  0.00    -0.388 NA 
HETATM    7  C   UNL     1     -12.281  13.836  63.684  1.00  0.00    -0.256 C  
HETATM    8  H   UNL     1     -10.354  12.987  67.582  1.00  0.00     0.000 HD 
HETATM    9  H   UNL     1     -12.150  15.097  65.422  1.00  0.00     0.000 HD 
ENDROOT
BRANCH   5  10
HETATM   10  C   UNL     1     -11.487  14.795  67.751  1.00  0.00    -0.345 C  
BRANCH  10  11
HETATM   11  C   UNL     1     -10.471  15.907  67.949  1.00  0.00    -0.288 A  
HETATM   12  C   UNL     1     -10.799  17.185  68.423  1.00  0.00    -0.309 A  
HETATM   13  C   UNL     1      -9.819  18.173  68.563  1.00  0.00    -0.393 A  
HETATM   14  C   UNL     1      -8.494  17.897  68.234  1.00  0.00    -0.280 A  
HETATM   15  C   UNL     1      -8.146  16.631  67.771  1.00  0.00    -0.185 A  
HETATM   16  C   UNL     1      -9.125  15.644  67.632  1.00  0.00    -0.193 A  
ENDBRANCH  10  11
ENDBRANCH   5  10
TORSDOF 2
ENDMDL
MODEL      146
REMARK 921   NORMALIZED FREE ENERGY PREDICTED BY IDOCK:   -3.37 KCAL/MOL
REMARK 922        TOTAL FREE ENERGY PREDICTED BY IDOCK:   -3.94 KCAL/MOL
REMARK 923 INTER-LIGAND FREE ENERGY PREDICTED BY IDOCK:   -3.79 KCAL/MOL
REMARK 924 INTRA-LIGAND FREE ENERGY PREDICTED BY IDOCK:   -0.15 KCAL/MOL
REMARK 927      BINDING AFFINITY PREDICTED BY RF-SCORE:    0.00 PKD
ROOT
HETATM    1  C   UNL     1      -8.374   9.994  69.739  1.00  0.00    -0.172 C  
HETATM    2  N   UNL     1      -9.756  10.319  69.969  1.00  0.00    -0.405 NA 
HETATM    3  H   UNL     1     -10.003  11.302  69.855  1.00  0.00     0.000 HD 
HETATM    4  C   UNL     1     -10.782   9.491  70.319  1.00  0.00    -0.265 C  
HETATM    5  N   UNL     1     -10.485   8.161  70.239  1.00  0.00    -0.214 NA 
HETATM    6  N   UNL     1     -11.949   9.879  70.701  1.00  0.00    -0.315 NA 
HETATM    7  C   UNL     1     -12.263  11.295  70.747  1.00  0.00    -0.380 C  
HETATM    8  H   UNL     1      -9.516   7.883  70.084  1.00  0.00     0.000 HD 
HETATM    9  H   UNL     1     -12.653   9.192  70.971  1.00  0.00     0.000 HD 
ENDROOT
BRANCH   5  10
HETATM   10  C   UNL     1     -11.499   7.128  70.367  1.00  0.00    -0.278 C  
BRANCH  10  11
HETATM   11  C   UNL     1     -11.118   5.973  71.278  1.00  0.00    -0.337 A  
HETATM   12  C   UNL     1     -11.766   5.693  72.490  1.00  0.00    -0.255 A  
HETATM   13  C   UNL     1     -11.354   4.626  73.294  1.00  0.00    -0.393 A  
HETATM   14  C   UNL     1     -10.288   3.821  72.899  1.00  0.00    -0.241 A  
HETATM   15  C   UNL     1      -9.638   4.077  71.695  1.00  0.00    -0.230 A  
HETATM   16  C   UNL     1     -10.051   5.142  70.890  1.00  0.00    -0.302 A  
ENDBRANCH  10  11
ENDBRANCH   5  10
TORSDOF 2
ENDMDL
MODEL      147
REMARK 921   NORMALIZED FREE ENERGY PREDICTED BY IDOCK:   -3.37 KCAL/MOL
REMARK 922        TOTAL FREE ENERGY PREDICTED BY IDOCK:   -3.94 KCAL/MOL
REMARK 923 INTER-LIGAND FREE ENERGY PREDICTED BY IDOCK:   -3.78 KCAL/MOL
REMARK 924 INTRA-LIGAND FREE ENERGY PREDICTED BY IDOCK:   -0.15 KCAL/MOL
REMARK 927      BINDING AFFINITY PREDICTED BY RF-SCORE:    0.00 PKD
ROOT
HETATM    1  C   UNL     1     -13.439  12.355  71.863  1.00  0.00    -0.269 C  
HETATM    2  N   UNL     1     -12.530  12.872  70.875  1.00  0.00    -0.351 NA 
HETATM    3  H   UNL     1     -12.569  13.880  70.726  1.00  0.00     0.000 HD 
HETATM    4  C   UNL     1     -11.624  12.197  70.110  1.00  0.00    -0.118 C  
HETATM    5  N   UNL     1     -11.425  10.900  70.486  1.00  0.00    -0.433 NA 
HETATM    6  N   UNL     1     -10.986  12.693  69.108  1.00  0.00    -0.414 NA 
HETATM    7  C   UNL     1     -11.180  14.084  68.743  1.00  0.00    -0.271 C  
HETATM    8  H   UNL     1     -12.050  10.488  71.180  1.00  0.00     0.000 HD 
HETATM    9  H   UNL     1     -10.344  12.110  68.572  1.00  0.00     0.000 HD 
ENDROOT
BRANCH   5  10
HETATM   10  C   UNL     1     -10.357  10.085  69.934  1.00  0.00    -0.272 C  
BRANCH  10  11
HETATM   11  C   UNL     1     -10.656   8.597  69.879  1.00  0.00    -0.227 A  
HETATM   12  C   UNL     1     -10.273   7.765  68.816  1.00  0.00    -0.212 A  
HETATM   13  C   UNL     1     -10.597   6.406  68.815  1.00  0.00    -0.295 A  
HETATM   14  C   UNL     1     -11.307   5.854  69.879  1.00  0.00    -0.201 A  
HETATM   15  C   UNL     1     -11.689   6.660  70.947  1.00  0.00    -0.431 A  
HETATM   16  C   UNL     1     -11.363   8.019  70.949  1.00  0.00    -0.291 A  
ENDBRANCH  10  11
ENDBRANCH   5  10
TORSDOF 2
ENDMDL
MODEL      148
REMARK 921   NORMALIZED FREE ENERGY PREDICTED BY IDOCK:   -3.37 KCAL/MOL
REMARK 922        TOTAL FREE ENERGY PREDICTED BY IDOCK:   -3.93 KCAL/MOL
REMARK 923 INTER-LIGAND FREE ENERGY PREDICTED BY IDOCK:   -3.80 KCAL/MOL
REMARK 924 INTRA-LIGAND FREE ENERGY PREDICTED BY IDOCK:   -0.13 KCAL/MOL
REMARK 927      BINDING AFFINITY PREDICTED BY RF-SCORE:    0.00 PKD
ROOT
HETATM    1  C   UNL     1      -8.589   2.651  67.256  1.00  0.00    -0.106 C  
HETATM    2  N   UNL     1      -9.478   3.041  66.194  1.00  0.00    -0.371 NA 
HETATM    3  H   UNL     1      -9.646   2.334  65.478  1.00  0.00     0.000 HD 
HETATM    4  C   UNL     1     -10.127   4.227  66.015  1.00  0.00    -0.197 C  
HETATM    5  N   UNL     1     -10.077   5.065  67.091  1.00  0.00    -0.198 NA 
HETATM    6  N   UNL     1     -10.749   4.577  64.943  1.00  0.00    -0.564 NA 
HETATM    7  C   UNL     1     -10.825   3.661  63.819  1.00  0.00    -0.200 C  
HETATM    8  H   UNL     1      -9.454   4.833  67.866  1.00  0.00     0.000 HD 
HETATM    9  H   UNL     1     -11.186   5.496  64.882  1.00  0.00     0.000 HD 
ENDROOT
BRANCH   5  10
HETATM   10  C   UNL     1     -10.876   6.276  67.174  1.00  0.00    -0.381 C  
BRANCH  10  11
HETATM   11  C   UNL     1     -10.874   6.948  68.536  1.00  0.00    -0.234 A  
HETATM   12  C   UNL     1     -11.330   6.328  69.709  1.00  0.00    -0.506 A  
HETATM   13  C   UNL     1     -11.321   7.008  70.930  1.00  0.00    -0.334 A  
HETATM   14  C   UNL     1     -10.855   8.319  70.999  1.00  0.00    -0.269 A  
HETATM   15  C   UNL     1     -10.389   8.949  69.848  1.00  0.00    -0.215 A  
HETATM   16  C   UNL     1     -10.397   8.268  68.628  1.00  0.00    -0.225 A  
ENDBRANCH  10  11
ENDBRANCH   5  10
TORSDOF 2
ENDMDL
MODEL      149
REMARK 921   NORMALIZED FREE ENERGY PREDICTED BY IDOCK:   -3.36 KCAL/MOL
REMARK 922        TOTAL FREE ENERGY PREDICTED BY IDOCK:   -3.93 KCAL/MOL
REMARK 923 INTER-LIGAND FREE ENERGY PREDICTED BY IDOCK:   -3.71 KCAL/MOL
REMARK 924 INTRA-LIGAND FREE ENERGY PREDICTED BY IDOCK:   -0.22 KCAL/MOL
REMARK 927      BINDING AFFINITY PREDICTED BY RF-SCORE:    0.00 PKD
ROOT
HETATM    1  C   UNL     1     -13.625  13.187  72.345  1.00  0.00    -0.567 C  
HETATM    2  N   UNL     1     -13.694  11.759  72.176  1.00  0.00    -0.332 NA 
HETATM    3  H   UNL     1     -14.290  11.265  72.839  1.00  0.00     0.000 HD 
HETATM    4  C   UNL     1     -13.068  10.978  71.249  1.00  0.00    -0.284 C  
HETATM    5  N   UNL     1     -12.468  11.672  70.238  1.00  0.00    -0.223 NA 
HETATM    6  N   UNL     1     -13.018   9.691  71.278  1.00  0.00    -0.395 NA 
HETATM    7  C   UNL     1     -13.691   8.965  72.339  1.00  0.00    -0.454 C  
HETATM    8  H   UNL     1     -12.391  12.687  70.318  1.00  0.00     0.000 HD 
HETATM    9  H   UNL     1     -12.505   9.183  70.558  1.00  0.00     0.000 HD 
ENDROOT
BRANCH   5  10
HETATM   10  C   UNL     1     -11.936  11.020  69.054  1.00  0.00    -0.293 C  
BRANCH  10  11
HETATM   11  C   UNL     1     -10.420  11.014  68.959  1.00  0.00    -0.242 A  
HETATM   12  C   UNL     1      -9.607  10.041  69.559  1.00  0.00    -0.249 A  
HETATM   13  C   UNL     1      -8.215  10.103  69.451  1.00  0.00    -0.171 A  
HETATM   14  C   UNL     1      -7.612  11.138  68.740  1.00  0.00    -0.129 A  
HETATM   15  C   UNL     1      -8.402  12.108  68.129  1.00  0.00    -0.170 A  
HETATM   16  C   UNL     1      -9.794  12.045  68.235  1.00  0.00    -0.204 A  
ENDBRANCH  10  11
ENDBRANCH   5  10
TORSDOF 2
ENDMDL
MODEL      150
REMARK 921   NORMALIZED FREE ENERGY PREDICTED BY IDOCK:   -3.36 KCAL/MOL
REMARK 922        TOTAL FREE ENERGY PREDICTED BY IDOCK:   -3.93 KCAL/MOL
REMARK 923 INTER-LIGAND FREE ENERGY PREDICTED BY IDOCK:   -3.76 KCAL/MOL
REMARK 924 INTRA-LIGAND FREE ENERGY PREDICTED BY IDOCK:   -0.16 KCAL/MOL
REMARK 927      BINDING AFFINITY PREDICTED BY RF-SCORE:    0.00 PKD
ROOT
HETATM    1  C   UNL     1      -9.656  13.415  67.944  1.00  0.00    -0.216 C  
HETATM    2  N   UNL     1     -10.758  13.411  68.870  1.00  0.00    -0.352 NA 
HETATM    3  H   UNL     1     -11.300  14.273  68.914  1.00  0.00     0.000 HD 
HETATM    4  C   UNL     1     -11.175  12.409  69.697  1.00  0.00    -0.036 C  
HETATM    5  N   UNL     1     -10.590  11.200  69.458  1.00  0.00    -0.430 NA 
HETATM    6  N   UNL     1     -12.043  12.541  70.640  1.00  0.00    -0.498 NA 
HETATM    7  C   UNL     1     -12.683  13.825  70.859  1.00  0.00    -0.323 C  
HETATM    8  H   UNL     1      -9.800  11.155  68.813  1.00  0.00     0.000 HD 
HETATM    9  H   UNL     1     -12.280  11.745  71.232  1.00  0.00     0.000 HD 
ENDROOT
BRANCH   5  10
HETATM   10  C   UNL     1     -11.051   9.974  70.087  1.00  0.00    -0.310 C  
BRANCH  10  11
HETATM   11  C   UNL     1     -10.876   8.722  69.245  1.00  0.00    -0.094 A  
HETATM   12  C   UNL     1     -10.898   7.421  69.771  1.00  0.00    -0.246 A  
HETATM   13  C   UNL     1     -10.709   6.310  68.945  1.00  0.00    -0.357 A  
HETATM   14  C   UNL     1     -10.497   6.479  67.579  1.00  0.00    -0.297 A  
HETATM   15  C   UNL     1     -10.481   7.761  67.036  1.00  0.00    -0.419 A  
HETATM   16  C   UNL     1     -10.671   8.873  67.861  1.00  0.00    -0.185 A  
ENDBRANCH  10  11
ENDBRANCH   5  10
TORSDOF 2
ENDMDL
MODEL      151
REMARK 921   NORMALIZED FREE ENERGY PREDICTED BY IDOCK:   -3.36 KCAL/MOL
REMARK 922        TOTAL FREE ENERGY PREDICTED BY IDOCK:   -3.93 KCAL/MOL
REMARK 923 INTER-LIGAND FREE ENERGY PREDICTED BY IDOCK:   -3.77 KCAL/MOL
REMARK 924 INTRA-LIGAND FREE ENERGY PREDICTED BY IDOCK:   -0.16 KCAL/MOL
REMARK 927      BINDING AFFINITY PREDICTED BY RF-SCORE:    0.00 PKD
ROOT
HETATM    1  C   UNL     1      -8.345   9.996  69.764  1.00  0.00    -0.172 C  
HETATM    2  N   UNL     1      -9.725  10.256  70.079  1.00  0.00    -0.405 NA 
HETATM    3  H   UNL     1     -10.005  11.236  70.056  1.00  0.00     0.000 HD 
HETATM    4  C   UNL     1     -10.710   9.368  70.403  1.00  0.00    -0.263 C  
HETATM    5  N   UNL     1     -10.378   8.060  70.201  1.00  0.00    -0.211 NA 
HETATM    6  N   UNL     1     -11.869   9.686  70.864  1.00  0.00    -0.304 NA 
HETATM    7  C   UNL     1     -12.221  11.082  71.040  1.00  0.00    -0.351 C  
HETATM    8  H   UNL     1      -9.409   7.827  69.982  1.00  0.00     0.000 HD 
HETATM    9  H   UNL     1     -12.540   8.956  71.107  1.00  0.00     0.000 HD 
ENDROOT
BRANCH   5  10
HETATM   10  C   UNL     1     -11.354   6.987  70.287  1.00  0.00    -0.295 C  
BRANCH  10  11
HETATM   11  C   UNL     1     -10.896   5.772  71.075  1.00  0.00    -0.316 A  
HETATM   12  C   UNL     1     -10.004   4.812  70.575  1.00  0.00    -0.306 A  
HETATM   13  C   UNL     1      -9.638   3.703  71.343  1.00  0.00    -0.237 A  
HETATM   14  C   UNL     1     -10.155   3.537  72.626  1.00  0.00    -0.234 A  
HETATM   15  C   UNL     1     -11.035   4.484  73.144  1.00  0.00    -0.346 A  
HETATM   16  C   UNL     1     -11.400   5.593  72.376  1.00  0.00    -0.327 A  
ENDBRANCH  10  11
ENDBRANCH   5  10
TORSDOF 2
ENDMDL
MODEL      152
REMARK 921   NORMALIZED FREE ENERGY PREDICTED BY IDOCK:   -3.36 KCAL/MOL
REMARK 922        TOTAL FREE ENERGY PREDICTED BY IDOCK:   -3.93 KCAL/MOL
REMARK 923 INTER-LIGAND FREE ENERGY PREDICTED BY IDOCK:   -3.78 KCAL/MOL
REMARK 924 INTRA-LIGAND FREE ENERGY PREDICTED BY IDOCK:   -0.15 KCAL/MOL
REMARK 927      BINDING AFFINITY PREDICTED BY RF-SCORE:    0.00 PKD
ROOT
HETATM    1  C   UNL     1     -11.564   7.405  70.764  1.00  0.00    -0.290 C  
HETATM    2  N   UNL     1     -12.033   8.729  71.077  1.00  0.00    -0.366 NA 
HETATM    3  H   UNL     1     -12.499   8.830  71.979  1.00  0.00     0.000 HD 
HETATM    4  C   UNL     1     -11.939   9.868  70.332  1.00  0.00    -0.195 C  
HETATM    5  N   UNL     1     -11.117   9.765  69.247  1.00  0.00    -0.376 NA 
HETATM    6  N   UNL     1     -12.554  10.971  70.585  1.00  0.00    -0.344 NA 
HETATM    7  C   UNL     1     -13.396  11.076  71.762  1.00  0.00    -0.296 C  
HETATM    8  H   UNL     1     -10.765   8.845  68.983  1.00  0.00     0.000 HD 
HETATM    9  H   UNL     1     -12.449  11.770  69.960  1.00  0.00     0.000 HD 
ENDROOT
BRANCH   5  10
HETATM   10  C   UNL     1     -10.725  10.919  68.456  1.00  0.00    -0.204 C  
BRANCH  10  11
HETATM   11  C   UNL     1     -10.238  10.593  67.054  1.00  0.00    -0.267 A  
HETATM   12  C   UNL     1     -10.672  11.269  65.904  1.00  0.00    -0.291 A  
HETATM   13  C   UNL     1     -10.202  10.907  64.639  1.00  0.00    -0.411 A  
HETATM   14  C   UNL     1      -9.288   9.864  64.502  1.00  0.00    -0.336 A  
HETATM   15  C   UNL     1      -8.838   9.187  65.632  1.00  0.00    -0.222 A  
HETATM   16  C   UNL     1      -9.307   9.550  66.898  1.00  0.00    -0.185 A  
ENDBRANCH  10  11
ENDBRANCH   5  10
TORSDOF 2
ENDMDL
MODEL      153
REMARK 921   NORMALIZED FREE ENERGY PREDICTED BY IDOCK:   -3.34 KCAL/MOL
REMARK 922        TOTAL FREE ENERGY PREDICTED BY IDOCK:   -3.90 KCAL/MOL
REMARK 923 INTER-LIGAND FREE ENERGY PREDICTED BY IDOCK:   -3.71 KCAL/MOL
REMARK 924 INTRA-LIGAND FREE ENERGY PREDICTED BY IDOCK:   -0.20 KCAL/MOL
REMARK 927      BINDING AFFINITY PREDICTED BY RF-SCORE:    0.00 PKD
ROOT
HETATM    1  C   UNL     1     -14.410   8.714  72.437  1.00  0.00    -0.340 C  
HETATM    2  N   UNL     1     -13.180   9.253  71.921  1.00  0.00    -0.391 NA 
HETATM    3  H   UNL     1     -13.276  10.057  71.301  1.00  0.00     0.000 HD 
HETATM    4  C   UNL     1     -11.901   8.833  72.148  1.00  0.00    -0.366 C  
HETATM    5  N   UNL     1     -11.779   7.916  73.152  1.00  0.00    -0.621 NA 
HETATM    6  N   UNL     1     -10.865   9.236  71.500  1.00  0.00    -0.363 NA 
HETATM    7  C   UNL     1     -11.005  10.238  70.460  1.00  0.00    -0.270 C  
HETATM    8  H   UNL     1     -12.625   7.502  73.545  1.00  0.00     0.000 HD 
HETATM    9  H   UNL     1      -9.945   8.851  71.716  1.00  0.00     0.000 HD 
ENDROOT
BRANCH   5  10
HETATM   10  C   UNL     1     -10.489   7.509  73.681  1.00  0.00    -0.229 C  
BRANCH  10  11
HETATM   11  C   UNL     1      -9.951   6.207  73.112  1.00  0.00    -0.187 A  
HETATM   12  C   UNL     1      -8.671   6.071  72.555  1.00  0.00    -0.122 A  
HETATM   13  C   UNL     1      -8.243   4.849  72.029  1.00  0.00    -0.115 A  
HETATM   14  C   UNL     1      -9.086   3.741  72.053  1.00  0.00    -0.162 A  
HETATM   15  C   UNL     1     -10.357   3.852  72.611  1.00  0.00    -0.228 A  
HETATM   16  C   UNL     1     -10.785   5.074  73.138  1.00  0.00    -0.314 A  
ENDBRANCH  10  11
ENDBRANCH   5  10
TORSDOF 2
ENDMDL
MODEL      154
REMARK 921   NORMALIZED FREE ENERGY PREDICTED BY IDOCK:   -3.34 KCAL/MOL
REMARK 922        TOTAL FREE ENERGY PREDICTED BY IDOCK:   -3.90 KCAL/MOL
REMARK 923 INTER-LIGAND FREE ENERGY PREDICTED BY IDOCK:   -3.70 KCAL/MOL
REMARK 924 INTRA-LIGAND FREE ENERGY PREDICTED BY IDOCK:   -0.20 KCAL/MOL
REMARK 927      BINDING AFFINITY PREDICTED BY RF-SCORE:    0.00 PKD
ROOT
HETATM    1  C   UNL     1      -7.496   7.900  71.677  1.00  0.00    -0.072 C  
HETATM    2  N   UNL     1      -8.688   7.197  71.283  1.00  0.00    -0.128 NA 
HETATM    3  H   UNL     1      -8.596   6.184  71.202  1.00  0.00     0.000 HD 
HETATM    4  C   UNL     1      -9.925   7.701  71.003  1.00  0.00    -0.182 C  
HETATM    5  N   UNL     1     -10.088   9.013  71.340  1.00  0.00    -0.308 NA 
HETATM    6  N   UNL     1     -10.889   7.039  70.466  1.00  0.00    -0.242 NA 
HETATM    7  C   UNL     1     -10.713   5.634  70.146  1.00  0.00    -0.305 C  
HETATM    8  H   UNL     1      -9.269   9.555  71.620  1.00  0.00     0.000 HD 
HETATM    9  H   UNL     1     -11.776   7.500  70.265  1.00  0.00     0.000 HD 
ENDROOT
BRANCH   5  10
HETATM   10  C   UNL     1     -11.384   9.668  71.314  1.00  0.00    -0.388 C  
BRANCH  10  11
HETATM   11  C   UNL     1     -11.537  10.736  70.245  1.00  0.00    -0.427 A  
HETATM   12  C   UNL     1     -11.940  12.052  70.512  1.00  0.00    -0.338 A  
HETATM   13  C   UNL     1     -12.082  12.984  69.479  1.00  0.00    -0.289 A  
HETATM   14  C   UNL     1     -11.820  12.615  68.162  1.00  0.00    -0.366 A  
HETATM   15  C   UNL     1     -11.410  11.316  67.877  1.00  0.00    -0.367 A  
HETATM   16  C   UNL     1     -11.267  10.385  68.909  1.00  0.00    -0.290 A  
ENDBRANCH  10  11
ENDBRANCH   5  10
TORSDOF 2
ENDMDL
MODEL      155
REMARK 921   NORMALIZED FREE ENERGY PREDICTED BY IDOCK:   -3.34 KCAL/MOL
REMARK 922        TOTAL FREE ENERGY PREDICTED BY IDOCK:   -3.90 KCAL/MOL
REMARK 923 INTER-LIGAND FREE ENERGY PREDICTED BY IDOCK:   -3.72 KCAL/MOL
REMARK 924 INTRA-LIGAND FREE ENERGY PREDICTED BY IDOCK:   -0.19 KCAL/MOL
REMARK 927      BINDING AFFINITY PREDICTED BY RF-SCORE:    0.00 PKD
ROOT
HETATM    1  C   UNL     1     -11.202   5.328  72.816  1.00  0.00    -0.284 C  
HETATM    2  N   UNL     1     -12.200   6.317  72.506  1.00  0.00    -0.539 NA 
HETATM    3  H   UNL     1     -13.159   6.066  72.747  1.00  0.00     0.000 HD 
HETATM    4  C   UNL     1     -12.038   7.545  71.933  1.00  0.00    -0.305 C  
HETATM    5  N   UNL     1     -10.740   7.954  71.834  1.00  0.00    -0.226 NA 
HETATM    6  N   UNL     1     -12.994   8.294  71.505  1.00  0.00    -0.383 NA 
HETATM    7  C   UNL     1     -14.372   7.862  71.650  1.00  0.00    -0.479 C  
HETATM    8  H   UNL     1      -9.997   7.284  72.038  1.00  0.00     0.000 HD 
HETATM    9  H   UNL     1     -12.784   9.189  71.064  1.00  0.00     0.000 HD 
ENDROOT
BRANCH   5  10
HETATM   10  C   UNL     1     -10.377   9.307  71.449  1.00  0.00    -0.321 C  
BRANCH  10  11
HETATM   11  C   UNL     1      -9.780   9.434  70.058  1.00  0.00    -0.255 A  
HETATM   12  C   UNL     1      -8.499   9.948  69.806  1.00  0.00    -0.206 A  
HETATM   13  C   UNL     1      -8.015  10.059  68.499  1.00  0.00    -0.102 A  
HETATM   14  C   UNL     1      -8.802   9.655  67.423  1.00  0.00    -0.134 A  
HETATM   15  C   UNL     1     -10.072   9.134  67.653  1.00  0.00    -0.273 A  
HETATM   16  C   UNL     1     -10.556   9.022  68.960  1.00  0.00    -0.209 A  
ENDBRANCH  10  11
ENDBRANCH   5  10
TORSDOF 2
ENDMDL
MODEL      156
REMARK 921   NORMALIZED FREE ENERGY PREDICTED BY IDOCK:   -3.31 KCAL/MOL
REMARK 922        TOTAL FREE ENERGY PREDICTED BY IDOCK:   -3.88 KCAL/MOL
REMARK 923 INTER-LIGAND FREE ENERGY PREDICTED BY IDOCK:   -3.67 KCAL/MOL
REMARK 924 INTRA-LIGAND FREE ENERGY PREDICTED BY IDOCK:   -0.21 KCAL/MOL
REMARK 927      BINDING AFFINITY PREDICTED BY RF-SCORE:    0.00 PKD
ROOT
HETATM    1  C   UNL     1      -7.572   7.947  67.572  1.00  0.00    -0.105 C  
HETATM    2  N   UNL     1      -7.167   9.109  68.318  1.00  0.00    -0.077 NA 
HETATM    3  H   UNL     1      -6.179   9.352  68.254  1.00  0.00     0.000 HD 
HETATM    4  C   UNL     1      -7.927   9.931  69.099  1.00  0.00    -0.112 C  
HETATM    5  N   UNL     1      -9.272   9.731  68.985  1.00  0.00    -0.157 NA 
HETATM    6  N   UNL     1      -7.464  10.833  69.893  1.00  0.00    -0.353 NA 
HETATM    7  C   UNL     1      -6.033  11.059  69.976  1.00  0.00    -0.116 C  
HETATM    8  H   UNL     1      -9.606   8.915  68.471  1.00  0.00     0.000 HD 
HETATM    9  H   UNL     1      -8.102  11.388  70.463  1.00  0.00     0.000 HD 
ENDROOT
BRANCH   5  10
HETATM   10  C   UNL     1     -10.246  10.637  69.570  1.00  0.00    -0.158 C  
BRANCH  10  11
HETATM   11  C   UNL     1     -11.163  10.004  70.603  1.00  0.00    -0.425 A  
HETATM   12  C   UNL     1     -10.737   9.054  71.543  1.00  0.00    -0.421 A  
HETATM   13  C   UNL     1     -11.636   8.493  72.454  1.00  0.00    -0.425 A  
HETATM   14  C   UNL     1     -12.976   8.874  72.442  1.00  0.00    -0.467 A  
HETATM   15  C   UNL     1     -13.417   9.822  71.523  1.00  0.00    -0.417 A  
HETATM   16  C   UNL     1     -12.518  10.384  70.613  1.00  0.00    -0.437 A  
ENDBRANCH  10  11
ENDBRANCH   5  10
TORSDOF 2
ENDMDL
MODEL      157
REMARK 921   NORMALIZED FREE ENERGY PREDICTED BY IDOCK:   -3.31 KCAL/MOL
REMARK 922        TOTAL FREE ENERGY PREDICTED BY IDOCK:   -3.86 KCAL/MOL
REMARK 923 INTER-LIGAND FREE ENERGY PREDICTED BY IDOCK:   -3.66 KCAL/MOL
REMARK 924 INTRA-LIGAND FREE ENERGY PREDICTED BY IDOCK:   -0.21 KCAL/MOL
REMARK 927      BINDING AFFINITY PREDICTED BY RF-SCORE:    0.00 PKD
ROOT
HETATM    1  C   UNL     1      -8.138   9.301  66.482  1.00  0.00    -0.104 C  
HETATM    2  N   UNL     1      -8.906  10.315  67.155  1.00  0.00    -0.136 NA 
HETATM    3  H   UNL     1      -9.352  11.004  66.551  1.00  0.00     0.000 HD 
HETATM    4  C   UNL     1      -9.118  10.479  68.493  1.00  0.00    -0.154 C  
HETATM    5  N   UNL     1      -8.713   9.426  69.262  1.00  0.00    -0.138 NA 
HETATM    6  N   UNL     1      -9.649  11.519  69.036  1.00  0.00    -0.413 NA 
HETATM    7  C   UNL     1     -10.108  12.615  68.203  1.00  0.00    -0.231 C  
HETATM    8  H   UNL     1      -8.160   8.685  68.828  1.00  0.00     0.000 HD 
HETATM    9  H   UNL     1      -9.747  11.572  70.050  1.00  0.00     0.000 HD 
ENDROOT
BRANCH   5  10
HETATM   10  C   UNL     1      -9.041   9.321  70.673  1.00  0.00    -0.253 C  
BRANCH  10  11
HETATM   11  C   UNL     1     -10.344   8.600  70.972  1.00  0.00    -0.275 A  
HETATM   12  C   UNL     1     -11.375   9.146  71.749  1.00  0.00    -0.451 A  
HETATM   13  C   UNL     1     -12.543   8.422  72.005  1.00  0.00    -0.400 A  
HETATM   14  C   UNL     1     -12.700   7.139  71.485  1.00  0.00    -0.433 A  
HETATM   15  C   UNL     1     -11.692   6.582  70.703  1.00  0.00    -0.436 A  
HETATM   16  C   UNL     1     -10.525   7.307  70.446  1.00  0.00    -0.232 A  
ENDBRANCH  10  11
ENDBRANCH   5  10
TORSDOF 2
ENDMDL
MODEL      158
REMARK 921   NORMALIZED FREE ENERGY PREDICTED BY IDOCK:   -3.29 KCAL/MOL
REMARK 922        TOTAL FREE ENERGY PREDICTED BY IDOCK:   -3.85 KCAL/MOL
REMARK 923 INTER-LIGAND FREE ENERGY PREDICTED BY IDOCK:   -3.65 KCAL/MOL
REMARK 924 INTRA-LIGAND FREE ENERGY PREDICTED BY IDOCK:   -0.20 KCAL/MOL
REMARK 927      BINDING AFFINITY PREDICTED BY RF-SCORE:    0.00 PKD
ROOT
HETATM    1  C   UNL     1     -12.284  12.266  63.374  1.00  0.00    -0.527 C  
HETATM    2  N   UNL     1     -11.037  11.568  63.540  1.00  0.00    -0.630 NA 
HETATM    3  H   UNL     1     -10.520  11.378  62.682  1.00  0.00     0.000 HD 
HETATM    4  C   UNL     1     -10.453  11.124  64.691  1.00  0.00    -0.335 C  
HETATM    5  N   UNL     1     -11.037  11.587  65.834  1.00  0.00    -0.257 NA 
HETATM    6  N   UNL     1      -9.438  10.334  64.748  1.00  0.00    -0.257 NA 
HETATM    7  C   UNL     1      -8.804   9.879  63.524  1.00  0.00    -0.234 C  
HETATM    8  H   UNL     1     -11.927  12.083  65.766  1.00  0.00     0.000 HD 
HETATM    9  H   UNL     1      -9.078  10.029  65.653  1.00  0.00     0.000 HD 
ENDROOT
BRANCH   5  10
HETATM   10  C   UNL     1     -10.439  11.399  67.145  1.00  0.00    -0.224 C  
BRANCH  10  11
HETATM   11  C   UNL     1      -9.763  12.633  67.718  1.00  0.00    -0.206 A  
HETATM   12  C   UNL     1      -8.388  12.714  67.982  1.00  0.00    -0.175 A  
HETATM   13  C   UNL     1      -7.829  13.872  68.531  1.00  0.00    -0.139 A  
HETATM   14  C   UNL     1      -8.636  14.969  68.822  1.00  0.00    -0.182 A  
HETATM   15  C   UNL     1     -10.002  14.912  68.559  1.00  0.00    -0.223 A  
HETATM   16  C   UNL     1     -10.560  13.755  68.009  1.00  0.00    -0.258 A  
ENDBRANCH  10  11
ENDBRANCH   5  10
TORSDOF 2
ENDMDL
MODEL      159
REMARK 921   NORMALIZED FREE ENERGY PREDICTED BY IDOCK:   -3.28 KCAL/MOL
REMARK 922        TOTAL FREE ENERGY PREDICTED BY IDOCK:   -3.83 KCAL/MOL
REMARK 923 INTER-LIGAND FREE ENERGY PREDICTED BY IDOCK:   -3.75 KCAL/MOL
REMARK 924 INTRA-LIGAND FREE ENERGY PREDICTED BY IDOCK:   -0.09 KCAL/MOL
REMARK 927      BINDING AFFINITY PREDICTED BY RF-SCORE:    0.00 PKD
ROOT
HETATM    1  C   UNL     1      -7.865  11.718  66.726  1.00  0.00    -0.103 C  
HETATM    2  N   UNL     1      -9.205  11.819  67.241  1.00  0.00    -0.169 NA 
HETATM    3  H   UNL     1      -9.413  11.231  68.048  1.00  0.00     0.000 HD 
HETATM    4  C   UNL     1     -10.235  12.595  66.795  1.00  0.00    -0.237 C  
HETATM    5  N   UNL     1      -9.875  13.536  65.874  1.00  0.00    -0.409 NA 
HETATM    6  N   UNL     1     -11.460  12.489  67.178  1.00  0.00    -0.329 NA 
HETATM    7  C   UNL     1     -11.822  11.509  68.185  1.00  0.00    -0.236 C  
HETATM    8  H   UNL     1      -8.936  13.500  65.476  1.00  0.00     0.000 HD 
HETATM    9  H   UNL     1     -12.176  13.093  66.774  1.00  0.00     0.000 HD 
ENDROOT
BRANCH   5  10
HETATM   10  C   UNL     1     -10.780  14.586  65.440  1.00  0.00    -0.361 C  
BRANCH  10  11
HETATM   11  C   UNL     1     -10.582  15.923  66.134  1.00  0.00    -0.310 A  
HETATM   12  C   UNL     1     -10.557  17.153  65.460  1.00  0.00    -0.160 A  
HETATM   13  C   UNL     1     -10.350  18.348  66.154  1.00  0.00    -0.431 A  
HETATM   14  C   UNL     1     -10.165  18.334  67.534  1.00  0.00    -0.384 A  
HETATM   15  C   UNL     1     -10.196  17.125  68.223  1.00  0.00    -0.334 A  
HETATM   16  C   UNL     1     -10.405  15.930  67.530  1.00  0.00    -0.283 A  
ENDBRANCH  10  11
ENDBRANCH   5  10
TORSDOF 2
ENDMDL
MODEL      160
REMARK 921   NORMALIZED FREE ENERGY PREDICTED BY IDOCK:   -3.26 KCAL/MOL
REMARK 922        TOTAL FREE ENERGY PREDICTED BY IDOCK:   -3.81 KCAL/MOL
REMARK 923 INTER-LIGAND FREE ENERGY PREDICTED BY IDOCK:   -3.67 KCAL/MOL
REMARK 924 INTRA-LIGAND FREE ENERGY PREDICTED BY IDOCK:   -0.14 KCAL/MOL
REMARK 927      BINDING AFFINITY PREDICTED BY RF-SCORE:    0.00 PKD
ROOT
HETATM    1  C   UNL     1      -9.422  13.889  68.123  1.00  0.00    -0.207 C  
HETATM    2  N   UNL     1      -8.681  12.751  67.646  1.00  0.00    -0.169 NA 
HETATM    3  H   UNL     1      -7.820  12.965  67.142  1.00  0.00     0.000 HD 
HETATM    4  C   UNL     1      -8.974  11.425  67.775  1.00  0.00    -0.147 C  
HETATM    5  N   UNL     1      -9.992  11.155  68.642  1.00  0.00    -0.200 NA 
HETATM    6  N   UNL     1      -8.373  10.470  67.154  1.00  0.00    -0.126 NA 
HETATM    7  C   UNL     1      -7.267  10.770  66.263  1.00  0.00    -0.137 C  
HETATM    8  H   UNL     1     -10.550  11.930  69.002  1.00  0.00     0.000 HD 
HETATM    9  H   UNL     1      -8.672   9.505  67.288  1.00  0.00     0.000 HD 
ENDROOT
BRANCH   5  10
HETATM   10  C   UNL     1     -10.311   9.804  69.072  1.00  0.00    -0.208 C  
BRANCH  10  11
HETATM   11  C   UNL     1     -11.261   9.720  70.255  1.00  0.00    -0.347 A  
HETATM   12  C   UNL     1     -12.222  10.698  70.551  1.00  0.00    -0.449 A  
HETATM   13  C   UNL     1     -13.053  10.573  71.667  1.00  0.00    -0.551 A  
HETATM   14  C   UNL     1     -12.939   9.466  72.506  1.00  0.00    -0.345 A  
HETATM   15  C   UNL     1     -11.998   8.480  72.224  1.00  0.00    -0.454 A  
HETATM   16  C   UNL     1     -11.168   8.605  71.107  1.00  0.00    -0.329 A  
ENDBRANCH  10  11
ENDBRANCH   5  10
TORSDOF 2
ENDMDL
MODEL      161
REMARK 921   NORMALIZED FREE ENERGY PREDICTED BY IDOCK:   -3.23 KCAL/MOL
REMARK 922        TOTAL FREE ENERGY PREDICTED BY IDOCK:   -3.79 KCAL/MOL
REMARK 923 INTER-LIGAND FREE ENERGY PREDICTED BY IDOCK:   -3.73 KCAL/MOL
REMARK 924 INTRA-LIGAND FREE ENERGY PREDICTED BY IDOCK:   -0.05 KCAL/MOL
REMARK 927      BINDING AFFINITY PREDICTED BY RF-SCORE:    0.00 PKD
ROOT
HETATM    1  C   UNL     1      -6.227  19.407  65.834  1.00  0.00    -0.192 C  
HETATM    2  N   UNL     1      -7.660  19.457  65.963  1.00  0.00    -0.294 NA 
HETATM    3  H   UNL     1      -8.137  20.096  65.328  1.00  0.00     0.000 HD 
HETATM    4  C   UNL     1      -8.465  18.763  66.818  1.00  0.00    -0.287 C  
HETATM    5  N   UNL     1      -7.838  17.753  67.489  1.00  0.00    -0.205 NA 
HETATM    6  N   UNL     1      -9.715  19.001  67.014  1.00  0.00    -0.304 NA 
HETATM    7  C   UNL     1     -10.377  20.055  66.267  1.00  0.00    -0.455 C  
HETATM    8  H   UNL     1      -6.821  17.683  67.432  1.00  0.00     0.000 HD 
HETATM    9  H   UNL     1     -10.240  18.451  67.694  1.00  0.00     0.000 HD 
ENDROOT
BRANCH   5  10
HETATM   10  C   UNL     1      -8.565  16.775  68.280  1.00  0.00    -0.226 C  
BRANCH  10  11
HETATM   11  C   UNL     1      -9.404  15.800  67.471  1.00  0.00    -0.210 A  
HETATM   12  C   UNL     1      -8.959  15.183  66.293  1.00  0.00    -0.274 A  
HETATM   13  C   UNL     1      -9.788  14.310  65.582  1.00  0.00    -0.301 A  
HETATM   14  C   UNL     1     -11.076  14.038  66.040  1.00  0.00    -0.303 A  
HETATM   15  C   UNL     1     -11.533  14.633  67.212  1.00  0.00    -0.386 A  
HETATM   16  C   UNL     1     -10.704  15.505  67.923  1.00  0.00    -0.294 A  
ENDBRANCH  10  11
ENDBRANCH   5  10
TORSDOF 2
ENDMDL
MODEL      162
REMARK 921   NORMALIZED FREE ENERGY PREDICTED BY IDOCK:   -3.23 KCAL/MOL
REMARK 922        TOTAL FREE ENERGY PREDICTED BY IDOCK:   -3.78 KCAL/MOL
REMARK 923 INTER-LIGAND FREE ENERGY PREDICTED BY IDOCK:   -3.60 KCAL/MOL
REMARK 924 INTRA-LIGAND FREE ENERGY PREDICTED BY IDOCK:   -0.18 KCAL/MOL
REMARK 927      BINDING AFFINITY PREDICTED BY RF-SCORE:    0.00 PKD
ROOT
HETATM    1  C   UNL     1     -10.865   9.311  69.896  1.00  0.00    -0.234 C  
HETATM    2  N   UNL     1      -9.807   8.920  69.002  1.00  0.00    -0.175 NA 
HETATM    3  H   UNL     1      -9.504   7.949  69.076  1.00  0.00     0.000 HD 
HETATM    4  C   UNL     1      -9.155   9.672  68.069  1.00  0.00    -0.125 C  
HETATM    5  N   UNL     1      -9.727  10.887  67.825  1.00  0.00    -0.166 NA 
HETATM    6  N   UNL     1      -8.088   9.314  67.444  1.00  0.00    -0.109 NA 
HETATM    7  C   UNL     1      -7.512   8.004  67.687  1.00  0.00    -0.097 C  
HETATM    8  H   UNL     1     -10.477  11.210  68.437  1.00  0.00     0.000 HD 
HETATM    9  H   UNL     1      -7.647   9.949  66.779  1.00  0.00     0.000 HD 
ENDROOT
BRANCH   5  10
HETATM   10  C   UNL     1      -9.306  11.738  66.724  1.00  0.00    -0.194 C  
BRANCH  10  11
HETATM   11  C   UNL     1     -10.353  11.942  65.643  1.00  0.00    -0.285 A  
HETATM   12  C   UNL     1     -10.325  11.290  64.401  1.00  0.00    -0.388 A  
HETATM   13  C   UNL     1     -11.308  11.537  63.438  1.00  0.00    -0.303 A  
HETATM   14  C   UNL     1     -12.337  12.438  63.702  1.00  0.00    -0.647 A  
HETATM   15  C   UNL     1     -12.388  13.089  64.931  1.00  0.00    -0.512 A  
HETATM   16  C   UNL     1     -11.406  12.841  65.895  1.00  0.00    -0.363 A  
ENDBRANCH  10  11
ENDBRANCH   5  10
TORSDOF 2
ENDMDL
MODEL      163
REMARK 921   NORMALIZED FREE ENERGY PREDICTED BY IDOCK:   -3.22 KCAL/MOL
REMARK 922        TOTAL FREE ENERGY PREDICTED BY IDOCK:   -3.77 KCAL/MOL
REMARK 923 INTER-LIGAND FREE ENERGY PREDICTED BY IDOCK:   -3.80 KCAL/MOL
REMARK 924 INTRA-LIGAND FREE ENERGY PREDICTED BY IDOCK:    0.03 KCAL/MOL
REMARK 927      BINDING AFFINITY PREDICTED BY RF-SCORE:    0.00 PKD
ROOT
HETATM    1  C   UNL     1     -11.371  10.887  67.483  1.00  0.00    -0.232 C  
HETATM    2  N   UNL     1     -10.203  10.792  68.319  1.00  0.00    -0.161 NA 
HETATM    3  H   UNL     1      -9.346  11.180  67.924  1.00  0.00     0.000 HD 
HETATM    4  C   UNL     1     -10.086  10.254  69.567  1.00  0.00    -0.235 C  
HETATM    5  N   UNL     1     -11.276   9.956  70.165  1.00  0.00    -0.271 NA 
HETATM    6  N   UNL     1      -8.974  10.025  70.173  1.00  0.00    -0.370 NA 
HETATM    7  C   UNL     1      -7.718  10.381  69.539  1.00  0.00    -0.156 C  
HETATM    8  H   UNL     1     -12.131  10.003  69.610  1.00  0.00     0.000 HD 
HETATM    9  H   UNL     1      -8.974   9.594  71.097  1.00  0.00     0.000 HD 
ENDROOT
BRANCH   5  10
HETATM   10  C   UNL     1     -11.370   9.574  71.564  1.00  0.00    -0.385 C  
BRANCH  10  11
HETATM   11  C   UNL     1     -11.103   8.105  71.842  1.00  0.00    -0.346 A  
HETATM   12  C   UNL     1     -10.811   7.594  73.115  1.00  0.00    -0.440 A  
HETATM   13  C   UNL     1     -10.554   6.233  73.301  1.00  0.00    -0.284 A  
HETATM   14  C   UNL     1     -10.586   5.359  72.217  1.00  0.00    -0.280 A  
HETATM   15  C   UNL     1     -10.882   5.844  70.947  1.00  0.00    -0.347 A  
HETATM   16  C   UNL     1     -11.141   7.205  70.761  1.00  0.00    -0.296 A  
ENDBRANCH  10  11
ENDBRANCH   5  10
TORSDOF 2
ENDMDL
MODEL      164
REMARK 921   NORMALIZED FREE ENERGY PREDICTED BY IDOCK:   -3.21 KCAL/MOL
REMARK 922        TOTAL FREE ENERGY PREDICTED BY IDOCK:   -3.76 KCAL/MOL
REMARK 923 INTER-LIGAND FREE ENERGY PREDICTED BY IDOCK:   -3.55 KCAL/MOL
REMARK 924 INTRA-LIGAND FREE ENERGY PREDICTED BY IDOCK:   -0.21 KCAL/MOL
REMARK 927      BINDING AFFINITY PREDICTED BY RF-SCORE:    0.00 PKD
ROOT
HETATM    1  C   UNL     1     -11.555  10.466  70.367  1.00  0.00    -0.337 C  
HETATM    2  N   UNL     1     -11.193   9.258  69.674  1.00  0.00    -0.425 NA 
HETATM    3  H   UNL     1     -10.634   9.385  68.830  1.00  0.00     0.000 HD 
HETATM    4  C   UNL     1     -11.496   7.966  69.992  1.00  0.00     0.054 C  
HETATM    5  N   UNL     1     -12.037   7.804  71.234  1.00  0.00    -0.305 NA 
HETATM    6  N   UNL     1     -11.308   6.951  69.222  1.00  0.00    -0.535 NA 
HETATM    7  C   UNL     1     -10.698   7.134  67.918  1.00  0.00    -0.192 C  
HETATM    8  H   UNL     1     -12.316   8.633  71.761  1.00  0.00     0.000 HD 
HETATM    9  H   UNL     1     -11.589   6.019  69.528  1.00  0.00     0.000 HD 
ENDROOT
BRANCH   5  10
HETATM   10  C   UNL     1     -12.231   6.495  71.834  1.00  0.00    -0.324 C  
BRANCH  10  11
HETATM   11  C   UNL     1     -11.102   6.038  72.742  1.00  0.00    -0.305 A  
HETATM   12  C   UNL     1     -10.502   6.857  73.709  1.00  0.00    -0.390 A  
HETATM   13  C   UNL     1      -9.452   6.383  74.500  1.00  0.00    -0.268 A  
HETATM   14  C   UNL     1      -8.985   5.080  74.338  1.00  0.00    -0.111 A  
HETATM   15  C   UNL     1      -9.573   4.248  73.390  1.00  0.00    -0.141 A  
HETATM   16  C   UNL     1     -10.625   4.722  72.600  1.00  0.00    -0.271 A  
ENDBRANCH  10  11
ENDBRANCH   5  10
TORSDOF 2
ENDMDL
MODEL      165
REMARK 921   NORMALIZED FREE ENERGY PREDICTED BY IDOCK:   -3.21 KCAL/MOL
REMARK 922        TOTAL FREE ENERGY PREDICTED BY IDOCK:   -3.75 KCAL/MOL
REMARK 923 INTER-LIGAND FREE ENERGY PREDICTED BY IDOCK:   -3.56 KCAL/MOL
REMARK 924 INTRA-LIGAND FREE ENERGY PREDICTED BY IDOCK:   -0.20 KCAL/MOL
REMARK 927      BINDING AFFINITY PREDICTED BY RF-SCORE:    0.00 PKD
ROOT
HETATM    1  C   UNL     1     -11.395  15.315  70.522  1.00  0.00    -0.309 C  
HETATM    2  N   UNL     1     -11.939  13.997  70.716  1.00  0.00    -0.450 NA 
HETATM    3  H   UNL     1     -12.397  13.837  71.612  1.00  0.00     0.000 HD 
HETATM    4  C   UNL     1     -11.924  12.932  69.862  1.00  0.00    -0.307 C  
HETATM    5  N   UNL     1     -11.519  13.232  68.594  1.00  0.00    -0.280 NA 
HETATM    6  N   UNL     1     -12.253  11.727  70.177  1.00  0.00    -0.288 NA 
HETATM    7  C   UNL     1     -12.716  11.430  71.519  1.00  0.00    -0.357 C  
HETATM    8  H   UNL     1     -11.120  14.153  68.410  1.00  0.00     0.000 HD 
HETATM    9  H   UNL     1     -12.188  10.982  69.483  1.00  0.00     0.000 HD 
ENDROOT
BRANCH   5  10
HETATM   10  C   UNL     1     -11.635  12.287  67.496  1.00  0.00    -0.353 C  
BRANCH  10  11
HETATM   11  C   UNL     1     -10.323  11.665  67.051  1.00  0.00    -0.248 A  
HETATM   12  C   UNL     1      -9.198  11.545  67.881  1.00  0.00    -0.168 A  
HETATM   13  C   UNL     1      -8.011  10.981  67.405  1.00  0.00    -0.119 A  
HETATM   14  C   UNL     1      -7.929  10.526  66.091  1.00  0.00    -0.147 A  
HETATM   15  C   UNL     1      -9.036  10.627  65.254  1.00  0.00    -0.221 A  
HETATM   16  C   UNL     1     -10.224  11.190  65.731  1.00  0.00    -0.310 A  
ENDBRANCH  10  11
ENDBRANCH   5  10
TORSDOF 2
ENDMDL
MODEL      166
REMARK 921   NORMALIZED FREE ENERGY PREDICTED BY IDOCK:   -3.20 KCAL/MOL
REMARK 922        TOTAL FREE ENERGY PREDICTED BY IDOCK:   -3.74 KCAL/MOL
REMARK 923 INTER-LIGAND FREE ENERGY PREDICTED BY IDOCK:   -3.60 KCAL/MOL
REMARK 924 INTRA-LIGAND FREE ENERGY PREDICTED BY IDOCK:   -0.15 KCAL/MOL
REMARK 927      BINDING AFFINITY PREDICTED BY RF-SCORE:    0.00 PKD
ROOT
HETATM    1  C   UNL     1      -6.911   7.974  70.424  1.00  0.00    -0.041 C  
HETATM    2  N   UNL     1      -7.822   7.676  69.351  1.00  0.00    -0.120 NA 
HETATM    3  H   UNL     1      -7.435   7.751  68.411  1.00  0.00     0.000 HD 
HETATM    4  C   UNL     1      -9.134   7.307  69.421  1.00  0.00    -0.142 C  
HETATM    5  N   UNL     1      -9.564   6.989  70.677  1.00  0.00    -0.166 NA 
HETATM    6  N   UNL     1      -9.941   7.249  68.419  1.00  0.00    -0.156 NA 
HETATM    7  C   UNL     1      -9.461   7.555  67.084  1.00  0.00    -0.154 C  
HETATM    8  H   UNL     1      -8.954   7.189  71.471  1.00  0.00     0.000 HD 
HETATM    9  H   UNL     1     -10.917   6.989  68.563  1.00  0.00     0.000 HD 
ENDROOT
BRANCH   5  10
HETATM   10  C   UNL     1     -10.858   6.377  70.925  1.00  0.00    -0.263 C  
BRANCH  10  11
HETATM   11  C   UNL     1     -11.946   7.343  71.361  1.00  0.00    -0.340 A  
HETATM   12  C   UNL     1     -13.282   6.970  71.566  1.00  0.00    -0.382 A  
HETATM   13  C   UNL     1     -14.241   7.912  71.947  1.00  0.00    -0.508 A  
HETATM   14  C   UNL     1     -13.879   9.245  72.133  1.00  0.00    -0.478 A  
HETATM   15  C   UNL     1     -12.556   9.634  71.944  1.00  0.00    -0.481 A  
HETATM   16  C   UNL     1     -11.597   8.692  71.564  1.00  0.00    -0.368 A  
ENDBRANCH  10  11
ENDBRANCH   5  10
TORSDOF 2
ENDMDL
MODEL      167
REMARK 921   NORMALIZED FREE ENERGY PREDICTED BY IDOCK:   -3.19 KCAL/MOL
REMARK 922        TOTAL FREE ENERGY PREDICTED BY IDOCK:   -3.74 KCAL/MOL
REMARK 923 INTER-LIGAND FREE ENERGY PREDICTED BY IDOCK:   -3.62 KCAL/MOL
REMARK 924 INTRA-LIGAND FREE ENERGY PREDICTED BY IDOCK:   -0.11 KCAL/MOL
REMARK 927      BINDING AFFINITY PREDICTED BY RF-SCORE:    0.00 PKD
ROOT
HETATM    1  C   UNL     1      -5.895  19.959  71.317  1.00  0.00    -0.274 C  
HETATM    2  N   UNL     1      -6.058  20.256  69.918  1.00  0.00    -0.352 NA 
HETATM    3  H   UNL     1      -5.877  21.222  69.648  1.00  0.00     0.000 HD 
HETATM    4  C   UNL     1      -6.422  19.419  68.904  1.00  0.00    -0.277 C  
HETATM    5  N   UNL     1      -6.431  18.096  69.240  1.00  0.00    -0.260 NA 
HETATM    6  N   UNL     1      -6.740  19.793  67.714  1.00  0.00    -0.233 NA 
HETATM    7  C   UNL     1      -6.691  21.200  67.360  1.00  0.00    -0.363 C  
HETATM    8  H   UNL     1      -6.326  17.838  70.222  1.00  0.00     0.000 HD 
HETATM    9  H   UNL     1      -7.027  19.103  67.020  1.00  0.00     0.000 HD 
ENDROOT
BRANCH   5  10
HETATM   10  C   UNL     1      -6.586  17.042  68.252  1.00  0.00    -0.156 C  
BRANCH  10  11
HETATM   11  C   UNL     1      -8.024  16.732  67.873  1.00  0.00    -0.182 A  
HETATM   12  C   UNL     1      -9.080  16.689  68.796  1.00  0.00    -0.256 A  
HETATM   13  C   UNL     1     -10.379  16.377  68.387  1.00  0.00    -0.282 A  
HETATM   14  C   UNL     1     -10.645  16.104  67.047  1.00  0.00    -0.292 A  
HETATM   15  C   UNL     1      -9.614  16.151  66.114  1.00  0.00    -0.359 A  
HETATM   16  C   UNL     1      -8.315  16.464  66.523  1.00  0.00    -0.337 A  
ENDBRANCH  10  11
ENDBRANCH   5  10
TORSDOF 2
ENDMDL
MODEL      168
REMARK 921   NORMALIZED FREE ENERGY PREDICTED BY IDOCK:   -3.17 KCAL/MOL
REMARK 922        TOTAL FREE ENERGY PREDICTED BY IDOCK:   -3.71 KCAL/MOL
REMARK 923 INTER-LIGAND FREE ENERGY PREDICTED BY IDOCK:   -3.54 KCAL/MOL
REMARK 924 INTRA-LIGAND FREE ENERGY PREDICTED BY IDOCK:   -0.17 KCAL/MOL
REMARK 927      BINDING AFFINITY PREDICTED BY RF-SCORE:    0.00 PKD
ROOT
HETATM    1  C   UNL     1      -7.133   7.842  66.753  1.00  0.00    -0.080 C  
HETATM    2  N   UNL     1      -8.410   7.182  66.805  1.00  0.00    -0.113 NA 
HETATM    3  H   UNL     1      -8.383   6.164  66.758  1.00  0.00     0.000 HD 
HETATM    4  C   UNL     1      -9.654   7.734  66.907  1.00  0.00    -0.198 C  
HETATM    5  N   UNL     1      -9.656   9.067  67.201  1.00  0.00    -0.158 NA 
HETATM    6  N   UNL     1     -10.762   7.098  66.749  1.00  0.00    -0.520 NA 
HETATM    7  C   UNL     1     -10.745   5.673  66.473  1.00  0.00    -0.226 C  
HETATM    8  H   UNL     1      -8.773   9.579  67.170  1.00  0.00     0.000 HD 
HETATM    9  H   UNL     1     -11.650   7.594  66.817  1.00  0.00     0.000 HD 
ENDROOT
BRANCH   5  10
HETATM   10  C   UNL     1     -10.869   9.785  67.555  1.00  0.00    -0.220 C  
BRANCH  10  11
HETATM   11  C   UNL     1     -10.934  11.214  67.045  1.00  0.00    -0.348 A  
HETATM   12  C   UNL     1     -11.515  12.270  67.763  1.00  0.00    -0.392 A  
HETATM   13  C   UNL     1     -11.562  13.561  67.229  1.00  0.00    -0.398 A  
HETATM   14  C   UNL     1     -11.027  13.818  65.969  1.00  0.00    -0.284 A  
HETATM   15  C   UNL     1     -10.438  12.786  65.244  1.00  0.00    -0.312 A  
HETATM   16  C   UNL     1     -10.389  11.496  65.779  1.00  0.00    -0.295 A  
ENDBRANCH  10  11
ENDBRANCH   5  10
TORSDOF 2
ENDMDL
MODEL      169
REMARK 921   NORMALIZED FREE ENERGY PREDICTED BY IDOCK:   -3.16 KCAL/MOL
REMARK 922        TOTAL FREE ENERGY PREDICTED BY IDOCK:   -3.70 KCAL/MOL
REMARK 923 INTER-LIGAND FREE ENERGY PREDICTED BY IDOCK:   -3.54 KCAL/MOL
REMARK 924 INTRA-LIGAND FREE ENERGY PREDICTED BY IDOCK:   -0.17 KCAL/MOL
REMARK 927      BINDING AFFINITY PREDICTED BY RF-SCORE:    0.00 PKD
ROOT
HETATM    1  C   UNL     1     -12.196  12.614  70.456  1.00  0.00    -0.299 C  
HETATM    2  N   UNL     1     -12.746  11.334  70.812  1.00  0.00    -0.300 NA 
HETATM    3  H   UNL     1     -13.754  11.314  70.965  1.00  0.00     0.000 HD 
HETATM    4  C   UNL     1     -12.102  10.141  70.973  1.00  0.00    -0.377 C  
HETATM    5  N   UNL     1     -10.808  10.138  70.541  1.00  0.00    -0.355 NA 
HETATM    6  N   UNL     1     -12.624   9.081  71.484  1.00  0.00    -0.325 NA 
HETATM    7  C   UNL     1     -14.013   9.089  71.906  1.00  0.00    -0.387 C  
HETATM    8  H   UNL     1     -10.373  11.024  70.283  1.00  0.00     0.000 HD 
HETATM    9  H   UNL     1     -12.063   8.236  71.593  1.00  0.00     0.000 HD 
ENDROOT
BRANCH   5  10
HETATM   10  C   UNL     1     -10.026   8.917  70.433  1.00  0.00    -0.194 C  
BRANCH  10  11
HETATM   11  C   UNL     1      -9.015   8.710  71.548  1.00  0.00    -0.302 A  
HETATM   12  C   UNL     1      -7.636   8.916  71.395  1.00  0.00    -0.118 A  
HETATM   13  C   UNL     1      -6.754   8.687  72.455  1.00  0.00    -0.042 A  
HETATM   14  C   UNL     1      -7.237   8.249  73.687  1.00  0.00    -0.171 A  
HETATM   15  C   UNL     1      -8.603   8.047  73.861  1.00  0.00    -0.324 A  
HETATM   16  C   UNL     1      -9.485   8.278  72.802  1.00  0.00    -0.343 A  
ENDBRANCH  10  11
ENDBRANCH   5  10
TORSDOF 2
ENDMDL
MODEL      170
REMARK 921   NORMALIZED FREE ENERGY PREDICTED BY IDOCK:   -3.14 KCAL/MOL
REMARK 922        TOTAL FREE ENERGY PREDICTED BY IDOCK:   -3.68 KCAL/MOL
REMARK 923 INTER-LIGAND FREE ENERGY PREDICTED BY IDOCK:   -3.48 KCAL/MOL
REMARK 924 INTRA-LIGAND FREE ENERGY PREDICTED BY IDOCK:   -0.20 KCAL/MOL
REMARK 927      BINDING AFFINITY PREDICTED BY RF-SCORE:    0.00 PKD
ROOT
HETATM    1  C   UNL     1     -14.124   8.776  72.157  1.00  0.00    -0.450 C  
HETATM    2  N   UNL     1     -13.284   9.775  71.552  1.00  0.00    -0.387 NA 
HETATM    3  H   UNL     1     -13.765  10.608  71.212  1.00  0.00     0.000 HD 
HETATM    4  C   UNL     1     -11.932   9.759  71.371  1.00  0.00    -0.411 C  
HETATM    5  N   UNL     1     -11.286   8.756  72.034  1.00  0.00    -0.361 NA 
HETATM    6  N   UNL     1     -11.273  10.595  70.647  1.00  0.00    -0.416 NA 
HETATM    7  C   UNL     1     -11.968  11.679  69.977  1.00  0.00    -0.351 C  
HETATM    8  H   UNL     1     -11.841   8.021  72.473  1.00  0.00     0.000 HD 
HETATM    9  H   UNL     1     -10.263  10.496  70.543  1.00  0.00     0.000 HD 
ENDROOT
BRANCH   5  10
HETATM   10  C   UNL     1      -9.838   8.697  72.136  1.00  0.00    -0.317 C  
BRANCH  10  11
HETATM   11  C   UNL     1      -9.203   7.483  71.479  1.00  0.00    -0.149 A  
HETATM   12  C   UNL     1      -8.002   6.904  71.913  1.00  0.00    -0.099 A  
HETATM   13  C   UNL     1      -7.458   5.798  71.252  1.00  0.00    -0.095 A  
HETATM   14  C   UNL     1      -8.108   5.253  70.148  1.00  0.00    -0.087 A  
HETATM   15  C   UNL     1      -9.307   5.807  69.707  1.00  0.00    -0.175 A  
HETATM   16  C   UNL     1      -9.851   6.911  70.369  1.00  0.00    -0.187 A  
ENDBRANCH  10  11
ENDBRANCH   5  10
TORSDOF 2
ENDMDL
MODEL      171
REMARK 921   NORMALIZED FREE ENERGY PREDICTED BY IDOCK:   -3.14 KCAL/MOL
REMARK 922        TOTAL FREE ENERGY PREDICTED BY IDOCK:   -3.68 KCAL/MOL
REMARK 923 INTER-LIGAND FREE ENERGY PREDICTED BY IDOCK:   -3.46 KCAL/MOL
REMARK 924 INTRA-LIGAND FREE ENERGY PREDICTED BY IDOCK:   -0.22 KCAL/MOL
REMARK 927      BINDING AFFINITY PREDICTED BY RF-SCORE:    0.00 PKD
ROOT
HETATM    1  C   UNL     1      -6.493   7.954  71.399  1.00  0.00    -0.038 C  
HETATM    2  N   UNL     1      -6.961   8.124  70.049  1.00  0.00    -0.040 NA 
HETATM    3  H   UNL     1      -6.237   8.140  69.330  1.00  0.00     0.000 HD 
HETATM    4  C   UNL     1      -8.242   8.265  69.600  1.00  0.00    -0.118 C  
HETATM    5  N   UNL     1      -9.199   8.009  70.538  1.00  0.00    -0.153 NA 
HETATM    6  N   UNL     1      -8.572   8.610  68.404  1.00  0.00    -0.134 NA 
HETATM    7  C   UNL     1      -7.544   8.845  67.408  1.00  0.00    -0.089 C  
HETATM    8  H   UNL     1      -8.915   7.888  71.511  1.00  0.00     0.000 HD 
HETATM    9  H   UNL     1      -9.556   8.719  68.158  1.00  0.00     0.000 HD 
ENDROOT
BRANCH   5  10
HETATM   10  C   UNL     1     -10.609   7.901  70.202  1.00  0.00    -0.237 C  
BRANCH  10  11
HETATM   11  C   UNL     1     -11.471   9.046  70.705  1.00  0.00    -0.331 A  
HETATM   12  C   UNL     1     -11.326  10.375  70.280  1.00  0.00    -0.406 A  
HETATM   13  C   UNL     1     -12.138  11.387  70.798  1.00  0.00    -0.433 A  
HETATM   14  C   UNL     1     -13.112  11.088  71.748  1.00  0.00    -0.554 A  
HETATM   15  C   UNL     1     -13.279   9.774  72.176  1.00  0.00    -0.530 A  
HETATM   16  C   UNL     1     -12.467   8.761  71.658  1.00  0.00    -0.392 A  
ENDBRANCH  10  11
ENDBRANCH   5  10
TORSDOF 2
ENDMDL
MODEL      172
REMARK 921   NORMALIZED FREE ENERGY PREDICTED BY IDOCK:   -3.12 KCAL/MOL
REMARK 922        TOTAL FREE ENERGY PREDICTED BY IDOCK:   -3.66 KCAL/MOL
REMARK 923 INTER-LIGAND FREE ENERGY PREDICTED BY IDOCK:   -3.58 KCAL/MOL
REMARK 924 INTRA-LIGAND FREE ENERGY PREDICTED BY IDOCK:   -0.08 KCAL/MOL
REMARK 927      BINDING AFFINITY PREDICTED BY RF-SCORE:    0.00 PKD
ROOT
HETATM    1  C   UNL     1      -9.564   5.439  70.296  1.00  0.00    -0.177 C  
HETATM    2  N   UNL     1      -8.786   6.468  70.932  1.00  0.00    -0.146 NA 
HETATM    3  H   UNL     1      -8.005   6.143  71.500  1.00  0.00     0.000 HD 
HETATM    4  C   UNL     1      -8.953   7.822  70.879  1.00  0.00    -0.147 C  
HETATM    5  N   UNL     1      -9.848   8.243  69.938  1.00  0.00    -0.184 NA 
HETATM    6  N   UNL     1      -8.343   8.672  71.629  1.00  0.00    -0.204 NA 
HETATM    7  C   UNL     1      -7.368   8.213  72.600  1.00  0.00    -0.111 C  
HETATM    8  H   UNL     1     -10.427   7.548  69.465  1.00  0.00     0.000 HD 
HETATM    9  H   UNL     1      -8.546   9.668  71.542  1.00  0.00     0.000 HD 
ENDROOT
BRANCH   5  10
HETATM   10  C   UNL     1     -10.006   9.644  69.586  1.00  0.00    -0.221 C  
BRANCH  10  11
HETATM   11  C   UNL     1     -11.146  10.353  70.297  1.00  0.00    -0.379 A  
HETATM   12  C   UNL     1     -11.548  11.665  70.006  1.00  0.00    -0.338 A  
HETATM   13  C   UNL     1     -12.592  12.269  70.712  1.00  0.00    -0.302 A  
HETATM   14  C   UNL     1     -13.253  11.571  71.720  1.00  0.00    -0.456 A  
HETATM   15  C   UNL     1     -12.875  10.265  72.018  1.00  0.00    -0.457 A  
HETATM   16  C   UNL     1     -11.833   9.660  71.312  1.00  0.00    -0.460 A  
ENDBRANCH  10  11
ENDBRANCH   5  10
TORSDOF 2
ENDMDL
MODEL      173
REMARK 921   NORMALIZED FREE ENERGY PREDICTED BY IDOCK:   -3.12 KCAL/MOL
REMARK 922        TOTAL FREE ENERGY PREDICTED BY IDOCK:   -3.66 KCAL/MOL
REMARK 923 INTER-LIGAND FREE ENERGY PREDICTED BY IDOCK:   -3.48 KCAL/MOL
REMARK 924 INTRA-LIGAND FREE ENERGY PREDICTED BY IDOCK:   -0.17 KCAL/MOL
REMARK 927      BINDING AFFINITY PREDICTED BY RF-SCORE:    0.00 PKD
ROOT
HETATM    1  C   UNL     1      -6.929   9.740  63.744  1.00  0.00    -0.119 C  
HETATM    2  N   UNL     1      -7.060   9.313  65.112  1.00  0.00    -0.088 NA 
HETATM    3  H   UNL     1      -6.500   8.503  65.377  1.00  0.00     0.000 HD 
HETATM    4  C   UNL     1      -7.832   9.845  66.103  1.00  0.00    -0.110 C  
HETATM    5  N   UNL     1      -8.388  11.054  65.797  1.00  0.00    -0.293 NA 
HETATM    6  N   UNL     1      -8.052   9.295  67.246  1.00  0.00    -0.112 NA 
HETATM    7  C   UNL     1      -7.426   8.027  67.571  1.00  0.00    -0.097 C  
HETATM    8  H   UNL     1      -8.325  11.395  64.837  1.00  0.00     0.000 HD 
HETATM    9  H   UNL     1      -8.665   9.749  67.923  1.00  0.00     0.000 HD 
ENDROOT
BRANCH   5  10
HETATM   10  C   UNL     1      -9.064  11.873  66.788  1.00  0.00    -0.197 C  
BRANCH  10  11
HETATM   11  C   UNL     1     -10.372  12.487  66.320  1.00  0.00    -0.269 A  
HETATM   12  C   UNL     1     -11.139  11.973  65.264  1.00  0.00    -0.367 A  
HETATM   13  C   UNL     1     -12.324  12.597  64.866  1.00  0.00    -0.563 A  
HETATM   14  C   UNL     1     -12.765  13.746  65.520  1.00  0.00    -0.530 A  
HETATM   15  C   UNL     1     -12.023  14.267  66.576  1.00  0.00    -0.448 A  
HETATM   16  C   UNL     1     -10.839  13.642  66.975  1.00  0.00    -0.291 A  
ENDBRANCH  10  11
ENDBRANCH   5  10
TORSDOF 2
ENDMDL
MODEL      174
REMARK 921   NORMALIZED FREE ENERGY PREDICTED BY IDOCK:   -3.12 KCAL/MOL
REMARK 922        TOTAL FREE ENERGY PREDICTED BY IDOCK:   -3.65 KCAL/MOL
REMARK 923 INTER-LIGAND FREE ENERGY PREDICTED BY IDOCK:   -3.43 KCAL/MOL
REMARK 924 INTRA-LIGAND FREE ENERGY PREDICTED BY IDOCK:   -0.22 KCAL/MOL
REMARK 927      BINDING AFFINITY PREDICTED BY RF-SCORE:    0.00 PKD
ROOT
HETATM    1  C   UNL     1     -10.604  11.063  64.287  1.00  0.00    -0.331 C  
HETATM    2  N   UNL     1     -11.166  11.940  65.280  1.00  0.00    -0.314 NA 
HETATM    3  H   UNL     1     -12.021  12.425  65.006  1.00  0.00     0.000 HD 
HETATM    4  C   UNL     1     -10.710  12.213  66.537  1.00  0.00    -0.255 C  
HETATM    5  N   UNL     1      -9.710  11.388  66.964  1.00  0.00    -0.189 NA 
HETATM    6  N   UNL     1     -11.150  13.155  67.295  1.00  0.00    -0.271 NA 
HETATM    7  C   UNL     1     -12.239  14.001  66.842  1.00  0.00    -0.380 C  
HETATM    8  H   UNL     1      -9.276  10.753  66.293  1.00  0.00     0.000 HD 
HETATM    9  H   UNL     1     -10.735  13.308  68.214  1.00  0.00     0.000 HD 
ENDROOT
BRANCH   5  10
HETATM   10  C   UNL     1      -9.240  11.382  68.339  1.00  0.00    -0.183 C  
BRANCH  10  11
HETATM   11  C   UNL     1      -9.752  10.226  69.181  1.00  0.00    -0.229 A  
HETATM   12  C   UNL     1      -9.151   8.959  69.210  1.00  0.00    -0.145 A  
HETATM   13  C   UNL     1      -9.684   7.930  69.991  1.00  0.00    -0.179 A  
HETATM   14  C   UNL     1     -10.826   8.150  70.757  1.00  0.00    -0.247 A  
HETATM   15  C   UNL     1     -11.432   9.403  70.749  1.00  0.00    -0.364 A  
HETATM   16  C   UNL     1     -10.899  10.433  69.970  1.00  0.00    -0.348 A  
ENDBRANCH  10  11
ENDBRANCH   5  10
TORSDOF 2
ENDMDL
MODEL      175
REMARK 921   NORMALIZED FREE ENERGY PREDICTED BY IDOCK:   -3.11 KCAL/MOL
REMARK 922        TOTAL FREE ENERGY PREDICTED BY IDOCK:   -3.65 KCAL/MOL
REMARK 923 INTER-LIGAND FREE ENERGY PREDICTED BY IDOCK:   -3.51 KCAL/MOL
REMARK 924 INTRA-LIGAND FREE ENERGY PREDICTED BY IDOCK:   -0.14 KCAL/MOL
REMARK 927      BINDING AFFINITY PREDICTED BY RF-SCORE:    0.00 PKD
ROOT
HETATM    1  C   UNL     1     -10.956   4.413  64.988  1.00  0.00    -0.005 C  
HETATM    2  N   UNL     1     -10.339   4.327  66.285  1.00  0.00    -0.404 NA 
HETATM    3  H   UNL     1      -9.939   3.420  66.523  1.00  0.00     0.000 HD 
HETATM    4  C   UNL     1     -10.217   5.294  67.240  1.00  0.00    -0.206 C  
HETATM    5  N   UNL     1     -10.546   6.549  66.816  1.00  0.00    -0.441 NA 
HETATM    6  N   UNL     1      -9.831   5.093  68.451  1.00  0.00    -0.147 NA 
HETATM    7  C   UNL     1      -9.449   3.759  68.878  1.00  0.00    -0.153 C  
HETATM    8  H   UNL     1     -10.993   6.659  65.905  1.00  0.00     0.000 HD 
HETATM    9  H   UNL     1      -9.793   5.870  69.111  1.00  0.00     0.000 HD 
ENDROOT
BRANCH   5  10
HETATM   10  C   UNL     1     -10.285   7.734  67.615  1.00  0.00    -0.219 C  
BRANCH  10  11
HETATM   11  C   UNL     1     -10.260   9.036  66.833  1.00  0.00    -0.339 A  
HETATM   12  C   UNL     1      -9.624   9.185  65.591  1.00  0.00    -0.287 A  
HETATM   13  C   UNL     1      -9.619  10.416  64.930  1.00  0.00    -0.348 A  
HETATM   14  C   UNL     1     -10.251  11.519  65.499  1.00  0.00    -0.303 A  
HETATM   15  C   UNL     1     -10.896  11.390  66.726  1.00  0.00    -0.336 A  
HETATM   16  C   UNL     1     -10.902  10.159  67.386  1.00  0.00    -0.323 A  
ENDBRANCH  10  11
ENDBRANCH   5  10
TORSDOF 2
ENDMDL
MODEL      176
REMARK 921   NORMALIZED FREE ENERGY PREDICTED BY IDOCK:   -3.10 KCAL/MOL
REMARK 922        TOTAL FREE ENERGY PREDICTED BY IDOCK:   -3.63 KCAL/MOL
REMARK 923 INTER-LIGAND FREE ENERGY PREDICTED BY IDOCK:   -3.48 KCAL/MOL
REMARK 924 INTRA-LIGAND FREE ENERGY PREDICTED BY IDOCK:   -0.15 KCAL/MOL
REMARK 927      BINDING AFFINITY PREDICTED BY RF-SCORE:    0.00 PKD
ROOT
HETATM    1  C   UNL     1      -9.610   4.358  69.152  1.00  0.00    -0.181 C  
HETATM    2  N   UNL     1     -10.004   4.711  70.490  1.00  0.00    -0.228 NA 
HETATM    3  H   UNL     1      -9.836   3.999  71.201  1.00  0.00     0.000 HD 
HETATM    4  C   UNL     1     -10.572   5.868  70.937  1.00  0.00    -0.256 C  
HETATM    5  N   UNL     1     -10.573   6.884  70.026  1.00  0.00    -0.217 NA 
HETATM    6  N   UNL     1     -11.078   6.039  72.109  1.00  0.00    -0.265 NA 
HETATM    7  C   UNL     1     -11.037   4.962  73.080  1.00  0.00    -0.322 C  
HETATM    8  H   UNL     1     -10.308   6.679  69.061  1.00  0.00     0.000 HD 
HETATM    9  H   UNL     1     -11.508   6.931  72.354  1.00  0.00     0.000 HD 
ENDROOT
BRANCH   5  10
HETATM   10  C   UNL     1     -10.939   8.245  70.377  1.00  0.00    -0.239 C  
BRANCH  10  11
HETATM   11  C   UNL     1     -10.895   9.233  69.225  1.00  0.00    -0.170 A  
HETATM   12  C   UNL     1     -11.407  10.537  69.298  1.00  0.00    -0.325 A  
HETATM   13  C   UNL     1     -11.354  11.393  68.194  1.00  0.00    -0.374 A  
HETATM   14  C   UNL     1     -10.786  10.959  66.998  1.00  0.00    -0.323 A  
HETATM   15  C   UNL     1     -10.265   9.672  66.907  1.00  0.00    -0.304 A  
HETATM   16  C   UNL     1     -10.316   8.817  68.012  1.00  0.00    -0.273 A  
ENDBRANCH  10  11
ENDBRANCH   5  10
TORSDOF 2
ENDMDL
MODEL      177
REMARK 921   NORMALIZED FREE ENERGY PREDICTED BY IDOCK:   -3.09 KCAL/MOL
REMARK 922        TOTAL FREE ENERGY PREDICTED BY IDOCK:   -3.62 KCAL/MOL
REMARK 923 INTER-LIGAND FREE ENERGY PREDICTED BY IDOCK:   -3.45 KCAL/MOL
REMARK 924 INTRA-LIGAND FREE ENERGY PREDICTED BY IDOCK:   -0.17 KCAL/MOL
REMARK 927      BINDING AFFINITY PREDICTED BY RF-SCORE:    0.00 PKD
ROOT
HETATM    1  C   UNL     1      -8.687   8.653  65.195  1.00  0.00    -0.144 C  
HETATM    2  N   UNL     1      -9.666   9.352  65.984  1.00  0.00    -0.258 NA 
HETATM    3  H   UNL     1      -9.789  10.340  65.759  1.00  0.00     0.000 HD 
HETATM    4  C   UNL     1     -10.452   8.874  66.991  1.00  0.00    -0.256 C  
HETATM    5  N   UNL     1     -10.441   7.515  67.118  1.00  0.00    -0.309 NA 
HETATM    6  N   UNL     1     -11.161   9.600  67.784  1.00  0.00    -0.471 NA 
HETATM    7  C   UNL     1     -11.191  11.041  67.615  1.00  0.00    -0.305 C  
HETATM    8  H   UNL     1      -9.759   6.977  66.582  1.00  0.00     0.000 HD 
HETATM    9  H   UNL     1     -11.701   9.163  68.531  1.00  0.00     0.000 HD 
ENDROOT
BRANCH   5  10
HETATM   10  C   UNL     1     -11.366   6.807  67.987  1.00  0.00     0.085 C  
BRANCH  10  11
HETATM   11  C   UNL     1     -10.707   5.925  69.033  1.00  0.00    -0.379 A  
HETATM   12  C   UNL     1      -9.878   4.837  68.722  1.00  0.00    -0.218 A  
HETATM   13  C   UNL     1      -9.317   4.050  69.732  1.00  0.00    -0.242 A  
HETATM   14  C   UNL     1      -9.574   4.339  71.070  1.00  0.00    -0.253 A  
HETATM   15  C   UNL     1     -10.386   5.420  71.400  1.00  0.00    -0.294 A  
HETATM   16  C   UNL     1     -10.946   6.208  70.390  1.00  0.00    -0.404 A  
ENDBRANCH  10  11
ENDBRANCH   5  10
TORSDOF 2
ENDMDL
MODEL      178
REMARK 921   NORMALIZED FREE ENERGY PREDICTED BY IDOCK:   -3.09 KCAL/MOL
REMARK 922        TOTAL FREE ENERGY PREDICTED BY IDOCK:   -3.62 KCAL/MOL
REMARK 923 INTER-LIGAND FREE ENERGY PREDICTED BY IDOCK:   -3.47 KCAL/MOL
REMARK 924 INTRA-LIGAND FREE ENERGY PREDICTED BY IDOCK:   -0.15 KCAL/MOL
REMARK 927      BINDING AFFINITY PREDICTED BY RF-SCORE:    0.00 PKD
ROOT
HETATM    1  C   UNL     1     -13.500   9.047  72.267  1.00  0.00    -0.475 C  
HETATM    2  N   UNL     1     -12.316   8.256  72.471  1.00  0.00    -0.557 NA 
HETATM    3  H   UNL     1     -12.384   7.539  73.193  1.00  0.00     0.000 HD 
HETATM    4  C   UNL     1     -11.114   8.334  71.829  1.00  0.00    -0.278 C  
HETATM    5  N   UNL     1     -11.119   9.130  70.720  1.00  0.00    -0.257 NA 
HETATM    6  N   UNL     1     -10.038   7.730  72.196  1.00  0.00    -0.198 NA 
HETATM    7  C   UNL     1     -10.058   6.858  73.356  1.00  0.00    -0.259 C  
HETATM    8  H   UNL     1     -11.935   9.715  70.538  1.00  0.00     0.000 HD 
HETATM    9  H   UNL     1      -9.173   7.864  71.673  1.00  0.00     0.000 HD 
ENDROOT
BRANCH   5  10
HETATM   10  C   UNL     1     -10.003   9.175  69.790  1.00  0.00    -0.193 C  
BRANCH  10  11
HETATM   11  C   UNL     1      -9.798  10.517  69.109  1.00  0.00    -0.233 A  
HETATM   12  C   UNL     1     -10.826  11.447  68.895  1.00  0.00    -0.259 A  
HETATM   13  C   UNL     1     -10.577  12.657  68.242  1.00  0.00    -0.250 A  
HETATM   14  C   UNL     1      -9.293  12.960  67.794  1.00  0.00    -0.203 A  
HETATM   15  C   UNL     1      -8.256  12.055  68.005  1.00  0.00    -0.156 A  
HETATM   16  C   UNL     1      -8.505  10.846  68.659  1.00  0.00    -0.152 A  
ENDBRANCH  10  11
ENDBRANCH   5  10
TORSDOF 2
ENDMDL
MODEL      179
REMARK 921   NORMALIZED FREE ENERGY PREDICTED BY IDOCK:   -3.06 KCAL/MOL
REMARK 922        TOTAL FREE ENERGY PREDICTED BY IDOCK:   -3.59 KCAL/MOL
REMARK 923 INTER-LIGAND FREE ENERGY PREDICTED BY IDOCK:   -3.44 KCAL/MOL
REMARK 924 INTRA-LIGAND FREE ENERGY PREDICTED BY IDOCK:   -0.15 KCAL/MOL
REMARK 927      BINDING AFFINITY PREDICTED BY RF-SCORE:    0.00 PKD
ROOT
HETATM    1  C   UNL     1     -13.538   8.874  72.297  1.00  0.00    -0.462 C  
HETATM    2  N   UNL     1     -12.589   7.870  72.699  1.00  0.00    -0.569 NA 
HETATM    3  H   UNL     1     -12.728   7.480  73.631  1.00  0.00     0.000 HD 
HETATM    4  C   UNL     1     -11.529   7.368  72.002  1.00  0.00    -0.273 C  
HETATM    5  N   UNL     1     -11.498   7.727  70.686  1.00  0.00    -0.341 NA 
HETATM    6  N   UNL     1     -10.607   6.617  72.497  1.00  0.00    -0.209 NA 
HETATM    7  C   UNL     1     -10.672   6.213  73.889  1.00  0.00    -0.115 C  
HETATM    8  H   UNL     1     -12.149   8.441  70.356  1.00  0.00     0.000 HD 
HETATM    9  H   UNL     1      -9.832   6.306  71.911  1.00  0.00     0.000 HD 
ENDROOT
BRANCH   5  10
HETATM   10  C   UNL     1     -10.574   7.130  69.737  1.00  0.00    -0.234 C  
BRANCH  10  11
HETATM   11  C   UNL     1     -10.333   7.951  68.482  1.00  0.00    -0.229 A  
HETATM   12  C   UNL     1     -10.948   9.186  68.230  1.00  0.00    -0.010 A  
HETATM   13  C   UNL     1     -10.699   9.883  67.045  1.00  0.00    -0.237 A  
HETATM   14  C   UNL     1      -9.829   9.358  66.092  1.00  0.00    -0.356 A  
HETATM   15  C   UNL     1      -9.202   8.138  66.327  1.00  0.00    -0.245 A  
HETATM   16  C   UNL     1      -9.449   7.442  67.513  1.00  0.00    -0.162 A  
ENDBRANCH  10  11
ENDBRANCH   5  10
TORSDOF 2
ENDMDL
MODEL      180
REMARK 921   NORMALIZED FREE ENERGY PREDICTED BY IDOCK:   -3.02 KCAL/MOL
REMARK 922        TOTAL FREE ENERGY PREDICTED BY IDOCK:   -3.55 KCAL/MOL
REMARK 923 INTER-LIGAND FREE ENERGY PREDICTED BY IDOCK:   -3.35 KCAL/MOL
REMARK 924 INTRA-LIGAND FREE ENERGY PREDICTED BY IDOCK:   -0.20 KCAL/MOL
REMARK 927      BINDING AFFINITY PREDICTED BY RF-SCORE:    0.00 PKD
ROOT
HETATM    1  C   UNL     1      -8.418   5.354  67.551  1.00  0.00    -0.106 C  
HETATM    2  N   UNL     1      -8.906   6.645  67.144  1.00  0.00    -0.114 NA 
HETATM    3  H   UNL     1      -9.165   6.728  66.161  1.00  0.00     0.000 HD 
HETATM    4  C   UNL     1      -9.068   7.773  67.894  1.00  0.00    -0.131 C  
HETATM    5  N   UNL     1      -8.940   7.578  69.239  1.00  0.00    -0.136 NA 
HETATM    6  N   UNL     1      -9.321   8.944  67.424  1.00  0.00    -0.134 NA 
HETATM    7  C   UNL     1      -9.491   9.129  65.994  1.00  0.00    -0.255 C  
HETATM    8  H   UNL     1      -8.591   6.680  69.575  1.00  0.00     0.000 HD 
HETATM    9  H   UNL     1      -9.401   9.742  68.054  1.00  0.00     0.000 HD 
ENDROOT
BRANCH   5  10
HETATM   10  C   UNL     1      -9.282   8.604  70.210  1.00  0.00    -0.166 C  
BRANCH  10  11
HETATM   11  C   UNL     1     -10.698   8.518  70.753  1.00  0.00    -0.254 A  
HETATM   12  C   UNL     1     -11.470   7.348  70.729  1.00  0.00    -0.313 A  
HETATM   13  C   UNL     1     -12.777   7.340  71.226  1.00  0.00    -0.400 A  
HETATM   14  C   UNL     1     -13.331   8.501  71.759  1.00  0.00    -0.396 A  
HETATM   15  C   UNL     1     -12.578   9.671  71.800  1.00  0.00    -0.497 A  
HETATM   16  C   UNL     1     -11.271   9.679  71.304  1.00  0.00    -0.446 A  
ENDBRANCH  10  11
ENDBRANCH   5  10
TORSDOF 2
ENDMDL
MODEL      181
REMARK 921   NORMALIZED FREE ENERGY PREDICTED BY IDOCK:   -2.99 KCAL/MOL
REMARK 922        TOTAL FREE ENERGY PREDICTED BY IDOCK:   -3.51 KCAL/MOL
REMARK 923 INTER-LIGAND FREE ENERGY PREDICTED BY IDOCK:   -3.37 KCAL/MOL
REMARK 924 INTRA-LIGAND FREE ENERGY PREDICTED BY IDOCK:   -0.14 KCAL/MOL
REMARK 927      BINDING AFFINITY PREDICTED BY RF-SCORE:    0.00 PKD
ROOT
HETATM    1  C   UNL     1     -11.625  10.817  69.838  1.00  0.00    -0.331 C  
HETATM    2  N   UNL     1     -12.517   9.809  70.346  1.00  0.00    -0.495 NA 
HETATM    3  H   UNL     1     -13.469  10.120  70.538  1.00  0.00     0.000 HD 
HETATM    4  C   UNL     1     -12.263   8.494  70.604  1.00  0.00     0.102 C  
HETATM    5  N   UNL     1     -11.065   8.047  70.126  1.00  0.00    -0.359 NA 
HETATM    6  N   UNL     1     -13.051   7.699  71.242  1.00  0.00    -0.525 NA 
HETATM    7  C   UNL     1     -14.337   8.179  71.713  1.00  0.00    -0.484 C  
HETATM    8  H   UNL     1     -10.397   8.727  69.762  1.00  0.00     0.000 HD 
HETATM    9  H   UNL     1     -12.771   6.734  71.416  1.00  0.00     0.000 HD 
ENDROOT
BRANCH   5  10
HETATM   10  C   UNL     1     -10.708   6.639  70.116  1.00  0.00    -0.239 C  
BRANCH  10  11
HETATM   11  C   UNL     1     -10.069   6.136  71.399  1.00  0.00    -0.230 A  
HETATM   12  C   UNL     1     -10.538   5.027  72.119  1.00  0.00    -0.259 A  
HETATM   13  C   UNL     1      -9.917   4.627  73.306  1.00  0.00    -0.184 A  
HETATM   14  C   UNL     1      -8.816   5.327  73.792  1.00  0.00    -0.118 A  
HETATM   15  C   UNL     1      -8.329   6.425  73.087  1.00  0.00    -0.115 A  
HETATM   16  C   UNL     1      -8.949   6.824  71.900  1.00  0.00    -0.135 A  
ENDBRANCH  10  11
ENDBRANCH   5  10
TORSDOF 2
ENDMDL
MODEL      182
REMARK 921   NORMALIZED FREE ENERGY PREDICTED BY IDOCK:   -2.99 KCAL/MOL
REMARK 922        TOTAL FREE ENERGY PREDICTED BY IDOCK:   -3.51 KCAL/MOL
REMARK 923 INTER-LIGAND FREE ENERGY PREDICTED BY IDOCK:   -3.30 KCAL/MOL
REMARK 924 INTRA-LIGAND FREE ENERGY PREDICTED BY IDOCK:   -0.21 KCAL/MOL
REMARK 927      BINDING AFFINITY PREDICTED BY RF-SCORE:    0.00 PKD
ROOT
HETATM    1  C   UNL     1      -6.267   8.585  72.446  1.00  0.00    -0.072 C  
HETATM    2  N   UNL     1      -6.842   7.678  71.488  1.00  0.00    -0.049 NA 
HETATM    3  H   UNL     1      -6.178   7.087  70.988  1.00  0.00     0.000 HD 
HETATM    4  C   UNL     1      -8.154   7.502  71.158  1.00  0.00    -0.100 C  
HETATM    5  N   UNL     1      -9.034   8.126  71.994  1.00  0.00    -0.157 NA 
HETATM    6  N   UNL     1      -8.579   6.816  70.154  1.00  0.00    -0.139 NA 
HETATM    7  C   UNL     1      -7.633   6.128  69.295  1.00  0.00    -0.098 C  
HETATM    8  H   UNL     1      -8.673   8.784  72.686  1.00  0.00     0.000 HD 
HETATM    9  H   UNL     1      -9.579   6.757  69.962  1.00  0.00     0.000 HD 
ENDROOT
BRANCH   5  10
HETATM   10  C   UNL     1     -10.466   7.888  71.934  1.00  0.00    -0.228 C  
BRANCH  10  11
HETATM   11  C   UNL     1     -11.301   9.113  71.601  1.00  0.00    -0.446 A  
HETATM   12  C   UNL     1     -12.527   9.409  72.214  1.00  0.00    -0.338 A  
HETATM   13  C   UNL     1     -13.258  10.542  71.848  1.00  0.00    -0.526 A  
HETATM   14  C   UNL     1     -12.774  11.401  70.864  1.00  0.00    -0.397 A  
HETATM   15  C   UNL     1     -11.554  11.131  70.250  1.00  0.00    -0.388 A  
HETATM   16  C   UNL     1     -10.823   9.998  70.617  1.00  0.00    -0.367 A  
ENDBRANCH  10  11
ENDBRANCH   5  10
TORSDOF 2
ENDMDL
MODEL      183
REMARK 921   NORMALIZED FREE ENERGY PREDICTED BY IDOCK:   -2.97 KCAL/MOL
REMARK 922        TOTAL FREE ENERGY PREDICTED BY IDOCK:   -3.49 KCAL/MOL
REMARK 923 INTER-LIGAND FREE ENERGY PREDICTED BY IDOCK:   -3.29 KCAL/MOL
REMARK 924 INTRA-LIGAND FREE ENERGY PREDICTED BY IDOCK:   -0.20 KCAL/MOL
REMARK 927      BINDING AFFINITY PREDICTED BY RF-SCORE:    0.00 PKD
ROOT
HETATM    1  C   UNL     1      -7.065   7.958  66.036  1.00  0.00    -0.062 C  
HETATM    2  N   UNL     1      -7.672   6.731  65.593  1.00  0.00    -0.096 NA 
HETATM    3  H   UNL     1      -7.089   6.139  65.001  1.00  0.00     0.000 HD 
HETATM    4  C   UNL     1      -8.921   6.250  65.858  1.00  0.00    -0.109 C  
HETATM    5  N   UNL     1      -9.593   6.934  66.831  1.00  0.00    -0.156 NA 
HETATM    6  N   UNL     1      -9.467   5.244  65.270  1.00  0.00    -0.358 NA 
HETATM    7  C   UNL     1      -8.727   4.504  64.264  1.00  0.00    -0.146 C  
HETATM    8  H   UNL     1      -9.204   7.814  67.171  1.00  0.00     0.000 HD 
HETATM    9  H   UNL     1     -10.418   4.966  65.510  1.00  0.00     0.000 HD 
ENDROOT
BRANCH   5  10
HETATM   10  C   UNL     1     -10.841   6.454  67.398  1.00  0.00    -0.375 C  
BRANCH  10  11
HETATM   11  C   UNL     1     -10.761   6.048  68.860  1.00  0.00    -0.384 A  
HETATM   12  C   UNL     1     -11.532   6.635  69.873  1.00  0.00    -0.414 A  
HETATM   13  C   UNL     1     -11.397   6.232  71.204  1.00  0.00    -0.364 A  
HETATM   14  C   UNL     1     -10.488   5.232  71.544  1.00  0.00    -0.279 A  
HETATM   15  C   UNL     1      -9.720   4.630  70.552  1.00  0.00    -0.284 A  
HETATM   16  C   UNL     1      -9.856   5.032  69.221  1.00  0.00    -0.266 A  
ENDBRANCH  10  11
ENDBRANCH   5  10
TORSDOF 2
ENDMDL
MODEL      184
REMARK 921   NORMALIZED FREE ENERGY PREDICTED BY IDOCK:   -2.97 KCAL/MOL
REMARK 922        TOTAL FREE ENERGY PREDICTED BY IDOCK:   -3.49 KCAL/MOL
REMARK 923 INTER-LIGAND FREE ENERGY PREDICTED BY IDOCK:   -3.30 KCAL/MOL
REMARK 924 INTRA-LIGAND FREE ENERGY PREDICTED BY IDOCK:   -0.19 KCAL/MOL
REMARK 927      BINDING AFFINITY PREDICTED BY RF-SCORE:    0.00 PKD
ROOT
HETATM    1  C   UNL     1     -11.031   6.196  68.143  1.00  0.00    -0.307 C  
HETATM    2  N   UNL     1     -11.610   6.808  69.309  1.00  0.00    -0.623 NA 
HETATM    3  H   UNL     1     -12.489   7.303  69.157  1.00  0.00     0.000 HD 
HETATM    4  C   UNL     1     -11.144   6.816  70.592  1.00  0.00    -0.291 C  
HETATM    5  N   UNL     1     -10.104   5.961  70.818  1.00  0.00    -0.191 NA 
HETATM    6  N   UNL     1     -11.609   7.548  71.544  1.00  0.00    -0.264 NA 
HETATM    7  C   UNL     1     -12.738   8.425  71.297  1.00  0.00    -0.195 C  
HETATM    8  H   UNL     1      -9.656   5.509  70.020  1.00  0.00     0.000 HD 
HETATM    9  H   UNL     1     -11.183   7.512  72.470  1.00  0.00     0.000 HD 
ENDROOT
BRANCH   5  10
HETATM   10  C   UNL     1      -9.610   5.673  72.154  1.00  0.00    -0.149 C  
BRANCH  10  11
HETATM   11  C   UNL     1      -9.970   4.294  72.680  1.00  0.00    -0.210 A  
HETATM   12  C   UNL     1     -10.348   4.043  74.008  1.00  0.00    -0.249 A  
HETATM   13  C   UNL     1     -10.647   2.746  74.436  1.00  0.00    -0.195 A  
HETATM   14  C   UNL     1     -10.576   1.679  73.543  1.00  0.00    -0.201 A  
HETATM   15  C   UNL     1     -10.212   1.909  72.219  1.00  0.00    -0.231 A  
HETATM   16  C   UNL     1      -9.914   3.205  71.791  1.00  0.00    -0.192 A  
ENDBRANCH  10  11
ENDBRANCH   5  10
TORSDOF 2
ENDMDL
MODEL      185
REMARK 921   NORMALIZED FREE ENERGY PREDICTED BY IDOCK:   -2.96 KCAL/MOL
REMARK 922        TOTAL FREE ENERGY PREDICTED BY IDOCK:   -3.48 KCAL/MOL
REMARK 923 INTER-LIGAND FREE ENERGY PREDICTED BY IDOCK:   -3.35 KCAL/MOL
REMARK 924 INTRA-LIGAND FREE ENERGY PREDICTED BY IDOCK:   -0.13 KCAL/MOL
REMARK 927      BINDING AFFINITY PREDICTED BY RF-SCORE:    0.00 PKD
ROOT
HETATM    1  C   UNL     1      -6.843   9.915  68.935  1.00  0.00    -0.057 C  
HETATM    2  N   UNL     1      -7.864   9.590  69.896  1.00  0.00    -0.119 NA 
HETATM    3  H   UNL     1      -7.566   9.004  70.675  1.00  0.00     0.000 HD 
HETATM    4  C   UNL     1      -9.177   9.961  69.906  1.00  0.00    -0.212 C  
HETATM    5  N   UNL     1      -9.498  10.925  68.995  1.00  0.00    -0.328 NA 
HETATM    6  N   UNL     1     -10.078   9.473  70.687  1.00  0.00    -0.282 NA 
HETATM    7  C   UNL     1      -9.715   8.475  71.676  1.00  0.00    -0.252 C  
HETATM    8  H   UNL     1      -8.807  11.183  68.289  1.00  0.00     0.000 HD 
HETATM    9  H   UNL     1     -11.045   9.788  70.611  1.00  0.00     0.000 HD 
ENDROOT
BRANCH   5  10
HETATM   10  C   UNL     1     -10.786  11.597  68.992  1.00  0.00    -0.203 C  
BRANCH  10  11
HETATM   11  C   UNL     1     -10.970  12.615  67.881  1.00  0.00    -0.262 A  
HETATM   12  C   UNL     1     -11.940  12.500  66.873  1.00  0.00    -0.306 A  
HETATM   13  C   UNL     1     -12.044  13.462  65.864  1.00  0.00    -0.486 A  
HETATM   14  C   UNL     1     -11.183  14.557  65.848  1.00  0.00    -0.331 A  
HETATM   15  C   UNL     1     -10.221  14.694  66.843  1.00  0.00    -0.262 A  
HETATM   16  C   UNL     1     -10.117  13.733  67.853  1.00  0.00    -0.246 A  
ENDBRANCH  10  11
ENDBRANCH   5  10
TORSDOF 2
ENDMDL
MODEL      186
REMARK 921   NORMALIZED FREE ENERGY PREDICTED BY IDOCK:   -2.94 KCAL/MOL
REMARK 922        TOTAL FREE ENERGY PREDICTED BY IDOCK:   -3.46 KCAL/MOL
REMARK 923 INTER-LIGAND FREE ENERGY PREDICTED BY IDOCK:   -3.32 KCAL/MOL
REMARK 924 INTRA-LIGAND FREE ENERGY PREDICTED BY IDOCK:   -0.14 KCAL/MOL
REMARK 927      BINDING AFFINITY PREDICTED BY RF-SCORE:    0.00 PKD
ROOT
HETATM    1  C   UNL     1      -9.702  10.249  69.723  1.00  0.00    -0.144 C  
HETATM    2  N   UNL     1     -10.889   9.826  70.417  1.00  0.00    -0.287 NA 
HETATM    3  H   UNL     1     -11.505  10.574  70.735  1.00  0.00     0.000 HD 
HETATM    4  C   UNL     1     -11.303   8.559  70.710  1.00  0.00    -0.266 C  
HETATM    5  N   UNL     1     -10.595   7.576  70.081  1.00  0.00    -0.230 NA 
HETATM    6  N   UNL     1     -12.271   8.261  71.504  1.00  0.00    -0.293 NA 
HETATM    7  C   UNL     1     -13.038   9.318  72.138  1.00  0.00    -0.443 C  
HETATM    8  H   UNL     1      -9.742   7.828  69.580  1.00  0.00     0.000 HD 
HETATM    9  H   UNL     1     -12.499   7.284  71.689  1.00  0.00     0.000 HD 
ENDROOT
BRANCH   5  10
HETATM   10  C   UNL     1     -11.012   6.184  70.097  1.00  0.00    -0.358 C  
BRANCH  10  11
HETATM   11  C   UNL     1     -10.561   5.371  68.896  1.00  0.00    -0.197 A  
HETATM   12  C   UNL     1     -10.904   5.683  67.572  1.00  0.00    -0.189 A  
HETATM   13  C   UNL     1     -10.474   4.882  66.511  1.00  0.00    -0.299 A  
HETATM   14  C   UNL     1      -9.692   3.755  66.755  1.00  0.00    -0.149 A  
HETATM   15  C   UNL     1      -9.333   3.433  68.061  1.00  0.00    -0.241 A  
HETATM   16  C   UNL     1      -9.762   4.235  69.122  1.00  0.00    -0.226 A  
ENDBRANCH  10  11
ENDBRANCH   5  10
TORSDOF 2
ENDMDL
MODEL      187
REMARK 921   NORMALIZED FREE ENERGY PREDICTED BY IDOCK:   -2.93 KCAL/MOL
REMARK 922        TOTAL FREE ENERGY PREDICTED BY IDOCK:   -3.45 KCAL/MOL
REMARK 923 INTER-LIGAND FREE ENERGY PREDICTED BY IDOCK:   -3.31 KCAL/MOL
REMARK 924 INTRA-LIGAND FREE ENERGY PREDICTED BY IDOCK:   -0.14 KCAL/MOL
REMARK 927      BINDING AFFINITY PREDICTED BY RF-SCORE:    0.00 PKD
ROOT
HETATM    1  C   UNL     1      -7.735   9.607  63.884  1.00  0.00    -0.131 C  
HETATM    2  N   UNL     1      -8.714  10.621  64.175  1.00  0.00    -0.277 NA 
HETATM    3  H   UNL     1      -8.853  11.321  63.446  1.00  0.00     0.000 HD 
HETATM    4  C   UNL     1      -9.481  10.773  65.293  1.00  0.00    -0.218 C  
HETATM    5  N   UNL     1      -9.450   9.708  66.146  1.00  0.00    -0.198 NA 
HETATM    6  N   UNL     1     -10.190  11.812  65.569  1.00  0.00    -0.242 NA 
HETATM    7  C   UNL     1     -10.241  12.922  64.635  1.00  0.00    -0.298 C  
HETATM    8  H   UNL     1      -8.768   8.967  65.983  1.00  0.00     0.000 HD 
HETATM    9  H   UNL     1     -10.715  11.856  66.442  1.00  0.00     0.000 HD 
ENDROOT
BRANCH   5  10
HETATM   10  C   UNL     1     -10.355   9.591  67.278  1.00  0.00    -0.255 C  
BRANCH  10  11
HETATM   11  C   UNL     1     -10.340   8.237  67.966  1.00  0.00    -0.268 A  
HETATM   12  C   UNL     1     -10.132   8.066  69.342  1.00  0.00    -0.197 A  
HETATM   13  C   UNL     1     -10.109   6.790  69.912  1.00  0.00    -0.195 A  
HETATM   14  C   UNL     1     -10.296   5.663  69.115  1.00  0.00    -0.328 A  
HETATM   15  C   UNL     1     -10.512   5.811  67.748  1.00  0.00    -0.289 A  
HETATM   16  C   UNL     1     -10.537   7.087  67.179  1.00  0.00    -0.412 A  
ENDBRANCH  10  11
ENDBRANCH   5  10
TORSDOF 2
ENDMDL
MODEL      188
REMARK 921   NORMALIZED FREE ENERGY PREDICTED BY IDOCK:   -2.93 KCAL/MOL
REMARK 922        TOTAL FREE ENERGY PREDICTED BY IDOCK:   -3.44 KCAL/MOL
REMARK 923 INTER-LIGAND FREE ENERGY PREDICTED BY IDOCK:   -3.23 KCAL/MOL
REMARK 924 INTRA-LIGAND FREE ENERGY PREDICTED BY IDOCK:   -0.21 KCAL/MOL
REMARK 927      BINDING AFFINITY PREDICTED BY RF-SCORE:    0.00 PKD
ROOT
HETATM    1  C   UNL     1      -6.821  20.071  65.017  1.00  0.00    -0.201 C  
HETATM    2  N   UNL     1      -8.078  19.914  65.699  1.00  0.00    -0.469 NA 
HETATM    3  H   UNL     1      -8.696  20.725  65.677  1.00  0.00     0.000 HD 
HETATM    4  C   UNL     1      -8.555  18.827  66.372  1.00  0.00    -0.284 C  
HETATM    5  N   UNL     1      -7.824  17.688  66.193  1.00  0.00    -0.455 NA 
HETATM    6  N   UNL     1      -9.599  18.823  67.125  1.00  0.00    -0.294 NA 
HETATM    7  C   UNL     1     -10.387  20.032  67.277  1.00  0.00    -0.410 C  
HETATM    8  H   UNL     1      -6.922  17.752  65.720  1.00  0.00     0.000 HD 
HETATM    9  H   UNL     1      -9.873  17.971  67.615  1.00  0.00     0.000 HD 
ENDROOT
BRANCH   5  10
HETATM   10  C   UNL     1      -8.283  16.388  66.652  1.00  0.00    -0.278 C  
BRANCH  10  11
HETATM   11  C   UNL     1      -7.411  15.745  67.717  1.00  0.00    -0.167 A  
HETATM   12  C   UNL     1      -6.715  16.471  68.695  1.00  0.00    -0.152 A  
HETATM   13  C   UNL     1      -5.911  15.820  69.635  1.00  0.00    -0.135 A  
HETATM   14  C   UNL     1      -5.791  14.433  69.614  1.00  0.00    -0.105 A  
HETATM   15  C   UNL     1      -6.480  13.693  68.658  1.00  0.00    -0.094 A  
HETATM   16  C   UNL     1      -7.286  14.344  67.718  1.00  0.00    -0.188 A  
ENDBRANCH  10  11
ENDBRANCH   5  10
TORSDOF 2
ENDMDL
MODEL      189
REMARK 921   NORMALIZED FREE ENERGY PREDICTED BY IDOCK:   -2.90 KCAL/MOL
REMARK 922        TOTAL FREE ENERGY PREDICTED BY IDOCK:   -3.41 KCAL/MOL
REMARK 923 INTER-LIGAND FREE ENERGY PREDICTED BY IDOCK:   -3.22 KCAL/MOL
REMARK 924 INTRA-LIGAND FREE ENERGY PREDICTED BY IDOCK:   -0.19 KCAL/MOL
REMARK 927      BINDING AFFINITY PREDICTED BY RF-SCORE:    0.00 PKD
ROOT
HETATM    1  C   UNL     1      -6.904  11.286  69.332  1.00  0.00    -0.121 C  
HETATM    2  N   UNL     1      -7.911  11.234  68.306  1.00  0.00    -0.126 NA 
HETATM    3  H   UNL     1      -7.576  11.369  67.353  1.00  0.00     0.000 HD 
HETATM    4  C   UNL     1      -9.254  11.028  68.437  1.00  0.00    -0.175 C  
HETATM    5  N   UNL     1      -9.643  10.621  69.680  1.00  0.00    -0.431 NA 
HETATM    6  N   UNL     1     -10.121  11.190  67.499  1.00  0.00    -0.181 NA 
HETATM    7  C   UNL     1      -9.688  11.587  66.173  1.00  0.00    -0.223 C  
HETATM    8  H   UNL     1      -8.964  10.647  70.441  1.00  0.00     0.000 HD 
HETATM    9  H   UNL     1     -11.112  11.039  67.688  1.00  0.00     0.000 HD 
ENDROOT
BRANCH   5  10
HETATM   10  C   UNL     1     -10.990  10.152  69.959  1.00  0.00    -0.307 C  
BRANCH  10  11
HETATM   11  C   UNL     1     -11.066   8.762  70.567  1.00  0.00    -0.278 A  
HETATM   12  C   UNL     1     -12.238   8.212  71.108  1.00  0.00    -0.257 A  
HETATM   13  C   UNL     1     -12.237   6.934  71.672  1.00  0.00    -0.403 A  
HETATM   14  C   UNL     1     -11.065   6.182  71.703  1.00  0.00    -0.330 A  
HETATM   15  C   UNL     1      -9.894   6.705  71.163  1.00  0.00    -0.195 A  
HETATM   16  C   UNL     1      -9.894   7.983  70.597  1.00  0.00    -0.192 A  
ENDBRANCH  10  11
ENDBRANCH   5  10
TORSDOF 2
ENDMDL
MODEL      190
REMARK 921   NORMALIZED FREE ENERGY PREDICTED BY IDOCK:   -2.89 KCAL/MOL
REMARK 922        TOTAL FREE ENERGY PREDICTED BY IDOCK:   -3.40 KCAL/MOL
REMARK 923 INTER-LIGAND FREE ENERGY PREDICTED BY IDOCK:   -3.25 KCAL/MOL
REMARK 924 INTRA-LIGAND FREE ENERGY PREDICTED BY IDOCK:   -0.16 KCAL/MOL
REMARK 927      BINDING AFFINITY PREDICTED BY RF-SCORE:    0.00 PKD
ROOT
HETATM    1  C   UNL     1      -9.581   4.195  69.230  1.00  0.00    -0.186 C  
HETATM    2  N   UNL     1      -9.773   4.239  67.804  1.00  0.00    -0.152 NA 
HETATM    3  H   UNL     1      -9.818   3.333  67.337  1.00  0.00     0.000 HD 
HETATM    4  C   UNL     1      -9.901   5.328  66.992  1.00  0.00    -0.167 C  
HETATM    5  N   UNL     1     -10.071   6.508  67.656  1.00  0.00    -0.135 NA 
HETATM    6  N   UNL     1      -9.871   5.299  65.705  1.00  0.00    -0.343 NA 
HETATM    7  C   UNL     1      -9.727   4.032  65.013  1.00  0.00    -0.195 C  
HETATM    8  H   UNL     1      -9.939   6.527  68.668  1.00  0.00     0.000 HD 
HETATM    9  H   UNL     1      -9.949   6.166  65.173  1.00  0.00     0.000 HD 
ENDROOT
BRANCH   5  10
HETATM   10  C   UNL     1     -10.433   7.740  66.974  1.00  0.00    -0.349 C  
BRANCH  10  11
HETATM   11  C   UNL     1     -10.649   8.933  67.889  1.00  0.00    -0.244 A  
HETATM   12  C   UNL     1     -11.015  10.207  67.431  1.00  0.00    -0.295 A  
HETATM   13  C   UNL     1     -11.179  11.271  68.323  1.00  0.00    -0.331 A  
HETATM   14  C   UNL     1     -10.982  11.077  69.688  1.00  0.00    -0.286 A  
HETATM   15  C   UNL     1     -10.628   9.818  70.164  1.00  0.00    -0.337 A  
HETATM   16  C   UNL     1     -10.465   8.754  69.272  1.00  0.00    -0.228 A  
ENDBRANCH  10  11
ENDBRANCH   5  10
TORSDOF 2
ENDMDL
MODEL      191
REMARK 921   NORMALIZED FREE ENERGY PREDICTED BY IDOCK:   -2.88 KCAL/MOL
REMARK 922        TOTAL FREE ENERGY PREDICTED BY IDOCK:   -3.39 KCAL/MOL
REMARK 923 INTER-LIGAND FREE ENERGY PREDICTED BY IDOCK:   -3.23 KCAL/MOL
REMARK 924 INTRA-LIGAND FREE ENERGY PREDICTED BY IDOCK:   -0.16 KCAL/MOL
REMARK 927      BINDING AFFINITY PREDICTED BY RF-SCORE:    0.00 PKD
ROOT
HETATM    1  C   UNL     1      -9.347   9.455  70.383  1.00  0.00    -0.268 C  
HETATM    2  N   UNL     1     -10.436   8.565  70.689  1.00  0.00    -0.197 NA 
HETATM    3  H   UNL     1     -10.837   8.663  71.622  1.00  0.00     0.000 HD 
HETATM    4  C   UNL     1     -11.005   7.608  69.901  1.00  0.00    -0.200 C  
HETATM    5  N   UNL     1     -10.617   7.651  68.593  1.00  0.00    -0.331 NA 
HETATM    6  N   UNL     1     -11.842   6.717  70.306  1.00  0.00    -0.582 NA 
HETATM    7  C   UNL     1     -12.274   6.706  71.691  1.00  0.00    -0.352 C  
HETATM    8  H   UNL     1      -9.844   8.263  68.330  1.00  0.00     0.000 HD 
HETATM    9  H   UNL     1     -12.201   6.019  69.654  1.00  0.00     0.000 HD 
ENDROOT
BRANCH   5  10
HETATM   10  C   UNL     1     -11.264   6.857  67.562  1.00  0.00    -0.116 C  
BRANCH  10  11
HETATM   11  C   UNL     1     -10.313   6.187  66.586  1.00  0.00    -0.249 A  
HETATM   12  C   UNL     1     -10.472   4.871  66.125  1.00  0.00    -0.346 A  
HETATM   13  C   UNL     1      -9.549   4.304  65.242  1.00  0.00    -0.186 A  
HETATM   14  C   UNL     1      -8.453   5.043  64.802  1.00  0.00    -0.148 A  
HETATM   15  C   UNL     1      -8.283   6.353  65.240  1.00  0.00    -0.137 A  
HETATM   16  C   UNL     1      -9.206   6.921  66.123  1.00  0.00    -0.118 A  
ENDBRANCH  10  11
ENDBRANCH   5  10
TORSDOF 2
ENDMDL
MODEL      192
REMARK 921   NORMALIZED FREE ENERGY PREDICTED BY IDOCK:   -2.85 KCAL/MOL
REMARK 922        TOTAL FREE ENERGY PREDICTED BY IDOCK:   -3.35 KCAL/MOL
REMARK 923 INTER-LIGAND FREE ENERGY PREDICTED BY IDOCK:   -3.16 KCAL/MOL
REMARK 924 INTRA-LIGAND FREE ENERGY PREDICTED BY IDOCK:   -0.19 KCAL/MOL
REMARK 927      BINDING AFFINITY PREDICTED BY RF-SCORE:    0.00 PKD
ROOT
HETATM    1  C   UNL     1     -12.503  12.716  64.664  1.00  0.00    -0.466 C  
HETATM    2  N   UNL     1     -12.363  12.932  66.080  1.00  0.00    -0.534 NA 
HETATM    3  H   UNL     1     -12.925  13.689  66.468  1.00  0.00     0.000 HD 
HETATM    4  C   UNL     1     -11.580  12.260  66.973  1.00  0.00    -0.349 C  
HETATM    5  N   UNL     1     -11.021  11.115  66.484  1.00  0.00    -0.249 NA 
HETATM    6  N   UNL     1     -11.354  12.632  68.185  1.00  0.00    -0.268 NA 
HETATM    7  C   UNL     1     -11.984  13.832  68.703  1.00  0.00    -0.366 C  
HETATM    8  H   UNL     1     -11.089  10.924  65.483  1.00  0.00     0.000 HD 
HETATM    9  H   UNL     1     -10.733  12.085  68.781  1.00  0.00     0.000 HD 
ENDROOT
BRANCH   5  10
HETATM   10  C   UNL     1     -10.332  10.160  67.334  1.00  0.00    -0.238 C  
BRANCH  10  11
HETATM   11  C   UNL     1      -8.905   9.849  66.916  1.00  0.00    -0.146 A  
HETATM   12  C   UNL     1      -8.109  10.722  66.160  1.00  0.00    -0.160 A  
HETATM   13  C   UNL     1      -6.809  10.368  65.789  1.00  0.00    -0.132 A  
HETATM   14  C   UNL     1      -6.282   9.136  66.169  1.00  0.00    -0.064 A  
HETATM   15  C   UNL     1      -7.052   8.259  66.927  1.00  0.00    -0.078 A  
HETATM   16  C   UNL     1      -8.352   8.614  67.300  1.00  0.00    -0.108 A  
ENDBRANCH  10  11
ENDBRANCH   5  10
TORSDOF 2
ENDMDL
MODEL      193
REMARK 921   NORMALIZED FREE ENERGY PREDICTED BY IDOCK:   -2.83 KCAL/MOL
REMARK 922        TOTAL FREE ENERGY PREDICTED BY IDOCK:   -3.34 KCAL/MOL
REMARK 923 INTER-LIGAND FREE ENERGY PREDICTED BY IDOCK:   -3.18 KCAL/MOL
REMARK 924 INTRA-LIGAND FREE ENERGY PREDICTED BY IDOCK:   -0.16 KCAL/MOL
REMARK 927      BINDING AFFINITY PREDICTED BY RF-SCORE:    0.00 PKD
ROOT
HETATM    1  C   UNL     1      -9.131   9.904  69.732  1.00  0.00    -0.225 C  
HETATM    2  N   UNL     1      -9.970  11.021  69.386  1.00  0.00    -0.429 NA 
HETATM    3  H   UNL     1     -10.138  11.694  70.133  1.00  0.00     0.000 HD 
HETATM    4  C   UNL     1     -10.570  11.301  68.193  1.00  0.00    -0.192 C  
HETATM    5  N   UNL     1     -10.148  10.524  67.153  1.00  0.00    -0.200 NA 
HETATM    6  N   UNL     1     -11.465  12.209  68.011  1.00  0.00    -0.296 NA 
HETATM    7  C   UNL     1     -11.877  13.052  69.117  1.00  0.00    -0.310 C  
HETATM    8  H   UNL     1      -9.557   9.716  67.352  1.00  0.00     0.000 HD 
HETATM    9  H   UNL     1     -11.883  12.336  67.089  1.00  0.00     0.000 HD 
ENDROOT
BRANCH   5  10
HETATM   10  C   UNL     1     -10.511  10.805  65.775  1.00  0.00    -0.188 C  
BRANCH  10  11
HETATM   11  C   UNL     1      -9.390  10.604  64.769  1.00  0.00    -0.276 A  
HETATM   12  C   UNL     1      -8.204   9.911  65.054  1.00  0.00    -0.143 A  
HETATM   13  C   UNL     1      -7.200   9.779  64.091  1.00  0.00    -0.129 A  
HETATM   14  C   UNL     1      -7.366  10.336  62.825  1.00  0.00    -0.143 A  
HETATM   15  C   UNL     1      -8.539  11.019  62.519  1.00  0.00    -0.305 A  
HETATM   16  C   UNL     1      -9.544  11.150  63.482  1.00  0.00    -0.341 A  
ENDBRANCH  10  11
ENDBRANCH   5  10
TORSDOF 2
ENDMDL
MODEL      194
REMARK 921   NORMALIZED FREE ENERGY PREDICTED BY IDOCK:   -2.83 KCAL/MOL
REMARK 922        TOTAL FREE ENERGY PREDICTED BY IDOCK:   -3.33 KCAL/MOL
REMARK 923 INTER-LIGAND FREE ENERGY PREDICTED BY IDOCK:   -3.17 KCAL/MOL
REMARK 924 INTRA-LIGAND FREE ENERGY PREDICTED BY IDOCK:   -0.17 KCAL/MOL
REMARK 927      BINDING AFFINITY PREDICTED BY RF-SCORE:    0.00 PKD
ROOT
HETATM    1  C   UNL     1      -7.372   8.889  63.800  1.00  0.00    -0.101 C  
HETATM    2  N   UNL     1      -8.544   9.724  63.819  1.00  0.00    -0.183 NA 
HETATM    3  H   UNL     1      -8.663  10.334  63.011  1.00  0.00     0.000 HD 
HETATM    4  C   UNL     1      -9.517   9.810  64.772  1.00  0.00    -0.251 C  
HETATM    5  N   UNL     1      -9.465   8.830  65.721  1.00  0.00    -0.412 NA 
HETATM    6  N   UNL     1     -10.429  10.718  64.818  1.00  0.00    -0.311 NA 
HETATM    7  C   UNL     1     -10.495  11.731  63.781  1.00  0.00    -0.416 C  
HETATM    8  H   UNL     1      -8.649   8.218  65.750  1.00  0.00     0.000 HD 
HETATM    9  H   UNL     1     -11.105  10.725  65.582  1.00  0.00     0.000 HD 
ENDROOT
BRANCH   5  10
HETATM   10  C   UNL     1     -10.528   8.628  66.690  1.00  0.00    -0.169 C  
BRANCH  10  11
HETATM   11  C   UNL     1     -10.069   8.588  68.138  1.00  0.00    -0.240 A  
HETATM   12  C   UNL     1      -9.218   7.600  68.656  1.00  0.00    -0.141 A  
HETATM   13  C   UNL     1      -8.849   7.606  70.004  1.00  0.00    -0.143 A  
HETATM   14  C   UNL     1      -9.323   8.601  70.856  1.00  0.00    -0.235 A  
HETATM   15  C   UNL     1     -10.161   9.596  70.360  1.00  0.00    -0.336 A  
HETATM   16  C   UNL     1     -10.529   9.590  69.011  1.00  0.00    -0.229 A  
ENDBRANCH  10  11
ENDBRANCH   5  10
TORSDOF 2
ENDMDL
MODEL      195
REMARK 921   NORMALIZED FREE ENERGY PREDICTED BY IDOCK:   -2.83 KCAL/MOL
REMARK 922        TOTAL FREE ENERGY PREDICTED BY IDOCK:   -3.33 KCAL/MOL
REMARK 923 INTER-LIGAND FREE ENERGY PREDICTED BY IDOCK:   -3.18 KCAL/MOL
REMARK 924 INTRA-LIGAND FREE ENERGY PREDICTED BY IDOCK:   -0.15 KCAL/MOL
REMARK 927      BINDING AFFINITY PREDICTED BY RF-SCORE:    0.00 PKD
ROOT
HETATM    1  C   UNL     1     -10.709   6.633  67.236  1.00  0.00    -0.357 C  
HETATM    2  N   UNL     1     -10.054   7.050  68.447  1.00  0.00    -0.158 NA 
HETATM    3  H   UNL     1      -9.792   6.301  69.087  1.00  0.00     0.000 HD 
HETATM    4  C   UNL     1      -9.735   8.313  68.854  1.00  0.00    -0.164 C  
HETATM    5  N   UNL     1      -9.880   9.269  67.892  1.00  0.00    -0.160 NA 
HETATM    6  N   UNL     1      -9.329   8.629  70.035  1.00  0.00    -0.158 NA 
HETATM    7  C   UNL     1      -9.145   7.596  71.037  1.00  0.00    -0.147 C  
HETATM    8  H   UNL     1     -10.345   9.021  67.018  1.00  0.00     0.000 HD 
HETATM    9  H   UNL     1      -9.137   9.603  70.265  1.00  0.00     0.000 HD 
ENDROOT
BRANCH   5  10
HETATM   10  C   UNL     1      -9.396  10.628  68.066  1.00  0.00    -0.147 C  
BRANCH  10  11
HETATM   11  C   UNL     1     -10.197  11.688  67.329  1.00  0.00    -0.226 A  
HETATM   12  C   UNL     1     -10.460  12.964  67.846  1.00  0.00    -0.231 A  
HETATM   13  C   UNL     1     -11.223  13.888  67.127  1.00  0.00    -0.328 A  
HETATM   14  C   UNL     1     -11.734  13.552  65.875  1.00  0.00    -0.380 A  
HETATM   15  C   UNL     1     -11.476  12.293  65.339  1.00  0.00    -0.402 A  
HETATM   16  C   UNL     1     -10.712  11.370  66.058  1.00  0.00    -0.318 A  
ENDBRANCH  10  11
ENDBRANCH   5  10
TORSDOF 2
ENDMDL
MODEL      196
REMARK 921   NORMALIZED FREE ENERGY PREDICTED BY IDOCK:   -2.80 KCAL/MOL
REMARK 922        TOTAL FREE ENERGY PREDICTED BY IDOCK:   -3.30 KCAL/MOL
REMARK 923 INTER-LIGAND FREE ENERGY PREDICTED BY IDOCK:   -3.13 KCAL/MOL
REMARK 924 INTRA-LIGAND FREE ENERGY PREDICTED BY IDOCK:   -0.16 KCAL/MOL
REMARK 927      BINDING AFFINITY PREDICTED BY RF-SCORE:    0.00 PKD
ROOT
HETATM    1  C   UNL     1      -6.786   6.119  67.345  1.00  0.00    -0.063 C  
HETATM    2  N   UNL     1      -7.892   5.314  66.899  1.00  0.00    -0.100 NA 
HETATM    3  H   UNL     1      -7.728   4.768  66.053  1.00  0.00     0.000 HD 
HETATM    4  C   UNL     1      -9.131   5.181  67.455  1.00  0.00    -0.114 C  
HETATM    5  N   UNL     1      -9.252   5.729  68.699  1.00  0.00    -0.117 NA 
HETATM    6  N   UNL     1     -10.134   4.599  66.896  1.00  0.00    -0.210 NA 
HETATM    7  C   UNL     1      -9.981   3.989  65.588  1.00  0.00    -0.156 C  
HETATM    8  H   UNL     1      -8.495   6.314  69.055  1.00  0.00     0.000 HD 
HETATM    9  H   UNL     1     -11.036   4.567  67.371  1.00  0.00     0.000 HD 
ENDROOT
BRANCH   5  10
HETATM   10  C   UNL     1     -10.420   5.510  69.536  1.00  0.00    -0.297 C  
BRANCH  10  11
HETATM   11  C   UNL     1     -10.817   6.697  70.396  1.00  0.00    -0.316 A  
HETATM   12  C   UNL     1     -12.121   6.915  70.867  1.00  0.00    -0.424 A  
HETATM   13  C   UNL     1     -12.427   8.040  71.638  1.00  0.00    -0.347 A  
HETATM   14  C   UNL     1     -11.434   8.964  71.954  1.00  0.00    -0.442 A  
HETATM   15  C   UNL     1     -10.133   8.762  71.505  1.00  0.00    -0.371 A  
HETATM   16  C   UNL     1      -9.826   7.636  70.735  1.00  0.00    -0.177 A  
ENDBRANCH  10  11
ENDBRANCH   5  10
TORSDOF 2
ENDMDL
MODEL      197
REMARK 921   NORMALIZED FREE ENERGY PREDICTED BY IDOCK:   -2.79 KCAL/MOL
REMARK 922        TOTAL FREE ENERGY PREDICTED BY IDOCK:   -3.29 KCAL/MOL
REMARK 923 INTER-LIGAND FREE ENERGY PREDICTED BY IDOCK:   -3.08 KCAL/MOL
REMARK 924 INTRA-LIGAND FREE ENERGY PREDICTED BY IDOCK:   -0.21 KCAL/MOL
REMARK 927      BINDING AFFINITY PREDICTED BY RF-SCORE:    0.00 PKD
ROOT
HETATM    1  C   UNL     1     -10.641  11.314  66.544  1.00  0.00    -0.266 C  
HETATM    2  N   UNL     1      -9.556  10.395  66.763  1.00  0.00    -0.167 NA 
HETATM    3  H   UNL     1      -8.917  10.272  65.978  1.00  0.00     0.000 HD 
HETATM    4  C   UNL     1      -9.265   9.666  67.879  1.00  0.00    -0.124 C  
HETATM    5  N   UNL     1      -9.985  10.016  68.984  1.00  0.00    -0.185 NA 
HETATM    6  N   UNL     1      -8.396   8.718  67.937  1.00  0.00    -0.118 NA 
HETATM    7  C   UNL     1      -7.612   8.381  66.764  1.00  0.00    -0.090 C  
HETATM    8  H   UNL     1     -10.769  10.661  68.877  1.00  0.00     0.000 HD 
HETATM    9  H   UNL     1      -8.259   8.203  68.808  1.00  0.00     0.000 HD 
ENDROOT
BRANCH   5  10
HETATM   10  C   UNL     1      -9.676   9.505  70.309  1.00  0.00    -0.263 C  
BRANCH  10  11
HETATM   11  C   UNL     1     -10.666   8.485  70.844  1.00  0.00    -0.268 A  
HETATM   12  C   UNL     1     -11.962   8.809  71.270  1.00  0.00    -0.353 A  
HETATM   13  C   UNL     1     -12.820   7.826  71.773  1.00  0.00    -0.352 A  
HETATM   14  C   UNL     1     -12.395   6.502  71.856  1.00  0.00    -0.339 A  
HETATM   15  C   UNL     1     -11.115   6.158  71.430  1.00  0.00    -0.346 A  
HETATM   16  C   UNL     1     -10.259   7.140  70.926  1.00  0.00    -0.207 A  
ENDBRANCH  10  11
ENDBRANCH   5  10
TORSDOF 2
ENDMDL
MODEL      198
REMARK 921   NORMALIZED FREE ENERGY PREDICTED BY IDOCK:   -2.79 KCAL/MOL
REMARK 922        TOTAL FREE ENERGY PREDICTED BY IDOCK:   -3.29 KCAL/MOL
REMARK 923 INTER-LIGAND FREE ENERGY PREDICTED BY IDOCK:   -3.10 KCAL/MOL
REMARK 924 INTRA-LIGAND FREE ENERGY PREDICTED BY IDOCK:   -0.19 KCAL/MOL
REMARK 927      BINDING AFFINITY PREDICTED BY RF-SCORE:    0.00 PKD
ROOT
HETATM    1  C   UNL     1      -8.857  10.340  69.352  1.00  0.00    -0.163 C  
HETATM    2  N   UNL     1      -8.338  10.393  68.011  1.00  0.00    -0.117 NA 
HETATM    3  H   UNL     1      -7.610   9.713  67.793  1.00  0.00     0.000 HD 
HETATM    4  C   UNL     1      -8.687  11.231  66.992  1.00  0.00    -0.152 C  
HETATM    5  N   UNL     1      -9.811  11.968  67.229  1.00  0.00    -0.191 NA 
HETATM    6  N   UNL     1      -8.045  11.354  65.883  1.00  0.00    -0.369 NA 
HETATM    7  C   UNL     1      -6.873  10.537  65.630  1.00  0.00    -0.112 C  
HETATM    8  H   UNL     1     -10.211  11.966  68.167  1.00  0.00     0.000 HD 
HETATM    9  H   UNL     1      -8.360  12.024  65.182  1.00  0.00     0.000 HD 
ENDROOT
BRANCH   5  10
HETATM   10  C   UNL     1     -10.458  12.755  66.193  1.00  0.00    -0.267 C  
BRANCH  10  11
HETATM   11  C   UNL     1     -10.147  14.241  66.236  1.00  0.00    -0.308 A  
HETATM   12  C   UNL     1      -9.358  14.842  67.228  1.00  0.00    -0.210 A  
HETATM   13  C   UNL     1      -9.126  16.221  67.224  1.00  0.00    -0.214 A  
HETATM   14  C   UNL     1      -9.678  17.021  66.227  1.00  0.00    -0.302 A  
HETATM   15  C   UNL     1     -10.457  16.443  65.228  1.00  0.00    -0.285 A  
HETATM   16  C   UNL     1     -10.687  15.065  65.231  1.00  0.00    -0.406 A  
ENDBRANCH  10  11
ENDBRANCH   5  10
TORSDOF 2
ENDMDL
MODEL      199
REMARK 921   NORMALIZED FREE ENERGY PREDICTED BY IDOCK:   -2.78 KCAL/MOL
REMARK 922        TOTAL FREE ENERGY PREDICTED BY IDOCK:   -3.27 KCAL/MOL
REMARK 923 INTER-LIGAND FREE ENERGY PREDICTED BY IDOCK:   -3.09 KCAL/MOL
REMARK 924 INTRA-LIGAND FREE ENERGY PREDICTED BY IDOCK:   -0.19 KCAL/MOL
REMARK 927      BINDING AFFINITY PREDICTED BY RF-SCORE:    0.00 PKD
ROOT
HETATM    1  C   UNL     1      -6.579   8.302  67.600  1.00  0.00    -0.058 C  
HETATM    2  N   UNL     1      -7.705   8.679  68.412  1.00  0.00    -0.099 NA 
HETATM    3  H   UNL     1      -7.520   8.765  69.411  1.00  0.00     0.000 HD 
HETATM    4  C   UNL     1      -8.988   8.938  68.027  1.00  0.00    -0.140 C  
HETATM    5  N   UNL     1      -9.160   9.046  66.677  1.00  0.00    -0.153 NA 
HETATM    6  N   UNL     1      -9.988   9.076  68.827  1.00  0.00    -0.176 NA 
HETATM    7  C   UNL     1      -9.784   8.994  70.261  1.00  0.00    -0.196 C  
HETATM    8  H   UNL     1      -8.390   8.783  66.061  1.00  0.00     0.000 HD 
HETATM    9  H   UNL     1     -10.922   9.242  68.453  1.00  0.00     0.000 HD 
ENDROOT
BRANCH   5  10
HETATM   10  C   UNL     1     -10.399   9.522  66.086  1.00  0.00    -0.118 C  
BRANCH  10  11
HETATM   11  C   UNL     1     -10.384  10.981  65.665  1.00  0.00    -0.311 A  
HETATM   12  C   UNL     1     -10.063  12.037  66.531  1.00  0.00    -0.224 A  
HETATM   13  C   UNL     1     -10.087  13.362  66.087  1.00  0.00    -0.304 A  
HETATM   14  C   UNL     1     -10.430  13.654  64.769  1.00  0.00    -0.436 A  
HETATM   15  C   UNL     1     -10.743  12.620  63.891  1.00  0.00    -0.465 A  
HETATM   16  C   UNL     1     -10.717  11.295  64.334  1.00  0.00    -0.407 A  
ENDBRANCH  10  11
ENDBRANCH   5  10
TORSDOF 2
ENDMDL
MODEL      200
REMARK 921   NORMALIZED FREE ENERGY PREDICTED BY IDOCK:   -2.73 KCAL/MOL
REMARK 922        TOTAL FREE ENERGY PREDICTED BY IDOCK:   -3.22 KCAL/MOL
REMARK 923 INTER-LIGAND FREE ENERGY PREDICTED BY IDOCK:   -3.02 KCAL/MOL
REMARK 924 INTRA-LIGAND FREE ENERGY PREDICTED BY IDOCK:   -0.20 KCAL/MOL
REMARK 927      BINDING AFFINITY PREDICTED BY RF-SCORE:    0.00 PKD
ROOT
HETATM    1  C   UNL     1      -9.271   3.489  68.812  1.00  0.00    -0.163 C  
HETATM    2  N   UNL     1      -8.285   4.457  69.214  1.00  0.00    -0.067 NA 
HETATM    3  H   UNL     1      -7.333   4.103  69.310  1.00  0.00     0.000 HD 
HETATM    4  C   UNL     1      -8.451   5.784  69.485  1.00  0.00    -0.112 C  
HETATM    5  N   UNL     1      -9.671   6.283  69.129  1.00  0.00    -0.134 NA 
HETATM    6  N   UNL     1      -7.567   6.544  70.030  1.00  0.00    -0.098 NA 
HETATM    7  C   UNL     1      -6.262   6.008  70.370  1.00  0.00    -0.031 C  
HETATM    8  H   UNL     1     -10.404   5.633  68.843  1.00  0.00     0.000 HD 
HETATM    9  H   UNL     1      -7.782   7.522  70.222  1.00  0.00     0.000 HD 
ENDROOT
BRANCH   5  10
HETATM   10  C   UNL     1      -9.963   7.706  69.142  1.00  0.00    -0.181 C  
BRANCH  10  11
HETATM   11  C   UNL     1     -10.955   8.141  70.208  1.00  0.00    -0.240 A  
HETATM   12  C   UNL     1     -11.094   9.467  70.646  1.00  0.00    -0.351 A  
HETATM   13  C   UNL     1     -12.012   9.800  71.646  1.00  0.00    -0.454 A  
HETATM   14  C   UNL     1     -12.808   8.813  72.224  1.00  0.00    -0.465 A  
HETATM   15  C   UNL     1     -12.692   7.493  71.796  1.00  0.00    -0.360 A  
HETATM   16  C   UNL     1     -11.775   7.161  70.795  1.00  0.00    -0.363 A  
ENDBRANCH  10  11
ENDBRANCH   5  10
TORSDOF 2
ENDMDL
MODEL      201
REMARK 921   NORMALIZED FREE ENERGY PREDICTED BY IDOCK:   -2.72 KCAL/MOL
REMARK 922        TOTAL FREE ENERGY PREDICTED BY IDOCK:   -3.21 KCAL/MOL
REMARK 923 INTER-LIGAND FREE ENERGY PREDICTED BY IDOCK:   -3.01 KCAL/MOL
REMARK 924 INTRA-LIGAND FREE ENERGY PREDICTED BY IDOCK:   -0.20 KCAL/MOL
REMARK 927      BINDING AFFINITY PREDICTED BY RF-SCORE:    0.00 PKD
ROOT
HETATM    1  C   UNL     1     -10.423   7.278  66.759  1.00  0.00    -0.241 C  
HETATM    2  N   UNL     1     -10.099   8.406  67.592  1.00  0.00    -0.194 NA 
HETATM    3  H   UNL     1      -9.725   9.220  67.106  1.00  0.00     0.000 HD 
HETATM    4  C   UNL     1     -10.224   8.533  68.945  1.00  0.00    -0.207 C  
HETATM    5  N   UNL     1     -10.935   7.532  69.542  1.00  0.00    -0.404 NA 
HETATM    6  N   UNL     1      -9.731   9.494  69.647  1.00  0.00    -0.187 NA 
HETATM    7  C   UNL     1      -9.008  10.570  68.994  1.00  0.00    -0.176 C  
HETATM    8  H   UNL     1     -11.182   6.709  68.992  1.00  0.00     0.000 HD 
HETATM    9  H   UNL     1      -9.848   9.499  70.660  1.00  0.00     0.000 HD 
ENDROOT
BRANCH   5  10
HETATM   10  C   UNL     1     -11.353   7.597  70.932  1.00  0.00    -0.276 C  
BRANCH  10  11
HETATM   11  C   UNL     1     -10.647   6.618  71.854  1.00  0.00    -0.237 A  
HETATM   12  C   UNL     1      -9.786   5.606  71.403  1.00  0.00    -0.221 A  
HETATM   13  C   UNL     1      -9.183   4.722  72.302  1.00  0.00    -0.151 A  
HETATM   14  C   UNL     1      -9.428   4.836  73.669  1.00  0.00    -0.130 A  
HETATM   15  C   UNL     1     -10.272   5.839  74.138  1.00  0.00    -0.286 A  
HETATM   16  C   UNL     1     -10.874   6.724  73.239  1.00  0.00    -0.302 A  
ENDBRANCH  10  11
ENDBRANCH   5  10
TORSDOF 2
ENDMDL
MODEL      202
REMARK 921   NORMALIZED FREE ENERGY PREDICTED BY IDOCK:   -2.72 KCAL/MOL
REMARK 922        TOTAL FREE ENERGY PREDICTED BY IDOCK:   -3.21 KCAL/MOL
REMARK 923 INTER-LIGAND FREE ENERGY PREDICTED BY IDOCK:   -3.03 KCAL/MOL
REMARK 924 INTRA-LIGAND FREE ENERGY PREDICTED BY IDOCK:   -0.18 KCAL/MOL
REMARK 927      BINDING AFFINITY PREDICTED BY RF-SCORE:    0.00 PKD
ROOT
HETATM    1  C   UNL     1     -10.817  11.680  65.604  1.00  0.00    -0.276 C  
HETATM    2  N   UNL     1     -11.108  13.067  65.354  1.00  0.00    -0.273 NA 
HETATM    3  H   UNL     1     -11.568  13.267  64.467  1.00  0.00     0.000 HD 
HETATM    4  C   UNL     1     -10.852  14.150  66.144  1.00  0.00    -0.296 C  
HETATM    5  N   UNL     1     -10.455  13.841  67.413  1.00  0.00    -0.255 NA 
HETATM    6  N   UNL     1     -10.960  15.378  65.773  1.00  0.00    -0.327 NA 
HETATM    7  C   UNL     1     -11.419  15.692  64.432  1.00  0.00    -0.262 C  
HETATM    8  H   UNL     1     -10.230  12.870  67.635  1.00  0.00     0.000 HD 
HETATM    9  H   UNL     1     -10.723  16.130  66.420  1.00  0.00     0.000 HD 
ENDROOT
BRANCH   5  10
HETATM   10  C   UNL     1     -10.339  14.843  68.458  1.00  0.00    -0.237 C  
BRANCH  10  11
HETATM   11  C   UNL     1      -8.948  15.432  68.623  1.00  0.00    -0.191 A  
HETATM   12  C   UNL     1      -7.784  14.657  68.737  1.00  0.00    -0.137 A  
HETATM   13  C   UNL     1      -6.535  15.259  68.908  1.00  0.00    -0.103 A  
HETATM   14  C   UNL     1      -6.428  16.647  68.967  1.00  0.00    -0.190 A  
HETATM   15  C   UNL     1      -7.569  17.434  68.847  1.00  0.00    -0.224 A  
HETATM   16  C   UNL     1      -8.819  16.832  68.674  1.00  0.00    -0.255 A  
ENDBRANCH  10  11
ENDBRANCH   5  10
TORSDOF 2
ENDMDL
MODEL      203
REMARK 921   NORMALIZED FREE ENERGY PREDICTED BY IDOCK:   -2.71 KCAL/MOL
REMARK 922        TOTAL FREE ENERGY PREDICTED BY IDOCK:   -3.21 KCAL/MOL
REMARK 923 INTER-LIGAND FREE ENERGY PREDICTED BY IDOCK:   -3.00 KCAL/MOL
REMARK 924 INTRA-LIGAND FREE ENERGY PREDICTED BY IDOCK:   -0.20 KCAL/MOL
REMARK 927      BINDING AFFINITY PREDICTED BY RF-SCORE:    0.00 PKD
ROOT
HETATM    1  C   UNL     1      -8.404   9.746  69.939  1.00  0.00    -0.184 C  
HETATM    2  N   UNL     1      -7.705   9.244  68.786  1.00  0.00    -0.083 NA 
HETATM    3  H   UNL     1      -6.781   8.853  68.967  1.00  0.00     0.000 HD 
HETATM    4  C   UNL     1      -8.110   9.222  67.483  1.00  0.00    -0.107 C  
HETATM    5  N   UNL     1      -9.426   9.532  67.297  1.00  0.00    -0.134 NA 
HETATM    6  N   UNL     1      -7.355   8.941  66.479  1.00  0.00    -0.084 NA 
HETATM    7  C   UNL     1      -5.967   8.578  66.695  1.00  0.00    -0.053 C  
HETATM    8  H   UNL     1      -9.961   9.898  68.086  1.00  0.00     0.000 HD 
HETATM    9  H   UNL     1      -7.733   8.974  65.531  1.00  0.00     0.000 HD 
ENDROOT
BRANCH   5  10
HETATM   10  C   UNL     1     -10.093   9.360  66.018  1.00  0.00    -0.231 C  
BRANCH  10  11
HETATM   11  C   UNL     1     -10.453  10.655  65.309  1.00  0.00    -0.264 A  
HETATM   12  C   UNL     1     -11.353  11.599  65.824  1.00  0.00    -0.244 A  
HETATM   13  C   UNL     1     -11.659  12.762  65.113  1.00  0.00    -0.373 A  
HETATM   14  C   UNL     1     -11.067  13.002  63.875  1.00  0.00    -0.411 A  
HETATM   15  C   UNL     1     -10.164  12.083  63.350  1.00  0.00    -0.457 A  
HETATM   16  C   UNL     1      -9.857  10.920  64.062  1.00  0.00    -0.377 A  
ENDBRANCH  10  11
ENDBRANCH   5  10
TORSDOF 2
ENDMDL
MODEL      204
REMARK 921   NORMALIZED FREE ENERGY PREDICTED BY IDOCK:   -2.71 KCAL/MOL
REMARK 922        TOTAL FREE ENERGY PREDICTED BY IDOCK:   -3.20 KCAL/MOL
REMARK 923 INTER-LIGAND FREE ENERGY PREDICTED BY IDOCK:   -2.98 KCAL/MOL
REMARK 924 INTRA-LIGAND FREE ENERGY PREDICTED BY IDOCK:   -0.22 KCAL/MOL
REMARK 927      BINDING AFFINITY PREDICTED BY RF-SCORE:    0.00 PKD
ROOT
HETATM    1  C   UNL     1     -11.026   6.204  68.524  1.00  0.00    -0.320 C  
HETATM    2  N   UNL     1     -11.662   6.835  69.650  1.00  0.00    -0.642 NA 
HETATM    3  H   UNL     1     -12.353   7.550  69.422  1.00  0.00     0.000 HD 
HETATM    4  C   UNL     1     -11.465   6.608  70.981  1.00  0.00    -0.330 C  
HETATM    5  N   UNL     1     -10.718   5.501  71.260  1.00  0.00    -0.242 NA 
HETATM    6  N   UNL     1     -11.922   7.346  71.933  1.00  0.00    -0.293 NA 
HETATM    7  C   UNL     1     -12.746   8.500  71.623  1.00  0.00    -0.332 C  
HETATM    8  H   UNL     1     -10.243   5.023  70.493  1.00  0.00     0.000 HD 
HETATM    9  H   UNL     1     -11.706   7.119  72.904  1.00  0.00     0.000 HD 
ENDROOT
BRANCH   5  10
HETATM   10  C   UNL     1     -10.575   4.977  72.607  1.00  0.00    -0.220 C  
BRANCH  10  11
HETATM   11  C   UNL     1      -9.191   5.142  73.210  1.00  0.00    -0.133 A  
HETATM   12  C   UNL     1      -8.251   4.105  73.297  1.00  0.00    -0.090 A  
HETATM   13  C   UNL     1      -7.000   4.316  73.884  1.00  0.00    -0.065 A  
HETATM   14  C   UNL     1      -6.667   5.570  74.391  1.00  0.00    -0.077 A  
HETATM   15  C   UNL     1      -7.581   6.615  74.306  1.00  0.00    -0.100 A  
HETATM   16  C   UNL     1      -8.832   6.405  73.718  1.00  0.00    -0.134 A  
ENDBRANCH  10  11
ENDBRANCH   5  10
TORSDOF 2
ENDMDL
MODEL      205
REMARK 921   NORMALIZED FREE ENERGY PREDICTED BY IDOCK:   -2.68 KCAL/MOL
REMARK 922        TOTAL FREE ENERGY PREDICTED BY IDOCK:   -3.17 KCAL/MOL
REMARK 923 INTER-LIGAND FREE ENERGY PREDICTED BY IDOCK:   -2.99 KCAL/MOL
REMARK 924 INTRA-LIGAND FREE ENERGY PREDICTED BY IDOCK:   -0.18 KCAL/MOL
REMARK 927      BINDING AFFINITY PREDICTED BY RF-SCORE:    0.00 PKD
ROOT
HETATM    1  C   UNL     1     -10.509   4.750  65.840  1.00  0.00    -0.274 C  
HETATM    2  N   UNL     1     -10.631   5.301  67.164  1.00  0.00    -0.220 NA 
HETATM    3  H   UNL     1     -10.627   4.623  67.926  1.00  0.00     0.000 HD 
HETATM    4  C   UNL     1     -10.751   6.608  67.539  1.00  0.00    -0.317 C  
HETATM    5  N   UNL     1     -10.521   7.505  66.536  1.00  0.00    -0.494 NA 
HETATM    6  N   UNL     1     -11.054   7.013  68.722  1.00  0.00    -0.476 NA 
HETATM    7  C   UNL     1     -11.260   6.049  69.787  1.00  0.00    -0.369 C  
HETATM    8  H   UNL     1     -10.434   7.160  65.579  1.00  0.00     0.000 HD 
HETATM    9  H   UNL     1     -11.149   8.011  68.912  1.00  0.00     0.000 HD 
ENDROOT
BRANCH   5  10
HETATM   10  C   UNL     1     -10.395   8.931  66.781  1.00  0.00    -0.247 C  
BRANCH  10  11
HETATM   11  C   UNL     1      -9.026   9.374  67.269  1.00  0.00    -0.143 A  
HETATM   12  C   UNL     1      -8.822  10.125  68.435  1.00  0.00    -0.123 A  
HETATM   13  C   UNL     1      -7.537  10.520  68.819  1.00  0.00    -0.101 A  
HETATM   14  C   UNL     1      -6.435  10.169  68.044  1.00  0.00    -0.058 A  
HETATM   15  C   UNL     1      -6.615   9.415  66.888  1.00  0.00    -0.068 A  
HETATM   16  C   UNL     1      -7.899   9.019  66.504  1.00  0.00    -0.100 A  
ENDBRANCH  10  11
ENDBRANCH   5  10
TORSDOF 2
ENDMDL
MODEL      206
REMARK 921   NORMALIZED FREE ENERGY PREDICTED BY IDOCK:   -2.68 KCAL/MOL
REMARK 922        TOTAL FREE ENERGY PREDICTED BY IDOCK:   -3.16 KCAL/MOL
REMARK 923 INTER-LIGAND FREE ENERGY PREDICTED BY IDOCK:   -2.95 KCAL/MOL
REMARK 924 INTRA-LIGAND FREE ENERGY PREDICTED BY IDOCK:   -0.21 KCAL/MOL
REMARK 927      BINDING AFFINITY PREDICTED BY RF-SCORE:    0.00 PKD
ROOT
HETATM    1  C   UNL     1      -6.665  10.019  65.021  1.00  0.00    -0.128 C  
HETATM    2  N   UNL     1      -7.204   8.690  65.135  1.00  0.00    -0.086 NA 
HETATM    3  H   UNL     1      -6.555   7.932  64.925  1.00  0.00     0.000 HD 
HETATM    4  C   UNL     1      -8.465   8.307  65.488  1.00  0.00    -0.161 C  
HETATM    5  N   UNL     1      -9.241   9.312  65.987  1.00  0.00    -0.189 NA 
HETATM    6  N   UNL     1      -8.933   7.112  65.378  1.00  0.00    -0.373 NA 
HETATM    7  C   UNL     1      -8.084   6.045  64.879  1.00  0.00    -0.133 C  
HETATM    8  H   UNL     1      -8.903  10.273  65.921  1.00  0.00     0.000 HD 
HETATM    9  H   UNL     1      -9.898   6.915  65.640  1.00  0.00     0.000 HD 
ENDROOT
BRANCH   5  10
HETATM   10  C   UNL     1     -10.532   9.065  66.607  1.00  0.00    -0.165 C  
BRANCH  10  11
HETATM   11  C   UNL     1     -10.586   9.351  68.098  1.00  0.00    -0.261 A  
HETATM   12  C   UNL     1     -11.218  10.473  68.652  1.00  0.00    -0.328 A  
HETATM   13  C   UNL     1     -11.215  10.691  70.032  1.00  0.00    -0.382 A  
HETATM   14  C   UNL     1     -10.580   9.788  70.883  1.00  0.00    -0.344 A  
HETATM   15  C   UNL     1      -9.955   8.663  70.354  1.00  0.00    -0.212 A  
HETATM   16  C   UNL     1      -9.959   8.445  68.973  1.00  0.00    -0.194 A  
ENDBRANCH  10  11
ENDBRANCH   5  10
TORSDOF 2
ENDMDL
MODEL      207
REMARK 921   NORMALIZED FREE ENERGY PREDICTED BY IDOCK:   -2.65 KCAL/MOL
REMARK 922        TOTAL FREE ENERGY PREDICTED BY IDOCK:   -3.13 KCAL/MOL
REMARK 923 INTER-LIGAND FREE ENERGY PREDICTED BY IDOCK:   -2.98 KCAL/MOL
REMARK 924 INTRA-LIGAND FREE ENERGY PREDICTED BY IDOCK:   -0.15 KCAL/MOL
REMARK 927      BINDING AFFINITY PREDICTED BY RF-SCORE:    0.00 PKD
ROOT
HETATM    1  C   UNL     1      -7.468   9.331  65.946  1.00  0.00    -0.095 C  
HETATM    2  N   UNL     1      -7.023  10.119  67.065  1.00  0.00    -0.087 NA 
HETATM    3  H   UNL     1      -6.436  10.920  66.834  1.00  0.00     0.000 HD 
HETATM    4  C   UNL     1      -7.279   9.939  68.393  1.00  0.00    -0.073 C  
HETATM    5  N   UNL     1      -8.245   9.012  68.659  1.00  0.00    -0.117 NA 
HETATM    6  N   UNL     1      -6.688  10.563  69.351  1.00  0.00    -0.065 NA 
HETATM    7  C   UNL     1      -5.689  11.572  69.051  1.00  0.00    -0.048 C  
HETATM    8  H   UNL     1      -8.587   8.425  67.898  1.00  0.00     0.000 HD 
HETATM    9  H   UNL     1      -6.922  10.349  70.321  1.00  0.00     0.000 HD 
ENDROOT
BRANCH   5  10
HETATM   10  C   UNL     1      -8.803   8.830  69.988  1.00  0.00    -0.146 C  
BRANCH  10  11
HETATM   11  C   UNL     1     -10.112   9.561  70.233  1.00  0.00    -0.314 A  
HETATM   12  C   UNL     1     -10.568  10.627  69.443  1.00  0.00    -0.270 A  
HETATM   13  C   UNL     1     -11.773  11.272  69.733  1.00  0.00    -0.422 A  
HETATM   14  C   UNL     1     -12.545  10.861  70.817  1.00  0.00    -0.470 A  
HETATM   15  C   UNL     1     -12.115   9.800  71.609  1.00  0.00    -0.475 A  
HETATM   16  C   UNL     1     -10.911   9.153  71.318  1.00  0.00    -0.402 A  
ENDBRANCH  10  11
ENDBRANCH   5  10
TORSDOF 2
ENDMDL
MODEL      208
REMARK 921   NORMALIZED FREE ENERGY PREDICTED BY IDOCK:   -2.64 KCAL/MOL
REMARK 922        TOTAL FREE ENERGY PREDICTED BY IDOCK:   -3.12 KCAL/MOL
REMARK 923 INTER-LIGAND FREE ENERGY PREDICTED BY IDOCK:   -2.98 KCAL/MOL
REMARK 924 INTRA-LIGAND FREE ENERGY PREDICTED BY IDOCK:   -0.14 KCAL/MOL
REMARK 927      BINDING AFFINITY PREDICTED BY RF-SCORE:    0.00 PKD
ROOT
HETATM    1  C   UNL     1     -12.375  15.120  70.263  1.00  0.00    -0.352 C  
HETATM    2  N   UNL     1     -11.480  15.937  69.486  1.00  0.00    -0.332 NA 
HETATM    3  H   UNL     1     -11.317  16.877  69.846  1.00  0.00     0.000 HD 
HETATM    4  C   UNL     1     -10.821  15.624  68.334  1.00  0.00    -0.290 C  
HETATM    5  N   UNL     1     -10.866  14.301  67.999  1.00  0.00    -0.236 NA 
HETATM    6  N   UNL     1     -10.194  16.466  67.588  1.00  0.00    -0.265 NA 
HETATM    7  C   UNL     1     -10.123  17.863  67.975  1.00  0.00    -0.358 C  
HETATM    8  H   UNL     1     -11.492  13.684  68.518  1.00  0.00     0.000 HD 
HETATM    9  H   UNL     1      -9.748  16.152  66.726  1.00  0.00     0.000 HD 
ENDROOT
BRANCH   5  10
HETATM   10  C   UNL     1     -10.057  13.740  66.931  1.00  0.00    -0.260 C  
BRANCH  10  11
HETATM   11  C   UNL     1      -9.500  12.356  67.216  1.00  0.00    -0.191 A  
HETATM   12  C   UNL     1     -10.261  11.307  67.754  1.00  0.00    -0.203 A  
HETATM   13  C   UNL     1      -9.683  10.061  68.013  1.00  0.00    -0.158 A  
HETATM   14  C   UNL     1      -8.336   9.841  67.735  1.00  0.00    -0.114 A  
HETATM   15  C   UNL     1      -7.566  10.866  67.193  1.00  0.00    -0.109 A  
HETATM   16  C   UNL     1      -8.143  12.112  66.932  1.00  0.00    -0.112 A  
ENDBRANCH  10  11
ENDBRANCH   5  10
TORSDOF 2
ENDMDL
MODEL      209
REMARK 921   NORMALIZED FREE ENERGY PREDICTED BY IDOCK:   -2.63 KCAL/MOL
REMARK 922        TOTAL FREE ENERGY PREDICTED BY IDOCK:   -3.11 KCAL/MOL
REMARK 923 INTER-LIGAND FREE ENERGY PREDICTED BY IDOCK:   -2.95 KCAL/MOL
REMARK 924 INTRA-LIGAND FREE ENERGY PREDICTED BY IDOCK:   -0.16 KCAL/MOL
REMARK 927      BINDING AFFINITY PREDICTED BY RF-SCORE:    0.00 PKD
ROOT
HETATM    1  C   UNL     1      -8.214   8.112  72.765  1.00  0.00    -0.173 C  
HETATM    2  N   UNL     1      -9.602   8.433  72.566  1.00  0.00    -0.290 NA 
HETATM    3  H   UNL     1     -10.107   8.737  73.398  1.00  0.00     0.000 HD 
HETATM    4  C   UNL     1     -10.334   8.387  71.415  1.00  0.00    -0.222 C  
HETATM    5  N   UNL     1      -9.593   8.206  70.283  1.00  0.00    -0.170 NA 
HETATM    6  N   UNL     1     -11.615   8.497  71.349  1.00  0.00    -0.276 NA 
HETATM    7  C   UNL     1     -12.386   8.725  72.557  1.00  0.00    -0.287 C  
HETATM    8  H   UNL     1      -8.605   7.970  70.375  1.00  0.00     0.000 HD 
HETATM    9  H   UNL     1     -12.088   8.424  70.448  1.00  0.00     0.000 HD 
ENDROOT
BRANCH   5  10
HETATM   10  C   UNL     1     -10.161   8.338  68.952  1.00  0.00    -0.210 C  
BRANCH  10  11
HETATM   11  C   UNL     1      -9.839   7.193  68.007  1.00  0.00    -0.158 A  
HETATM   12  C   UNL     1     -10.814   6.379  67.412  1.00  0.00    -0.457 A  
HETATM   13  C   UNL     1     -10.451   5.326  66.566  1.00  0.00    -0.354 A  
HETATM   14  C   UNL     1      -9.107   5.073  66.300  1.00  0.00    -0.129 A  
HETATM   15  C   UNL     1      -8.125   5.875  66.873  1.00  0.00    -0.102 A  
HETATM   16  C   UNL     1      -8.488   6.928  67.718  1.00  0.00    -0.123 A  
ENDBRANCH  10  11
ENDBRANCH   5  10
TORSDOF 2
ENDMDL
MODEL      210
REMARK 921   NORMALIZED FREE ENERGY PREDICTED BY IDOCK:   -2.63 KCAL/MOL
REMARK 922        TOTAL FREE ENERGY PREDICTED BY IDOCK:   -3.11 KCAL/MOL
REMARK 923 INTER-LIGAND FREE ENERGY PREDICTED BY IDOCK:   -2.97 KCAL/MOL
REMARK 924 INTRA-LIGAND FREE ENERGY PREDICTED BY IDOCK:   -0.14 KCAL/MOL
REMARK 927      BINDING AFFINITY PREDICTED BY RF-SCORE:    0.00 PKD
ROOT
HETATM    1  C   UNL     1     -12.099  11.211  70.512  1.00  0.00    -0.381 C  
HETATM    2  N   UNL     1     -12.814   9.984  70.739  1.00  0.00    -0.513 NA 
HETATM    3  H   UNL     1     -13.827  10.073  70.819  1.00  0.00     0.000 HD 
HETATM    4  C   UNL     1     -12.322   8.717  70.861  1.00  0.00    -0.071 C  
HETATM    5  N   UNL     1     -11.006   8.589  70.522  1.00  0.00    -0.239 NA 
HETATM    6  N   UNL     1     -12.998   7.696  71.260  1.00  0.00    -0.509 NA 
HETATM    7  C   UNL     1     -14.405   7.840  71.583  1.00  0.00    -0.481 C  
HETATM    8  H   UNL     1     -10.456   9.433  70.357  1.00  0.00     0.000 HD 
HETATM    9  H   UNL     1     -12.544   6.787  71.349  1.00  0.00     0.000 HD 
ENDROOT
BRANCH   5  10
HETATM   10  C   UNL     1     -10.360   7.294  70.385  1.00  0.00    -0.208 C  
BRANCH  10  11
HETATM   11  C   UNL     1      -8.999   7.331  69.712  1.00  0.00    -0.142 A  
HETATM   12  C   UNL     1      -8.198   8.480  69.639  1.00  0.00    -0.115 A  
HETATM   13  C   UNL     1      -6.963   8.454  68.986  1.00  0.00    -0.061 A  
HETATM   14  C   UNL     1      -6.506   7.277  68.398  1.00  0.00    -0.044 A  
HETATM   15  C   UNL     1      -7.281   6.123  68.467  1.00  0.00    -0.084 A  
HETATM   16  C   UNL     1      -8.516   6.149  69.121  1.00  0.00    -0.119 A  
ENDBRANCH  10  11
ENDBRANCH   5  10
TORSDOF 2
ENDMDL
MODEL      211
REMARK 921   NORMALIZED FREE ENERGY PREDICTED BY IDOCK:   -2.63 KCAL/MOL
REMARK 922        TOTAL FREE ENERGY PREDICTED BY IDOCK:   -3.11 KCAL/MOL
REMARK 923 INTER-LIGAND FREE ENERGY PREDICTED BY IDOCK:   -2.91 KCAL/MOL
REMARK 924 INTRA-LIGAND FREE ENERGY PREDICTED BY IDOCK:   -0.20 KCAL/MOL
REMARK 927      BINDING AFFINITY PREDICTED BY RF-SCORE:    0.00 PKD
ROOT
HETATM    1  C   UNL     1     -10.422  12.043  68.401  1.00  0.00    -0.219 C  
HETATM    2  N   UNL     1     -10.133  10.783  67.769  1.00  0.00    -0.170 NA 
HETATM    3  H   UNL     1      -9.550  10.832  66.934  1.00  0.00     0.000 HD 
HETATM    4  C   UNL     1     -10.533   9.531  68.136  1.00  0.00    -0.223 C  
HETATM    5  N   UNL     1     -11.109   9.464  69.372  1.00  0.00    -0.416 NA 
HETATM    6  N   UNL     1     -10.403   8.472  67.416  1.00  0.00    -0.265 NA 
HETATM    7  C   UNL     1      -9.756   8.553  66.120  1.00  0.00    -0.189 C  
HETATM    8  H   UNL     1     -11.339  10.333  69.856  1.00  0.00     0.000 HD 
HETATM    9  H   UNL     1     -10.755   7.577  67.756  1.00  0.00     0.000 HD 
ENDROOT
BRANCH   5  10
HETATM   10  C   UNL     1     -11.408   8.200  70.023  1.00  0.00     0.000 C  
BRANCH  10  11
HETATM   11  C   UNL     1     -10.408   7.781  71.087  1.00  0.00    -0.218 A  
HETATM   12  C   UNL     1      -9.916   8.646  72.076  1.00  0.00    -0.399 A  
HETATM   13  C   UNL     1      -8.980   8.205  73.015  1.00  0.00    -0.335 A  
HETATM   14  C   UNL     1      -8.521   6.890  72.983  1.00  0.00    -0.128 A  
HETATM   15  C   UNL     1      -9.003   6.013  72.016  1.00  0.00    -0.140 A  
HETATM   16  C   UNL     1      -9.940   6.454  71.077  1.00  0.00    -0.205 A  
ENDBRANCH  10  11
ENDBRANCH   5  10
TORSDOF 2
ENDMDL
MODEL      212
REMARK 921   NORMALIZED FREE ENERGY PREDICTED BY IDOCK:   -2.56 KCAL/MOL
REMARK 922        TOTAL FREE ENERGY PREDICTED BY IDOCK:   -3.03 KCAL/MOL
REMARK 923 INTER-LIGAND FREE ENERGY PREDICTED BY IDOCK:   -2.89 KCAL/MOL
REMARK 924 INTRA-LIGAND FREE ENERGY PREDICTED BY IDOCK:   -0.14 KCAL/MOL
REMARK 927      BINDING AFFINITY PREDICTED BY RF-SCORE:    0.00 PKD
ROOT
HETATM    1  C   UNL     1     -11.589   5.358  72.473  1.00  0.00    -0.159 C  
HETATM    2  N   UNL     1     -12.393   6.534  72.275  1.00  0.00    -0.541 NA 
HETATM    3  H   UNL     1     -13.299   6.533  72.743  1.00  0.00     0.000 HD 
HETATM    4  C   UNL     1     -12.108   7.651  71.545  1.00  0.00    -0.310 C  
HETATM    5  N   UNL     1     -10.813   7.734  71.123  1.00  0.00    -0.232 NA 
HETATM    6  N   UNL     1     -12.953   8.578  71.250  1.00  0.00    -0.486 NA 
HETATM    7  C   UNL     1     -14.318   8.494  71.737  1.00  0.00    -0.437 C  
HETATM    8  H   UNL     1     -10.206   6.921  71.237  1.00  0.00     0.000 HD 
HETATM    9  H   UNL     1     -12.663   9.369  70.676  1.00  0.00     0.000 HD 
ENDROOT
BRANCH   5  10
HETATM   10  C   UNL     1     -10.267   8.937  70.518  1.00  0.00    -0.204 C  
BRANCH  10  11
HETATM   11  C   UNL     1      -8.853   8.793  69.982  1.00  0.00    -0.149 A  
HETATM   12  C   UNL     1      -7.830   8.111  70.659  1.00  0.00    -0.091 A  
HETATM   13  C   UNL     1      -6.542   8.032  70.122  1.00  0.00    -0.037 A  
HETATM   14  C   UNL     1      -6.255   8.632  68.898  1.00  0.00    -0.044 A  
HETATM   15  C   UNL     1      -7.258   9.305  68.206  1.00  0.00    -0.077 A  
HETATM   16  C   UNL     1      -8.546   9.383  68.742  1.00  0.00    -0.127 A  
ENDBRANCH  10  11
ENDBRANCH   5  10
TORSDOF 2
ENDMDL
MODEL      213
REMARK 921   NORMALIZED FREE ENERGY PREDICTED BY IDOCK:   -2.54 KCAL/MOL
REMARK 922        TOTAL FREE ENERGY PREDICTED BY IDOCK:   -3.01 KCAL/MOL
REMARK 923 INTER-LIGAND FREE ENERGY PREDICTED BY IDOCK:   -2.81 KCAL/MOL
REMARK 924 INTRA-LIGAND FREE ENERGY PREDICTED BY IDOCK:   -0.20 KCAL/MOL
REMARK 927      BINDING AFFINITY PREDICTED BY RF-SCORE:    0.00 PKD
ROOT
HETATM    1  C   UNL     1      -8.990   3.245  66.846  1.00  0.00    -0.158 C  
HETATM    2  N   UNL     1      -8.895   4.635  66.486  1.00  0.00    -0.111 NA 
HETATM    3  H   UNL     1      -8.325   4.840  65.665  1.00  0.00     0.000 HD 
HETATM    4  C   UNL     1      -9.463   5.716  67.093  1.00  0.00    -0.117 C  
HETATM    5  N   UNL     1     -10.399   5.405  68.037  1.00  0.00    -0.174 NA 
HETATM    6  N   UNL     1      -9.176   6.945  66.837  1.00  0.00    -0.140 NA 
HETATM    7  C   UNL     1      -8.205   7.262  65.806  1.00  0.00    -0.135 C  
HETATM    8  H   UNL     1     -10.498   4.432  68.329  1.00  0.00     0.000 HD 
HETATM    9  H   UNL     1      -9.629   7.695  67.358  1.00  0.00     0.000 HD 
ENDROOT
BRANCH   5  10
HETATM   10  C   UNL     1     -11.259   6.409  68.640  1.00  0.00    -0.248 C  
BRANCH  10  11
HETATM   11  C   UNL     1     -10.994   6.671  70.113  1.00  0.00    -0.358 A  
HETATM   12  C   UNL     1     -11.656   7.658  70.859  1.00  0.00    -0.299 A  
HETATM   13  C   UNL     1     -11.351   7.864  72.207  1.00  0.00    -0.393 A  
HETATM   14  C   UNL     1     -10.380   7.086  72.833  1.00  0.00    -0.267 A  
HETATM   15  C   UNL     1      -9.718   6.095  72.113  1.00  0.00    -0.168 A  
HETATM   16  C   UNL     1     -10.024   5.888  70.765  1.00  0.00    -0.241 A  
ENDBRANCH  10  11
ENDBRANCH   5  10
TORSDOF 2
ENDMDL
MODEL      214
REMARK 921   NORMALIZED FREE ENERGY PREDICTED BY IDOCK:   -2.53 KCAL/MOL
REMARK 922        TOTAL FREE ENERGY PREDICTED BY IDOCK:   -3.00 KCAL/MOL
REMARK 923 INTER-LIGAND FREE ENERGY PREDICTED BY IDOCK:   -2.78 KCAL/MOL
REMARK 924 INTRA-LIGAND FREE ENERGY PREDICTED BY IDOCK:   -0.22 KCAL/MOL
REMARK 927      BINDING AFFINITY PREDICTED BY RF-SCORE:    0.00 PKD
ROOT
HETATM    1  C   UNL     1      -5.849  19.734  70.720  1.00  0.00    -0.256 C  
HETATM    2  N   UNL     1      -6.471  19.945  69.439  1.00  0.00    -0.336 NA 
HETATM    3  H   UNL     1      -6.870  20.871  69.290  1.00  0.00     0.000 HD 
HETATM    4  C   UNL     1      -6.598  19.073  68.398  1.00  0.00    -0.248 C  
HETATM    5  N   UNL     1      -5.862  17.931  68.525  1.00  0.00    -0.175 NA 
HETATM    6  N   UNL     1      -7.338  19.262  67.361  1.00  0.00    -0.227 NA 
HETATM    7  C   UNL     1      -8.087  20.497  67.222  1.00  0.00    -0.309 C  
HETATM    8  H   UNL     1      -5.407  17.736  69.418  1.00  0.00     0.000 HD 
HETATM    9  H   UNL     1      -7.397  18.545  66.638  1.00  0.00     0.000 HD 
ENDROOT
BRANCH   5  10
HETATM   10  C   UNL     1      -5.700  16.983  67.436  1.00  0.00    -0.147 C  
BRANCH  10  11
HETATM   11  C   UNL     1      -6.506  15.703  67.582  1.00  0.00    -0.191 A  
HETATM   12  C   UNL     1      -6.053  14.575  68.281  1.00  0.00    -0.118 A  
HETATM   13  C   UNL     1      -6.834  13.418  68.361  1.00  0.00    -0.102 A  
HETATM   14  C   UNL     1      -8.083  13.372  67.747  1.00  0.00    -0.173 A  
HETATM   15  C   UNL     1      -8.555  14.485  67.056  1.00  0.00    -0.241 A  
HETATM   16  C   UNL     1      -7.775  15.641  66.977  1.00  0.00    -0.257 A  
ENDBRANCH  10  11
ENDBRANCH   5  10
TORSDOF 2
ENDMDL
MODEL      215
REMARK 921   NORMALIZED FREE ENERGY PREDICTED BY IDOCK:   -2.48 KCAL/MOL
REMARK 922        TOTAL FREE ENERGY PREDICTED BY IDOCK:   -2.94 KCAL/MOL
REMARK 923 INTER-LIGAND FREE ENERGY PREDICTED BY IDOCK:   -2.75 KCAL/MOL
REMARK 924 INTRA-LIGAND FREE ENERGY PREDICTED BY IDOCK:   -0.19 KCAL/MOL
REMARK 927      BINDING AFFINITY PREDICTED BY RF-SCORE:    0.00 PKD
ROOT
HETATM    1  C   UNL     1      -9.933  15.923  66.608  1.00  0.00    -0.257 C  
HETATM    2  N   UNL     1     -10.739  15.244  65.629  1.00  0.00    -0.344 NA 
HETATM    3  H   UNL     1     -10.842  15.723  64.734  1.00  0.00     0.000 HD 
HETATM    4  C   UNL     1     -11.385  14.046  65.734  1.00  0.00    -0.312 C  
HETATM    5  N   UNL     1     -11.047  13.320  66.839  1.00  0.00    -0.283 NA 
HETATM    6  N   UNL     1     -12.248  13.595  64.892  1.00  0.00    -0.397 NA 
HETATM    7  C   UNL     1     -12.570  14.362  63.703  1.00  0.00     0.545 C  
HETATM    8  H   UNL     1     -10.482  13.762  67.565  1.00  0.00     0.000 HD 
HETATM    9  H   UNL     1     -12.705  12.699  65.061  1.00  0.00     0.000 HD 
ENDROOT
BRANCH   5  10
HETATM   10  C   UNL     1     -11.464  11.940  67.020  1.00  0.00    -0.316 C  
BRANCH  10  11
HETATM   11  C   UNL     1     -10.427  10.905  66.621  1.00  0.00    -0.307 A  
HETATM   12  C   UNL     1      -9.937  10.758  65.315  1.00  0.00    -0.342 A  
HETATM   13  C   UNL     1      -8.996   9.771  65.007  1.00  0.00    -0.247 A  
HETATM   14  C   UNL     1      -8.529   8.914  66.001  1.00  0.00    -0.138 A  
HETATM   15  C   UNL     1      -8.996   9.049  67.305  1.00  0.00    -0.139 A  
HETATM   16  C   UNL     1      -9.935  10.037  67.614  1.00  0.00    -0.214 A  
ENDBRANCH  10  11
ENDBRANCH   5  10
TORSDOF 2
ENDMDL
MODEL      216
REMARK 921   NORMALIZED FREE ENERGY PREDICTED BY IDOCK:   -2.47 KCAL/MOL
REMARK 922        TOTAL FREE ENERGY PREDICTED BY IDOCK:   -2.94 KCAL/MOL
REMARK 923 INTER-LIGAND FREE ENERGY PREDICTED BY IDOCK:   -2.87 KCAL/MOL
REMARK 924 INTRA-LIGAND FREE ENERGY PREDICTED BY IDOCK:   -0.07 KCAL/MOL
REMARK 927      BINDING AFFINITY PREDICTED BY RF-SCORE:    0.00 PKD
ROOT
HETATM    1  C   UNL     1      -7.737   8.070  72.567  1.00  0.00    -0.120 C  
HETATM    2  N   UNL     1      -9.147   8.273  72.365  1.00  0.00    -0.215 NA 
HETATM    3  H   UNL     1      -9.673   8.569  73.187  1.00  0.00     0.000 HD 
HETATM    4  C   UNL     1      -9.877   8.125  71.221  1.00  0.00    -0.164 C  
HETATM    5  N   UNL     1      -9.127   7.960  70.092  1.00  0.00    -0.152 NA 
HETATM    6  N   UNL     1     -11.163   8.132  71.157  1.00  0.00    -0.252 NA 
HETATM    7  C   UNL     1     -11.946   8.345  72.360  1.00  0.00    -0.384 C  
HETATM    8  H   UNL     1      -8.123   7.805  70.187  1.00  0.00     0.000 HD 
HETATM    9  H   UNL     1     -11.631   7.987  70.263  1.00  0.00     0.000 HD 
ENDROOT
BRANCH   5  10
HETATM   10  C   UNL     1      -9.707   7.995  68.760  1.00  0.00    -0.156 C  
BRANCH  10  11
HETATM   11  C   UNL     1      -9.803   9.381  68.145  1.00  0.00    -0.183 A  
HETATM   12  C   UNL     1      -9.528  10.564  68.847  1.00  0.00    -0.199 A  
HETATM   13  C   UNL     1      -9.655  11.811  68.229  1.00  0.00    -0.199 A  
HETATM   14  C   UNL     1     -10.057  11.896  66.898  1.00  0.00    -0.229 A  
HETATM   15  C   UNL     1     -10.326  10.734  66.182  1.00  0.00    -0.300 A  
HETATM   16  C   UNL     1     -10.198   9.487  66.799  1.00  0.00    -0.313 A  
ENDBRANCH  10  11
ENDBRANCH   5  10
TORSDOF 2
ENDMDL
MODEL      217
REMARK 921   NORMALIZED FREE ENERGY PREDICTED BY IDOCK:   -2.37 KCAL/MOL
REMARK 922        TOTAL FREE ENERGY PREDICTED BY IDOCK:   -2.82 KCAL/MOL
REMARK 923 INTER-LIGAND FREE ENERGY PREDICTED BY IDOCK:   -2.64 KCAL/MOL
REMARK 924 INTRA-LIGAND FREE ENERGY PREDICTED BY IDOCK:   -0.17 KCAL/MOL
REMARK 927      BINDING AFFINITY PREDICTED BY RF-SCORE:    0.00 PKD
ROOT
HETATM    1  C   UNL     1     -11.039  11.950  65.114  1.00  0.00    -0.305 C  
HETATM    2  N   UNL     1      -9.952  11.361  64.377  1.00  0.00    -0.257 NA 
HETATM    3  H   UNL     1      -9.777  11.760  63.455  1.00  0.00     0.000 HD 
HETATM    4  C   UNL     1      -9.123  10.342  64.745  1.00  0.00    -0.213 C  
HETATM    5  N   UNL     1      -9.220   9.983  66.059  1.00  0.00    -0.154 NA 
HETATM    6  N   UNL     1      -8.302   9.736  63.960  1.00  0.00    -0.155 NA 
HETATM    7  C   UNL     1      -8.183  10.153  62.575  1.00  0.00    -0.151 C  
HETATM    8  H   UNL     1      -9.980  10.370  66.619  1.00  0.00     0.000 HD 
HETATM    9  H   UNL     1      -7.735   8.964  64.311  1.00  0.00     0.000 HD 
ENDROOT
BRANCH   5  10
HETATM   10  C   UNL     1      -8.281   9.070  66.688  1.00  0.00    -0.118 C  
BRANCH  10  11
HETATM   11  C   UNL     1      -8.920   7.994  67.548  1.00  0.00    -0.143 A  
HETATM   12  C   UNL     1     -10.189   7.449  67.298  1.00  0.00    -0.330 A  
HETATM   13  C   UNL     1     -10.731   6.475  68.141  1.00  0.00    -0.347 A  
HETATM   14  C   UNL     1     -10.012   6.026  69.247  1.00  0.00    -0.207 A  
HETATM   15  C   UNL     1      -8.748   6.547  69.507  1.00  0.00    -0.134 A  
HETATM   16  C   UNL     1      -8.205   7.520  68.664  1.00  0.00    -0.129 A  
ENDBRANCH  10  11
ENDBRANCH   5  10
TORSDOF 2
ENDMDL
MODEL      218
REMARK 921   NORMALIZED FREE ENERGY PREDICTED BY IDOCK:   -2.31 KCAL/MOL
REMARK 922        TOTAL FREE ENERGY PREDICTED BY IDOCK:   -2.75 KCAL/MOL
REMARK 923 INTER-LIGAND FREE ENERGY PREDICTED BY IDOCK:   -2.62 KCAL/MOL
REMARK 924 INTRA-LIGAND FREE ENERGY PREDICTED BY IDOCK:   -0.13 KCAL/MOL
REMARK 927      BINDING AFFINITY PREDICTED BY RF-SCORE:    0.00 PKD
ROOT
HETATM    1  C   UNL     1     -11.887  12.258  65.041  1.00  0.00    -0.357 C  
HETATM    2  N   UNL     1     -11.747  11.843  66.412  1.00  0.00    -0.541 NA 
HETATM    3  H   UNL     1     -12.565  11.392  66.822  1.00  0.00     0.000 HD 
HETATM    4  C   UNL     1     -10.668  11.971  67.237  1.00  0.00    -0.232 C  
HETATM    5  N   UNL     1      -9.521  12.359  66.609  1.00  0.00    -0.227 NA 
HETATM    6  N   UNL     1     -10.679  11.758  68.507  1.00  0.00    -0.211 NA 
HETATM    7  C   UNL     1     -11.898  11.310  69.156  1.00  0.00    -0.355 C  
HETATM    8  H   UNL     1      -9.572  12.669  65.638  1.00  0.00     0.000 HD 
HETATM    9  H   UNL     1      -9.832  11.903  69.057  1.00  0.00     0.000 HD 
ENDROOT
BRANCH   5  10
HETATM   10  C   UNL     1      -8.228  12.349  67.273  1.00  0.00    -0.184 C  
BRANCH  10  11
HETATM   11  C   UNL     1      -7.464  11.041  67.156  1.00  0.00    -0.117 A  
HETATM   12  C   UNL     1      -7.795   9.880  67.872  1.00  0.00    -0.090 A  
HETATM   13  C   UNL     1      -7.039   8.713  67.736  1.00  0.00    -0.079 A  
HETATM   14  C   UNL     1      -5.940   8.685  66.880  1.00  0.00    -0.057 A  
HETATM   15  C   UNL     1      -5.601   9.823  66.154  1.00  0.00    -0.052 A  
HETATM   16  C   UNL     1      -6.358  10.990  66.288  1.00  0.00    -0.119 A  
ENDBRANCH  10  11
ENDBRANCH   5  10
TORSDOF 2
ENDMDL
MODEL      219
REMARK 921   NORMALIZED FREE ENERGY PREDICTED BY IDOCK:   -2.29 KCAL/MOL
REMARK 922        TOTAL FREE ENERGY PREDICTED BY IDOCK:   -2.73 KCAL/MOL
REMARK 923 INTER-LIGAND FREE ENERGY PREDICTED BY IDOCK:   -2.57 KCAL/MOL
REMARK 924 INTRA-LIGAND FREE ENERGY PREDICTED BY IDOCK:   -0.16 KCAL/MOL
REMARK 927      BINDING AFFINITY PREDICTED BY RF-SCORE:    0.00 PKD
ROOT
HETATM    1  C   UNL     1      -7.683   3.824  67.559  1.00  0.00    -0.078 C  
HETATM    2  N   UNL     1      -8.678   3.848  66.520  1.00  0.00    -0.111 NA 
HETATM    3  H   UNL     1      -8.811   2.971  66.017  1.00  0.00     0.000 HD 
HETATM    4  C   UNL     1      -9.467   4.885  66.115  1.00  0.00    -0.161 C  
HETATM    5  N   UNL     1      -9.441   5.969  66.944  1.00  0.00    -0.129 NA 
HETATM    6  N   UNL     1     -10.192   4.892  65.051  1.00  0.00    -0.395 NA 
HETATM    7  C   UNL     1     -10.238   3.719  64.199  1.00  0.00    -0.235 C  
HETATM    8  H   UNL     1      -8.748   6.000  67.693  1.00  0.00     0.000 HD 
HETATM    9  H   UNL     1     -10.733   5.722  64.807  1.00  0.00     0.000 HD 
ENDROOT
BRANCH   5  10
HETATM   10  C   UNL     1     -10.365   7.082  66.800  1.00  0.00    -0.221 C  
BRANCH  10  11
HETATM   11  C   UNL     1      -9.725   8.456  66.898  1.00  0.00    -0.292 A  
HETATM   12  C   UNL     1      -9.854   9.445  65.912  1.00  0.00    -0.362 A  
HETATM   13  C   UNL     1      -9.222  10.684  66.051  1.00  0.00    -0.208 A  
HETATM   14  C   UNL     1      -8.453  10.956  67.181  1.00  0.00    -0.128 A  
HETATM   15  C   UNL     1      -8.321   9.991  68.175  1.00  0.00    -0.113 A  
HETATM   16  C   UNL     1      -8.954   8.753  68.036  1.00  0.00    -0.141 A  
ENDBRANCH  10  11
ENDBRANCH   5  10
TORSDOF 2
ENDMDL
MODEL      220
REMARK 921   NORMALIZED FREE ENERGY PREDICTED BY IDOCK:   -2.17 KCAL/MOL
REMARK 922        TOTAL FREE ENERGY PREDICTED BY IDOCK:   -2.59 KCAL/MOL
REMARK 923 INTER-LIGAND FREE ENERGY PREDICTED BY IDOCK:   -2.42 KCAL/MOL
REMARK 924 INTRA-LIGAND FREE ENERGY PREDICTED BY IDOCK:   -0.17 KCAL/MOL
REMARK 927      BINDING AFFINITY PREDICTED BY RF-SCORE:    0.00 PKD
ROOT
HETATM    1  C   UNL     1     -10.867  11.539  65.183  1.00  0.00    -0.265 C  
HETATM    2  N   UNL     1      -9.744  11.138  64.378  1.00  0.00    -0.252 NA 
HETATM    3  H   UNL     1      -9.497  11.772  63.619  1.00  0.00     0.000 HD 
HETATM    4  C   UNL     1      -8.966  10.022  64.492  1.00  0.00    -0.226 C  
HETATM    5  N   UNL     1      -9.163   9.313  65.641  1.00  0.00    -0.215 NA 
HETATM    6  N   UNL     1      -8.106   9.628  63.619  1.00  0.00    -0.140 NA 
HETATM    7  C   UNL     1      -7.881  10.412  62.418  1.00  0.00    -0.156 C  
HETATM    8  H   UNL     1      -9.951   9.558  66.241  1.00  0.00     0.000 HD 
HETATM    9  H   UNL     1      -7.583   8.766  63.770  1.00  0.00     0.000 HD 
ENDROOT
BRANCH   5  10
HETATM   10  C   UNL     1      -8.291   8.222  66.042  1.00  0.00    -0.128 C  
BRANCH  10  11
HETATM   11  C   UNL     1      -8.994   6.894  66.261  1.00  0.00    -0.172 A  
HETATM   12  C   UNL     1     -10.034   6.708  67.183  1.00  0.00    -0.209 A  
HETATM   13  C   UNL     1     -10.627   5.453  67.353  1.00  0.00    -0.228 A  
HETATM   14  C   UNL     1     -10.191   4.364  66.602  1.00  0.00    -0.127 A  
HETATM   15  C   UNL     1      -9.166   4.530  65.675  1.00  0.00    -0.149 A  
HETATM   16  C   UNL     1      -8.574   5.785  65.504  1.00  0.00    -0.151 A  
ENDBRANCH  10  11
ENDBRANCH   5  10
TORSDOF 2
ENDMDL
MODEL      221
REMARK 921   NORMALIZED FREE ENERGY PREDICTED BY IDOCK:   -2.16 KCAL/MOL
REMARK 922        TOTAL FREE ENERGY PREDICTED BY IDOCK:   -2.59 KCAL/MOL
REMARK 923 INTER-LIGAND FREE ENERGY PREDICTED BY IDOCK:   -2.43 KCAL/MOL
REMARK 924 INTRA-LIGAND FREE ENERGY PREDICTED BY IDOCK:   -0.16 KCAL/MOL
REMARK 927      BINDING AFFINITY PREDICTED BY RF-SCORE:    0.00 PKD
ROOT
HETATM    1  C   UNL     1     -10.521   4.384  73.008  1.00  0.00    -0.183 C  
HETATM    2  N   UNL     1     -11.242   5.517  72.489  1.00  0.00    -0.277 NA 
HETATM    3  H   UNL     1     -11.965   5.897  73.100  1.00  0.00     0.000 HD 
HETATM    4  C   UNL     1     -11.089   6.151  71.291  1.00  0.00    -0.291 C  
HETATM    5  N   UNL     1      -9.975   5.780  70.595  1.00  0.00    -0.185 NA 
HETATM    6  N   UNL     1     -11.898   7.030  70.810  1.00  0.00    -0.383 NA 
HETATM    7  C   UNL     1     -13.060   7.440  71.578  1.00  0.00    -0.374 C  
HETATM    8  H   UNL     1      -9.435   4.978  70.922  1.00  0.00     0.000 HD 
HETATM    9  H   UNL     1     -11.724   7.437  69.892  1.00  0.00     0.000 HD 
ENDROOT
BRANCH   5  10
HETATM   10  C   UNL     1      -9.529   6.487  69.406  1.00  0.00    -0.145 C  
BRANCH  10  11
HETATM   11  C   UNL     1      -8.552   7.620  69.669  1.00  0.00    -0.136 A  
HETATM   12  C   UNL     1      -8.268   8.633  68.741  1.00  0.00    -0.121 A  
HETATM   13  C   UNL     1      -7.342   9.638  69.036  1.00  0.00    -0.073 A  
HETATM   14  C   UNL     1      -6.685   9.647  70.264  1.00  0.00    -0.099 A  
HETATM   15  C   UNL     1      -6.959   8.656  71.202  1.00  0.00    -0.078 A  
HETATM   16  C   UNL     1      -7.886   7.652  70.908  1.00  0.00    -0.090 A  
ENDBRANCH  10  11
ENDBRANCH   5  10
TORSDOF 2
ENDMDL
MODEL      222
REMARK 921   NORMALIZED FREE ENERGY PREDICTED BY IDOCK:   -2.14 KCAL/MOL
REMARK 922        TOTAL FREE ENERGY PREDICTED BY IDOCK:   -2.57 KCAL/MOL
REMARK 923 INTER-LIGAND FREE ENERGY PREDICTED BY IDOCK:   -2.42 KCAL/MOL
REMARK 924 INTRA-LIGAND FREE ENERGY PREDICTED BY IDOCK:   -0.14 KCAL/MOL
REMARK 927      BINDING AFFINITY PREDICTED BY RF-SCORE:    0.00 PKD
ROOT
HETATM    1  C   UNL     1      -8.017   5.047  66.258  1.00  0.00    -0.107 C  
HETATM    2  N   UNL     1      -8.524   5.038  67.605  1.00  0.00    -0.105 NA 
HETATM    3  H   UNL     1      -8.440   4.151  68.102  1.00  0.00     0.000 HD 
HETATM    4  C   UNL     1      -9.103   6.055  68.307  1.00  0.00    -0.111 C  
HETATM    5  N   UNL     1      -8.995   7.280  67.716  1.00  0.00    -0.127 NA 
HETATM    6  N   UNL     1      -9.711   5.923  69.434  1.00  0.00    -0.146 NA 
HETATM    7  C   UNL     1      -9.786   4.620  70.068  1.00  0.00    -0.224 C  
HETATM    8  H   UNL     1      -8.647   7.335  66.758  1.00  0.00     0.000 HD 
HETATM    9  H   UNL     1     -10.141   6.734  69.880  1.00  0.00     0.000 HD 
ENDROOT
BRANCH   5  10
HETATM   10  C   UNL     1      -9.359   8.509  68.400  1.00  0.00    -0.134 C  
BRANCH  10  11
HETATM   11  C   UNL     1      -9.796   9.641  67.485  1.00  0.00    -0.213 A  
HETATM   12  C   UNL     1     -11.029  10.301  67.600  1.00  0.00    -0.356 A  
HETATM   13  C   UNL     1     -11.381  11.322  66.712  1.00  0.00    -0.187 A  
HETATM   14  C   UNL     1     -10.506  11.701  65.697  1.00  0.00    -0.314 A  
HETATM   15  C   UNL     1      -9.275  11.065  65.572  1.00  0.00    -0.235 A  
HETATM   16  C   UNL     1      -8.922  10.045  66.460  1.00  0.00    -0.162 A  
ENDBRANCH  10  11
ENDBRANCH   5  10
TORSDOF 2
ENDMDL
MODEL      223
REMARK 921   NORMALIZED FREE ENERGY PREDICTED BY IDOCK:   -2.11 KCAL/MOL
REMARK 922        TOTAL FREE ENERGY PREDICTED BY IDOCK:   -2.53 KCAL/MOL
REMARK 923 INTER-LIGAND FREE ENERGY PREDICTED BY IDOCK:   -2.31 KCAL/MOL
REMARK 924 INTRA-LIGAND FREE ENERGY PREDICTED BY IDOCK:   -0.22 KCAL/MOL
REMARK 927      BINDING AFFINITY PREDICTED BY RF-SCORE:    0.00 PKD
ROOT
HETATM    1  C   UNL     1      -6.617   8.790  72.528  1.00  0.00     0.015 C  
HETATM    2  N   UNL     1      -8.007   8.417  72.494  1.00  0.00    -0.271 NA 
HETATM    3  H   UNL     1      -8.603   8.872  73.185  1.00  0.00     0.000 HD 
HETATM    4  C   UNL     1      -8.635   7.536  71.663  1.00  0.00    -0.115 C  
HETATM    5  N   UNL     1      -7.876   7.119  70.607  1.00  0.00    -0.094 NA 
HETATM    6  N   UNL     1      -9.837   7.102  71.816  1.00  0.00    -0.162 NA 
HETATM    7  C   UNL     1     -10.644   7.583  72.923  1.00  0.00    -0.337 C  
HETATM    8  H   UNL     1      -6.883   7.354  70.592  1.00  0.00     0.000 HD 
HETATM    9  H   UNL     1     -10.223   6.422  71.161  1.00  0.00     0.000 HD 
ENDROOT
BRANCH   5  10
HETATM   10  C   UNL     1      -8.431   6.351  69.505  1.00  0.00    -0.133 C  
BRANCH  10  11
HETATM   11  C   UNL     1      -8.791   7.170  68.278  1.00  0.00    -0.127 A  
HETATM   12  C   UNL     1     -10.084   7.646  68.012  1.00  0.00    -0.226 A  
HETATM   13  C   UNL     1     -10.355   8.378  66.852  1.00  0.00    -0.378 A  
HETATM   14  C   UNL     1      -9.338   8.648  65.940  1.00  0.00    -0.262 A  
HETATM   15  C   UNL     1      -8.047   8.192  66.189  1.00  0.00    -0.109 A  
HETATM   16  C   UNL     1      -7.775   7.462  67.350  1.00  0.00    -0.114 A  
ENDBRANCH  10  11
ENDBRANCH   5  10
TORSDOF 2
ENDMDL
MODEL      224
REMARK 921   NORMALIZED FREE ENERGY PREDICTED BY IDOCK:   -1.93 KCAL/MOL
REMARK 922        TOTAL FREE ENERGY PREDICTED BY IDOCK:   -2.33 KCAL/MOL
REMARK 923 INTER-LIGAND FREE ENERGY PREDICTED BY IDOCK:   -2.19 KCAL/MOL
REMARK 924 INTRA-LIGAND FREE ENERGY PREDICTED BY IDOCK:   -0.14 KCAL/MOL
REMARK 927      BINDING AFFINITY PREDICTED BY RF-SCORE:    0.00 PKD
ROOT
HETATM    1  C   UNL     1      -8.409   5.676  67.351  1.00  0.00    -0.100 C  
HETATM    2  N   UNL     1      -9.186   6.856  67.079  1.00  0.00    -0.137 NA 
HETATM    3  H   UNL     1      -9.518   6.954  66.120  1.00  0.00     0.000 HD 
HETATM    4  C   UNL     1      -9.540   7.861  67.931  1.00  0.00    -0.147 C  
HETATM    5  N   UNL     1      -9.290   7.599  69.247  1.00  0.00    -0.148 NA 
HETATM    6  N   UNL     1     -10.066   8.981  67.575  1.00  0.00    -0.211 NA 
HETATM    7  C   UNL     1     -10.360   9.231  66.176  1.00  0.00    -0.048 C  
HETATM    8  H   UNL     1      -8.736   6.776  69.488  1.00  0.00     0.000 HD 
HETATM    9  H   UNL     1     -10.277   9.692  68.276  1.00  0.00     0.000 HD 
ENDROOT
BRANCH   5  10
HETATM   10  C   UNL     1      -9.783   8.450  70.317  1.00  0.00    -0.172 C  
BRANCH  10  11
HETATM   11  C   UNL     1      -8.983   8.377  71.606  1.00  0.00    -0.261 A  
HETATM   12  C   UNL     1      -7.587   8.498  71.663  1.00  0.00    -0.135 A  
HETATM   13  C   UNL     1      -6.906   8.402  72.880  1.00  0.00    -0.100 A  
HETATM   14  C   UNL     1      -7.611   8.185  74.062  1.00  0.00    -0.244 A  
HETATM   15  C   UNL     1      -8.998   8.072  74.029  1.00  0.00    -0.131 A  
HETATM   16  C   UNL     1      -9.678   8.169  72.812  1.00  0.00    -0.351 A  
ENDBRANCH  10  11
ENDBRANCH   5  10
TORSDOF 2
ENDMDL
MODEL      225
REMARK 921   NORMALIZED FREE ENERGY PREDICTED BY IDOCK:   -1.92 KCAL/MOL
REMARK 922        TOTAL FREE ENERGY PREDICTED BY IDOCK:   -2.32 KCAL/MOL
REMARK 923 INTER-LIGAND FREE ENERGY PREDICTED BY IDOCK:   -2.14 KCAL/MOL
REMARK 924 INTRA-LIGAND FREE ENERGY PREDICTED BY IDOCK:   -0.19 KCAL/MOL
REMARK 927      BINDING AFFINITY PREDICTED BY RF-SCORE:    0.00 PKD
ROOT
HETATM    1  C   UNL     1     -10.426   8.177  67.534  1.00  0.00    -0.256 C  
HETATM    2  N   UNL     1     -10.800   9.554  67.351  1.00  0.00    -0.373 NA 
HETATM    3  H   UNL     1     -11.793   9.760  67.463  1.00  0.00     0.000 HD 
HETATM    4  C   UNL     1     -10.007  10.622  67.049  1.00  0.00    -0.202 C  
HETATM    5  N   UNL     1      -8.668  10.371  67.134  1.00  0.00    -0.130 NA 
HETATM    6  N   UNL     1     -10.434  11.787  66.706  1.00  0.00    -0.219 NA 
HETATM    7  C   UNL     1     -11.860  12.050  66.655  1.00  0.00    -0.159 C  
HETATM    8  H   UNL     1      -8.355   9.407  67.257  1.00  0.00     0.000 HD 
HETATM    9  H   UNL     1      -9.771  12.526  66.470  1.00  0.00     0.000 HD 
ENDROOT
BRANCH   5  10
HETATM   10  C   UNL     1      -7.672  11.426  67.055  1.00  0.00    -0.154 C  
BRANCH  10  11
HETATM   11  C   UNL     1      -6.943  11.710  68.358  1.00  0.00    -0.079 A  
HETATM   12  C   UNL     1      -6.621  10.723  69.300  1.00  0.00    -0.074 A  
HETATM   13  C   UNL     1      -5.967  11.052  70.491  1.00  0.00    -0.116 A  
HETATM   14  C   UNL     1      -5.622  12.375  70.758  1.00  0.00    -0.150 A  
HETATM   15  C   UNL     1      -5.923  13.369  69.831  1.00  0.00    -0.133 A  
HETATM   16  C   UNL     1      -6.576  13.039  68.640  1.00  0.00    -0.092 A  
ENDBRANCH  10  11
ENDBRANCH   5  10
TORSDOF 2
ENDMDL
MODEL      226
REMARK 921   NORMALIZED FREE ENERGY PREDICTED BY IDOCK:   -1.92 KCAL/MOL
REMARK 922        TOTAL FREE ENERGY PREDICTED BY IDOCK:   -2.32 KCAL/MOL
REMARK 923 INTER-LIGAND FREE ENERGY PREDICTED BY IDOCK:   -2.17 KCAL/MOL
REMARK 924 INTRA-LIGAND FREE ENERGY PREDICTED BY IDOCK:   -0.15 KCAL/MOL
REMARK 927      BINDING AFFINITY PREDICTED BY RF-SCORE:    0.00 PKD
ROOT
HETATM    1  C   UNL     1     -10.263   7.290  66.710  1.00  0.00    -0.235 C  
HETATM    2  N   UNL     1      -9.434   8.462  66.813  1.00  0.00    -0.180 NA 
HETATM    3  H   UNL     1      -9.303   8.986  65.948  1.00  0.00     0.000 HD 
HETATM    4  C   UNL     1      -8.800   8.967  67.911  1.00  0.00    -0.129 C  
HETATM    5  N   UNL     1      -9.173   8.393  69.091  1.00  0.00    -0.150 NA 
HETATM    6  N   UNL     1      -7.917   9.904  67.889  1.00  0.00    -0.104 NA 
HETATM    7  C   UNL     1      -7.557  10.531  66.631  1.00  0.00    -0.120 C  
HETATM    8  H   UNL     1      -9.756   7.555  69.068  1.00  0.00     0.000 HD 
HETATM    9  H   UNL     1      -7.471  10.206  68.755  1.00  0.00     0.000 HD 
ENDROOT
BRANCH   5  10
HETATM   10  C   UNL     1      -8.771   8.930  70.380  1.00  0.00    -0.180 C  
BRANCH  10  11
HETATM   11  C   UNL     1      -8.796   7.930  71.522  1.00  0.00    -0.160 A  
HETATM   12  C   UNL     1      -8.959   6.548  71.342  1.00  0.00    -0.140 A  
HETATM   13  C   UNL     1      -8.995   5.680  72.437  1.00  0.00    -0.135 A  
HETATM   14  C   UNL     1      -8.867   6.180  73.731  1.00  0.00    -0.125 A  
HETATM   15  C   UNL     1      -8.696   7.547  73.931  1.00  0.00    -0.280 A  
HETATM   16  C   UNL     1      -8.658   8.414  72.836  1.00  0.00    -0.232 A  
ENDBRANCH  10  11
ENDBRANCH   5  10
TORSDOF 2
ENDMDL
MODEL      227
REMARK 921   NORMALIZED FREE ENERGY PREDICTED BY IDOCK:   -1.77 KCAL/MOL
REMARK 922        TOTAL FREE ENERGY PREDICTED BY IDOCK:   -2.15 KCAL/MOL
REMARK 923 INTER-LIGAND FREE ENERGY PREDICTED BY IDOCK:   -2.01 KCAL/MOL
REMARK 924 INTRA-LIGAND FREE ENERGY PREDICTED BY IDOCK:   -0.14 KCAL/MOL
REMARK 927      BINDING AFFINITY PREDICTED BY RF-SCORE:    0.00 PKD
ROOT
HETATM    1  C   UNL     1     -11.025   6.456  67.100  1.00  0.00    -0.399 C  
HETATM    2  N   UNL     1      -9.975   7.332  67.548  1.00  0.00    -0.156 NA 
HETATM    3  H   UNL     1      -9.842   8.179  66.996  1.00  0.00     0.000 HD 
HETATM    4  C   UNL     1      -9.133   7.183  68.612  1.00  0.00    -0.133 C  
HETATM    5  N   UNL     1      -9.476   6.174  69.465  1.00  0.00    -0.139 NA 
HETATM    6  N   UNL     1      -8.091   7.904  68.837  1.00  0.00    -0.123 NA 
HETATM    7  C   UNL     1      -7.759   8.997  67.942  1.00  0.00    -0.097 C  
HETATM    8  H   UNL     1     -10.212   5.523  69.186  1.00  0.00     0.000 HD 
HETATM    9  H   UNL     1      -7.498   7.708  69.644  1.00  0.00     0.000 HD 
ENDROOT
BRANCH   5  10
HETATM   10  C   UNL     1      -8.832   5.992  70.755  1.00  0.00    -0.139 C  
BRANCH  10  11
HETATM   11  C   UNL     1      -8.897   4.578  71.304  1.00  0.00    -0.154 A  
HETATM   12  C   UNL     1      -7.853   3.648  71.183  1.00  0.00    -0.059 A  
HETATM   13  C   UNL     1      -7.983   2.353  71.692  1.00  0.00    -0.048 A  
HETATM   14  C   UNL     1      -9.157   1.966  72.333  1.00  0.00    -0.109 A  
HETATM   15  C   UNL     1     -10.201   2.876  72.472  1.00  0.00    -0.222 A  
HETATM   16  C   UNL     1     -10.071   4.172  71.964  1.00  0.00    -0.234 A  
ENDBRANCH  10  11
ENDBRANCH   5  10
TORSDOF 2
ENDMDL
MODEL      228
REMARK 921   NORMALIZED FREE ENERGY PREDICTED BY IDOCK:   -1.71 KCAL/MOL
REMARK 922        TOTAL FREE ENERGY PREDICTED BY IDOCK:   -2.08 KCAL/MOL
REMARK 923 INTER-LIGAND FREE ENERGY PREDICTED BY IDOCK:   -1.88 KCAL/MOL
REMARK 924 INTRA-LIGAND FREE ENERGY PREDICTED BY IDOCK:   -0.20 KCAL/MOL
REMARK 927      BINDING AFFINITY PREDICTED BY RF-SCORE:    0.00 PKD
ROOT
HETATM    1  C   UNL     1      -8.186   5.086  67.334  1.00  0.00    -0.106 C  
HETATM    2  N   UNL     1      -8.121   6.225  66.456  1.00  0.00    -0.109 NA 
HETATM    3  H   UNL     1      -8.436   6.063  65.500  1.00  0.00     0.000 HD 
HETATM    4  C   UNL     1      -7.695   7.491  66.730  1.00  0.00    -0.102 C  
HETATM    5  N   UNL     1      -7.501   7.746  68.057  1.00  0.00    -0.105 NA 
HETATM    6  N   UNL     1      -7.478   8.406  65.850  1.00  0.00    -0.079 NA 
HETATM    7  C   UNL     1      -7.723   8.132  64.446  1.00  0.00    -0.126 C  
HETATM    8  H   UNL     1      -7.531   6.968  68.717  1.00  0.00     0.000 HD 
HETATM    9  H   UNL     1      -7.134   9.321  66.138  1.00  0.00     0.000 HD 
ENDROOT
BRANCH   5  10
HETATM   10  C   UNL     1      -7.253   9.085  68.564  1.00  0.00    -0.073 C  
BRANCH  10  11
HETATM   11  C   UNL     1      -8.503   9.900  68.846  1.00  0.00    -0.127 A  
HETATM   12  C   UNL     1      -8.834  11.078  68.161  1.00  0.00    -0.141 A  
HETATM   13  C   UNL     1      -9.991  11.795  68.482  1.00  0.00    -0.203 A  
HETATM   14  C   UNL     1     -10.837  11.344  69.493  1.00  0.00    -0.165 A  
HETATM   15  C   UNL     1     -10.531  10.172  70.179  1.00  0.00    -0.311 A  
HETATM   16  C   UNL     1      -9.375   9.455  69.857  1.00  0.00    -0.234 A  
ENDBRANCH  10  11
ENDBRANCH   5  10
TORSDOF 2
ENDMDL
MODEL      229
REMARK 921   NORMALIZED FREE ENERGY PREDICTED BY IDOCK:   -1.69 KCAL/MOL
REMARK 922        TOTAL FREE ENERGY PREDICTED BY IDOCK:   -2.06 KCAL/MOL
REMARK 923 INTER-LIGAND FREE ENERGY PREDICTED BY IDOCK:   -1.85 KCAL/MOL
REMARK 924 INTRA-LIGAND FREE ENERGY PREDICTED BY IDOCK:   -0.21 KCAL/MOL
REMARK 927      BINDING AFFINITY PREDICTED BY RF-SCORE:    0.00 PKD
ROOT
HETATM    1  C   UNL     1      -5.946   2.639  66.616  1.00  0.00    -0.023 C  
HETATM    2  N   UNL     1      -7.143   2.527  65.826  1.00  0.00    -0.062 NA 
HETATM    3  H   UNL     1      -7.515   1.583  65.721  1.00  0.00     0.000 HD 
HETATM    4  C   UNL     1      -7.849   3.512  65.199  1.00  0.00    -0.086 C  
HETATM    5  N   UNL     1      -7.473   4.779  65.540  1.00  0.00    -0.080 NA 
HETATM    6  N   UNL     1      -8.795   3.317  64.348  1.00  0.00    -0.101 NA 
HETATM    7  C   UNL     1      -9.208   1.965  64.021  1.00  0.00    -0.114 C  
HETATM    8  H   UNL     1      -6.626   4.908  66.095  1.00  0.00     0.000 HD 
HETATM    9  H   UNL     1      -9.255   4.112  63.903  1.00  0.00     0.000 HD 
ENDROOT
BRANCH   5  10
HETATM   10  C   UNL     1      -8.236   5.950  65.144  1.00  0.00    -0.141 C  
BRANCH  10  11
HETATM   11  C   UNL     1      -9.046   6.589  66.259  1.00  0.00    -0.168 A  
HETATM   12  C   UNL     1     -10.331   6.164  66.628  1.00  0.00    -0.249 A  
HETATM   13  C   UNL     1     -11.034   6.808  67.650  1.00  0.00    -0.346 A  
HETATM   14  C   UNL     1     -10.463   7.887  68.322  1.00  0.00    -0.212 A  
HETATM   15  C   UNL     1      -9.185   8.318  67.977  1.00  0.00    -0.142 A  
HETATM   16  C   UNL     1      -8.482   7.673  66.956  1.00  0.00    -0.125 A  
ENDBRANCH  10  11
ENDBRANCH   5  10
TORSDOF 2
ENDMDL
MODEL      230
REMARK 921   NORMALIZED FREE ENERGY PREDICTED BY IDOCK:   -1.67 KCAL/MOL
REMARK 922        TOTAL FREE ENERGY PREDICTED BY IDOCK:   -2.04 KCAL/MOL
REMARK 923 INTER-LIGAND FREE ENERGY PREDICTED BY IDOCK:   -1.88 KCAL/MOL
REMARK 924 INTRA-LIGAND FREE ENERGY PREDICTED BY IDOCK:   -0.15 KCAL/MOL
REMARK 927      BINDING AFFINITY PREDICTED BY RF-SCORE:    0.00 PKD
ROOT
HETATM    1  C   UNL     1      -9.723   9.157  66.007  1.00  0.00    -0.287 C  
HETATM    2  N   UNL     1      -8.426   9.328  65.409  1.00  0.00    -0.136 NA 
HETATM    3  H   UNL     1      -7.893  10.134  65.735  1.00  0.00     0.000 HD 
HETATM    4  C   UNL     1      -7.811   8.558  64.465  1.00  0.00    -0.138 C  
HETATM    5  N   UNL     1      -8.433   7.369  64.215  1.00  0.00    -0.362 NA 
HETATM    6  N   UNL     1      -6.736   8.880  63.833  1.00  0.00    -0.087 NA 
HETATM    7  C   UNL     1      -6.066  10.132  64.134  1.00  0.00    -0.137 C  
HETATM    8  H   UNL     1      -9.358   7.205  64.613  1.00  0.00     0.000 HD 
HETATM    9  H   UNL     1      -6.356   8.257  63.120  1.00  0.00     0.000 HD 
ENDROOT
BRANCH   5  10
HETATM   10  C   UNL     1      -7.825   6.328  63.404  1.00  0.00    -0.110 C  
BRANCH  10  11
HETATM   11  C   UNL     1      -8.169   4.911  63.826  1.00  0.00    -0.122 A  
HETATM   12  C   UNL     1      -9.285   4.582  64.611  1.00  0.00    -0.145 A  
HETATM   13  C   UNL     1      -9.535   3.259  64.984  1.00  0.00    -0.145 A  
HETATM   14  C   UNL     1      -8.676   2.241  64.577  1.00  0.00    -0.099 A  
HETATM   15  C   UNL     1      -7.568   2.544  63.791  1.00  0.00    -0.067 A  
HETATM   16  C   UNL     1      -7.318   3.867  63.416  1.00  0.00    -0.051 A  
ENDBRANCH  10  11
ENDBRANCH   5  10
TORSDOF 2
ENDMDL
MODEL      231
REMARK 921   NORMALIZED FREE ENERGY PREDICTED BY IDOCK:   -1.65 KCAL/MOL
REMARK 922        TOTAL FREE ENERGY PREDICTED BY IDOCK:   -2.02 KCAL/MOL
REMARK 923 INTER-LIGAND FREE ENERGY PREDICTED BY IDOCK:   -1.84 KCAL/MOL
REMARK 924 INTRA-LIGAND FREE ENERGY PREDICTED BY IDOCK:   -0.18 KCAL/MOL
REMARK 927      BINDING AFFINITY PREDICTED BY RF-SCORE:    0.00 PKD
ROOT
HETATM    1  C   UNL     1      -9.416   3.366  65.242  1.00  0.00    -0.145 C  
HETATM    2  N   UNL     1     -10.073   4.413  65.979  1.00  0.00    -0.305 NA 
HETATM    3  H   UNL     1     -10.688   5.017  65.434  1.00  0.00     0.000 HD 
HETATM    4  C   UNL     1      -9.984   4.708  67.308  1.00  0.00    -0.159 C  
HETATM    5  N   UNL     1      -9.348   3.759  68.055  1.00  0.00    -0.171 NA 
HETATM    6  N   UNL     1     -10.442   5.777  67.861  1.00  0.00    -0.220 NA 
HETATM    7  C   UNL     1     -11.147   6.761  67.061  1.00  0.00    -0.299 C  
HETATM    8  H   UNL     1      -8.863   3.000  67.575  1.00  0.00     0.000 HD 
HETATM    9  H   UNL     1     -10.309   5.933  68.861  1.00  0.00     0.000 HD 
ENDROOT
BRANCH   5  10
HETATM   10  C   UNL     1      -9.338   3.789  69.508  1.00  0.00    -0.179 C  
BRANCH  10  11
HETATM   11  C   UNL     1      -8.130   4.477  70.120  1.00  0.00    -0.063 A  
HETATM   12  C   UNL     1      -6.804   4.157  69.795  1.00  0.00    -0.041 A  
HETATM   13  C   UNL     1      -5.735   4.814  70.410  1.00  0.00    -0.016 A  
HETATM   14  C   UNL     1      -5.974   5.804  71.361  1.00  0.00    -0.030 A  
HETATM   15  C   UNL     1      -7.283   6.143  71.691  1.00  0.00    -0.087 A  
HETATM   16  C   UNL     1      -8.352   5.487  71.075  1.00  0.00    -0.121 A  
ENDBRANCH  10  11
ENDBRANCH   5  10
TORSDOF 2
ENDMDL
MODEL      232
REMARK 921   NORMALIZED FREE ENERGY PREDICTED BY IDOCK:   -1.62 KCAL/MOL
REMARK 922        TOTAL FREE ENERGY PREDICTED BY IDOCK:   -1.98 KCAL/MOL
REMARK 923 INTER-LIGAND FREE ENERGY PREDICTED BY IDOCK:   -1.76 KCAL/MOL
REMARK 924 INTRA-LIGAND FREE ENERGY PREDICTED BY IDOCK:   -0.22 KCAL/MOL
REMARK 927      BINDING AFFINITY PREDICTED BY RF-SCORE:    0.00 PKD
ROOT
HETATM    1  C   UNL     1     -11.154   6.131  66.927  1.00  0.00    -0.219 C  
HETATM    2  N   UNL     1      -9.778   6.038  67.337  1.00  0.00    -0.111 NA 
HETATM    3  H   UNL     1      -9.138   6.687  66.882  1.00  0.00     0.000 HD 
HETATM    4  C   UNL     1      -9.215   5.199  68.254  1.00  0.00    -0.117 C  
HETATM    5  N   UNL     1     -10.114   4.507  69.013  1.00  0.00    -0.075 NA 
HETATM    6  N   UNL     1      -7.949   5.035  68.427  1.00  0.00    -0.086 NA 
HETATM    7  C   UNL     1      -7.005   5.804  67.637  1.00  0.00    -0.066 C  
HETATM    8  H   UNL     1     -11.101   4.538  68.755  1.00  0.00     0.000 HD 
HETATM    9  H   UNL     1      -7.610   4.366  69.118  1.00  0.00     0.000 HD 
ENDROOT
BRANCH   5  10
HETATM   10  C   UNL     1      -9.717   3.729  70.174  1.00  0.00    -0.147 C  
BRANCH  10  11
HETATM   11  C   UNL     1      -9.831   4.461  71.499  1.00  0.00    -0.259 A  
HETATM   12  C   UNL     1     -11.053   4.777  72.111  1.00  0.00     0.072 A  
HETATM   13  C   UNL     1     -11.091   5.473  73.323  1.00  0.00    -0.322 A  
HETATM   14  C   UNL     1      -9.908   5.862  73.945  1.00  0.00    -0.189 A  
HETATM   15  C   UNL     1      -8.684   5.550  73.360  1.00  0.00    -0.114 A  
HETATM   16  C   UNL     1      -8.646   4.853  72.149  1.00  0.00    -0.126 A  
ENDBRANCH  10  11
ENDBRANCH   5  10
TORSDOF 2
ENDMDL
MODEL      233
REMARK 921   NORMALIZED FREE ENERGY PREDICTED BY IDOCK:   -1.39 KCAL/MOL
REMARK 922        TOTAL FREE ENERGY PREDICTED BY IDOCK:   -1.73 KCAL/MOL
REMARK 923 INTER-LIGAND FREE ENERGY PREDICTED BY IDOCK:   -1.61 KCAL/MOL
REMARK 924 INTRA-LIGAND FREE ENERGY PREDICTED BY IDOCK:   -0.12 KCAL/MOL
REMARK 927      BINDING AFFINITY PREDICTED BY RF-SCORE:    0.00 PKD
ROOT
HETATM    1  C   UNL     1      -7.317   3.060  66.049  1.00  0.00    -0.071 C  
HETATM    2  N   UNL     1      -8.567   3.723  65.788  1.00  0.00    -0.110 NA 
HETATM    3  H   UNL     1      -9.371   3.110  65.653  1.00  0.00     0.000 HD 
HETATM    4  C   UNL     1      -8.823   5.060  65.698  1.00  0.00    -0.143 C  
HETATM    5  N   UNL     1      -7.796   5.860  66.108  1.00  0.00    -0.102 NA 
HETATM    6  N   UNL     1      -9.922   5.576  65.268  1.00  0.00    -0.181 NA 
HETATM    7  C   UNL     1     -11.019   4.714  64.869  1.00  0.00     0.157 C  
HETATM    8  H   UNL     1      -6.888   5.434  66.298  1.00  0.00     0.000 HD 
HETATM    9  H   UNL     1     -10.022   6.589  65.207  1.00  0.00     0.000 HD 
ENDROOT
BRANCH   5  10
HETATM   10  C   UNL     1      -7.948   7.294  66.285  1.00  0.00    -0.110 C  
BRANCH  10  11
HETATM   11  C   UNL     1      -8.705   7.704  67.536  1.00  0.00    -0.125 A  
HETATM   12  C   UNL     1      -8.554   7.071  68.779  1.00  0.00    -0.125 A  
HETATM   13  C   UNL     1      -9.297   7.482  69.889  1.00  0.00    -0.150 A  
HETATM   14  C   UNL     1     -10.202   8.535  69.776  1.00  0.00    -0.206 A  
HETATM   15  C   UNL     1     -10.360   9.183  68.554  1.00  0.00    -0.236 A  
HETATM   16  C   UNL     1      -9.616   8.772  67.444  1.00  0.00    -0.206 A  
ENDBRANCH  10  11
ENDBRANCH   5  10
TORSDOF 2
ENDMDL
MODEL      234
REMARK 921   NORMALIZED FREE ENERGY PREDICTED BY IDOCK:   -1.21 KCAL/MOL
REMARK 922        TOTAL FREE ENERGY PREDICTED BY IDOCK:   -1.52 KCAL/MOL
REMARK 923 INTER-LIGAND FREE ENERGY PREDICTED BY IDOCK:   -1.36 KCAL/MOL
REMARK 924 INTRA-LIGAND FREE ENERGY PREDICTED BY IDOCK:   -0.17 KCAL/MOL
REMARK 927      BINDING AFFINITY PREDICTED BY RF-SCORE:    0.00 PKD
ROOT
HETATM    1  C   UNL     1      -6.754   3.088  67.531  1.00  0.00    -0.045 C  
HETATM    2  N   UNL     1      -7.838   3.243  66.596  1.00  0.00    -0.080 NA 
HETATM    3  H   UNL     1      -8.181   2.381  66.173  1.00  0.00     0.000 HD 
HETATM    4  C   UNL     1      -8.467   4.387  66.200  1.00  0.00    -0.113 C  
HETATM    5  N   UNL     1      -8.155   5.488  66.943  1.00  0.00    -0.102 NA 
HETATM    6  N   UNL     1      -9.292   4.474  65.216  1.00  0.00    -0.154 NA 
HETATM    7  C   UNL     1      -9.643   3.288  64.457  1.00  0.00    -0.154 C  
HETATM    8  H   UNL     1      -7.388   5.427  67.615  1.00  0.00     0.000 HD 
HETATM    9  H   UNL     1      -9.700   5.376  64.969  1.00  0.00     0.000 HD 
ENDROOT
BRANCH   5  10
HETATM   10  C   UNL     1      -8.873   6.744  66.813  1.00  0.00    -0.124 C  
BRANCH  10  11
HETATM   11  C   UNL     1      -7.990   7.965  66.622  1.00  0.00    -0.103 A  
HETATM   12  C   UNL     1      -7.136   8.471  67.613  1.00  0.00    -0.080 A  
HETATM   13  C   UNL     1      -6.364   9.612  67.382  1.00  0.00    -0.068 A  
HETATM   14  C   UNL     1      -6.430  10.266  66.154  1.00  0.00    -0.103 A  
HETATM   15  C   UNL     1      -7.264   9.776  65.154  1.00  0.00    -0.122 A  
HETATM   16  C   UNL     1      -8.036   8.634  65.384  1.00  0.00    -0.111 A  
ENDBRANCH  10  11
ENDBRANCH   5  10
TORSDOF 2
ENDMDL
MODEL      235
REMARK 921   NORMALIZED FREE ENERGY PREDICTED BY IDOCK:   -1.15 KCAL/MOL
REMARK 922        TOTAL FREE ENERGY PREDICTED BY IDOCK:   -1.46 KCAL/MOL
REMARK 923 INTER-LIGAND FREE ENERGY PREDICTED BY IDOCK:   -1.30 KCAL/MOL
REMARK 924 INTRA-LIGAND FREE ENERGY PREDICTED BY IDOCK:   -0.16 KCAL/MOL
REMARK 927      BINDING AFFINITY PREDICTED BY RF-SCORE:    0.00 PKD
ROOT
HETATM    1  C   UNL     1      -6.348   4.236  67.041  1.00  0.00    -0.040 C  
HETATM    2  N   UNL     1      -7.670   4.703  66.717  1.00  0.00    -0.094 NA 
HETATM    3  H   UNL     1      -8.417   4.016  66.817  1.00  0.00     0.000 HD 
HETATM    4  C   UNL     1      -8.059   5.941  66.295  1.00  0.00    -0.104 C  
HETATM    5  N   UNL     1      -7.093   6.900  66.391  1.00  0.00    -0.072 NA 
HETATM    6  N   UNL     1      -9.226   6.232  65.835  1.00  0.00    -0.335 NA 
HETATM    7  C   UNL     1     -10.255   5.211  65.772  1.00  0.00    -0.053 C  
HETATM    8  H   UNL     1      -6.138   6.614  66.613  1.00  0.00     0.000 HD 
HETATM    9  H   UNL     1      -9.427   7.180  65.515  1.00  0.00     0.000 HD 
ENDROOT
BRANCH   5  10
HETATM   10  C   UNL     1      -7.373   8.311  66.191  1.00  0.00    -0.077 C  
BRANCH  10  11
HETATM   11  C   UNL     1      -7.558   9.110  67.469  1.00  0.00    -0.088 A  
HETATM   12  C   UNL     1      -8.206   8.614  68.610  1.00  0.00    -0.121 A  
HETATM   13  C   UNL     1      -8.363   9.408  69.750  1.00  0.00    -0.161 A  
HETATM   14  C   UNL     1      -7.873  10.711  69.768  1.00  0.00     0.029 A  
HETATM   15  C   UNL     1      -7.218  11.220  68.650  1.00  0.00    -0.098 A  
HETATM   16  C   UNL     1      -7.060  10.426  67.511  1.00  0.00    -0.086 A  
ENDBRANCH  10  11
ENDBRANCH   5  10
TORSDOF 2
ENDMDL
MODEL      236
REMARK 921   NORMALIZED FREE ENERGY PREDICTED BY IDOCK:   -1.08 KCAL/MOL
REMARK 922        TOTAL FREE ENERGY PREDICTED BY IDOCK:   -1.38 KCAL/MOL
REMARK 923 INTER-LIGAND FREE ENERGY PREDICTED BY IDOCK:   -1.19 KCAL/MOL
REMARK 924 INTRA-LIGAND FREE ENERGY PREDICTED BY IDOCK:   -0.19 KCAL/MOL
REMARK 927      BINDING AFFINITY PREDICTED BY RF-SCORE:    0.00 PKD
ROOT
HETATM    1  C   UNL     1      -7.411   3.072  66.071  1.00  0.00    -0.071 C  
HETATM    2  N   UNL     1      -8.622   3.844  66.144  1.00  0.00    -0.110 NA 
HETATM    3  H   UNL     1      -9.487   3.305  66.188  1.00  0.00     0.000 HD 
HETATM    4  C   UNL     1      -8.772   5.200  66.162  1.00  0.00    -0.123 C  
HETATM    5  N   UNL     1      -7.609   5.893  66.337  1.00  0.00    -0.090 NA 
HETATM    6  N   UNL     1      -9.891   5.823  66.028  1.00  0.00    -0.360 NA 
HETATM    7  C   UNL     1     -11.124   5.073  65.879  1.00  0.00     0.201 C  
HETATM    8  H   UNL     1      -6.723   5.388  66.287  1.00  0.00     0.000 HD 
HETATM    9  H   UNL     1      -9.911   6.843  66.027  1.00  0.00     0.000 HD 
ENDROOT
BRANCH   5  10
HETATM   10  C   UNL     1      -7.586   7.323  66.592  1.00  0.00    -0.093 C  
BRANCH  10  11
HETATM   11  C   UNL     1      -7.163   8.174  65.406  1.00  0.00    -0.068 A  
HETATM   12  C   UNL     1      -7.279   7.759  64.071  1.00  0.00    -0.080 A  
HETATM   13  C   UNL     1      -6.852   8.581  63.025  1.00  0.00    -0.090 A  
HETATM   14  C   UNL     1      -6.304   9.833  63.295  1.00  0.00    -0.116 A  
HETATM   15  C   UNL     1      -6.188  10.267  64.613  1.00  0.00    -0.116 A  
HETATM   16  C   UNL     1      -6.617   9.446  65.659  1.00  0.00    -0.070 A  
ENDBRANCH  10  11
ENDBRANCH   5  10
TORSDOF 2
ENDMDL
MODEL      237
REMARK 921   NORMALIZED FREE ENERGY PREDICTED BY IDOCK:   -1.01 KCAL/MOL
REMARK 922        TOTAL FREE ENERGY PREDICTED BY IDOCK:   -1.31 KCAL/MOL
REMARK 923 INTER-LIGAND FREE ENERGY PREDICTED BY IDOCK:   -1.14 KCAL/MOL
REMARK 924 INTRA-LIGAND FREE ENERGY PREDICTED BY IDOCK:   -0.17 KCAL/MOL
REMARK 927      BINDING AFFINITY PREDICTED BY RF-SCORE:    0.00 PKD
ROOT
HETATM    1  C   UNL     1      -5.952   2.640  66.617  1.00  0.00    -0.023 C  
HETATM    2  N   UNL     1      -7.160   2.483  65.850  1.00  0.00    -0.062 NA 
HETATM    3  H   UNL     1      -7.508   1.527  65.766  1.00  0.00     0.000 HD 
HETATM    4  C   UNL     1      -7.903   3.438  65.220  1.00  0.00    -0.082 C  
HETATM    5  N   UNL     1      -7.558   4.720  65.536  1.00  0.00    -0.084 NA 
HETATM    6  N   UNL     1      -8.859   3.204  64.390  1.00  0.00    -0.101 NA 
HETATM    7  C   UNL     1      -9.240   1.835  64.091  1.00  0.00    -0.122 C  
HETATM    8  H   UNL     1      -6.705   4.881  66.073  1.00  0.00     0.000 HD 
HETATM    9  H   UNL     1      -9.348   3.978  63.942  1.00  0.00     0.000 HD 
ENDROOT
BRANCH   5  10
HETATM   10  C   UNL     1      -8.359   5.864  65.136  1.00  0.00    -0.143 C  
BRANCH  10  11
HETATM   11  C   UNL     1      -7.585   6.972  64.443  1.00  0.00    -0.108 A  
HETATM   12  C   UNL     1      -6.618   7.762  65.082  1.00  0.00    -0.047 A  
HETATM   13  C   UNL     1      -5.955   8.782  64.394  1.00  0.00    -0.066 A  
HETATM   14  C   UNL     1      -6.245   9.027  63.054  1.00  0.00    -0.090 A  
HETATM   15  C   UNL     1      -7.194   8.248  62.398  1.00  0.00    -0.095 A  
HETATM   16  C   UNL     1      -7.856   7.227  63.086  1.00  0.00    -0.116 A  
ENDBRANCH  10  11
ENDBRANCH   5  10
TORSDOF 2
ENDMDL
MODEL      238
REMARK 921   NORMALIZED FREE ENERGY PREDICTED BY IDOCK:   19.52 KCAL/MOL
REMARK 922        TOTAL FREE ENERGY PREDICTED BY IDOCK:   21.63 KCAL/MOL
REMARK 923 INTER-LIGAND FREE ENERGY PREDICTED BY IDOCK:   21.80 KCAL/MOL
REMARK 924 INTRA-LIGAND FREE ENERGY PREDICTED BY IDOCK:   -0.17 KCAL/MOL
REMARK 927      BINDING AFFINITY PREDICTED BY RF-SCORE:    0.00 PKD
ROOT
HETATM    1  C   UNL     1     -10.947  15.239  72.759  1.00  0.00     0.831 C  
HETATM    2  N   UNL     1     -11.846  14.601  71.835  1.00  0.00    -0.363 NA 
HETATM    3  H   UNL     1     -12.804  14.950  71.839  1.00  0.00     0.000 HD 
HETATM    4  C   UNL     1     -11.590  13.591  70.953  1.00  0.00     0.519 C  
HETATM    5  N   UNL     1     -10.266  13.301  70.797  1.00  0.00     3.540 NA 
HETATM    6  N   UNL     1     -12.485  12.936  70.299  1.00  0.00    -0.188 NA 
HETATM    7  C   UNL     1     -13.887  13.280  70.447  1.00  0.00     2.113 C  
HETATM    8  H   UNL     1      -9.591  13.726  71.435  1.00  0.00     0.000 HD 
HETATM    9  H   UNL     1     -12.209  12.175  69.678  1.00  0.00     0.000 HD 
ENDROOT
BRANCH   5  10
HETATM   10  C   UNL     1      -9.781  12.410  69.757  1.00  0.00     2.019 C  
BRANCH  10  11
HETATM   11  C   UNL     1      -8.912  11.267  70.253  1.00  0.00     2.729 A  
HETATM   12  C   UNL     1      -8.052  11.366  71.357  1.00  0.00     8.576 A  
HETATM   13  C   UNL     1      -7.262  10.283  71.751  1.00  0.00     2.491 A  
HETATM   14  C   UNL     1      -7.319   9.081  71.050  1.00  0.00    -0.125 A  
HETATM   15  C   UNL     1      -8.172   8.959  69.957  1.00  0.00    -0.122 A  
HETATM   16  C   UNL     1      -8.964  10.042  69.563  1.00  0.00    -0.220 A  
ENDBRANCH  10  11
ENDBRANCH   5  10
TORSDOF 2
ENDMDL
